data_mof_unit_58356.cif
_audit_creation_date              2013-03-05T15:51:50-0500
_audit_creation_method            fapswitch 2.2
_symmetry_space_group_name_H-M    P1
_symmetry_Int_Tables_number       1
_space_group_crystal_system       triclinic
_cell_length_a                    11.063009
_cell_length_b                    10.966572
_cell_length_c                    18.729421
_cell_angle_alpha                 89.85578
_cell_angle_beta                  89.135209
_cell_angle_gamma                 60.160661
_cell_volume                      1970.80336115

loop_
_atom_site_label
_atom_site_type_symbol
_atom_site_description
_atom_site_fract_x
_atom_site_fract_y
_atom_site_fract_z
_atom_type_partial_charge
O1    O     O_R   0.507380 0.255700 0.581440 -0.510580
O2    O     O_R   0.280320 0.527350 0.578930 -0.502137
C1    C     C_R   0.240611 0.644390 0.611017 0.532037
O3    O     O_R   0.260510 0.739590 0.584590 -0.529057
O4    O     O_R   0.532300 0.695080 0.573820 -0.497674
C2    C     C_R   0.651591 0.620052 0.602108 0.548706
O5    O     O_R   0.744840 0.503500 0.576370 -0.522392
O6    O     O_R   0.699120 0.276560 0.571960 -0.501125
C3    C     C_R   0.623932 0.234583 0.604668 0.543666
O7    O     O_R   0.498940 0.256500 0.419860 -0.510005
O8    O     O_R   0.272500 0.528080 0.429150 -0.528848
C4    C     C_R   0.220745 0.649107 0.401929 0.520555
O9    O     O_R   0.252060 0.740380 0.423010 -0.505117
O10   O     O_R   0.524480 0.695810 0.424040 -0.417235
C5    C     C_R   0.614052 0.586210 0.386655 0.579702
O11   O     O_R   0.736390 0.504290 0.414790 -0.521375
O12   O     O_R   0.691300 0.277290 0.422170 -0.527600
C6    C     C_R   0.619574 0.227099 0.395843 0.550106
Cr1   Cr    Cr6+3 0.392960 0.397920 0.502240 1.029951
Cr2   Cr    Cr6+3 0.398340 0.708480 0.501250 1.082155
Cr3   Cr    Cr6+3 0.708670 0.393570 0.496460 1.016803
O13   O     O_3   0.499990 0.499990 0.499980 -0.296199
C7    C     C_3   0.536777 0.730189 0.798393 -0.094951
H1    H     H_    0.499967 0.669697 0.831070 0.069901
C8    C     C_3   0.523565 0.703191 0.718363 -0.193052
H2    H     H_    0.488656 0.624335 0.714178 0.111007
H3    H     H_    0.444739 0.800969 0.691942 0.177277
H4    H     H_    0.694960 0.868533 0.783983 0.182000
H5    H     H_    0.644003 0.852293 0.667620 0.163867
C9    C     C_3   0.747216 0.756210 0.767484 -0.202108
C10   C     C_3   0.772478 0.514456 0.793084 -0.259468
C11   C     C_3   0.694243 0.672497 0.814232 0.049695
H6    H     H_    0.882798 0.457201 0.809025 0.171851
H7    H     H_    0.722440 0.460012 0.820270 0.122654
C12   C     C_3   0.666072 0.643924 0.678338 0.025489
C13   C     C_3   0.721343 0.746532 0.687720 -0.240877
C14   C     C_3   0.767893 0.500093 0.712982 -0.232245
H8    H     H_    0.732788 0.423565 0.701811 0.149557
H9    H     H_    0.874766 0.456793 0.689892 0.152918
H10   H     H_    0.858861 0.718344 0.774825 0.088046
H11   H     H_    0.819159 0.710923 0.656139 0.105280
C15   C     C_R   0.680785 0.178979 0.829696 -0.001347
C16   C     C_R   0.792043 0.156386 0.784650 0.000280
C17   C     C_R   0.775957 0.169886 0.711055 -0.001588
C18   C     C_R   0.533291 0.245746 0.726241 -0.121815
C19   C     C_R   0.548041 0.239904 0.799896 -0.129039
C20   C     C_3   0.933375 0.031973 0.777199 -0.248370
C21   C     C_3   0.916304 0.046630 0.696872 -0.272816
C22   C     C_R   0.649161 0.202695 0.680410 0.003769
H12   H     H_    0.431337 0.280607 0.705177 0.165224
H13   H     H_    0.458039 0.266185 0.833126 0.148813
H14   H     H_    0.937251 0.935127 0.798058 0.153612
H15   H     H_    0.013902 0.055136 0.797179 0.172361
H16   H     H_    0.987642 0.077420 0.670386 0.157447
H17   H     H_    0.911831 0.957632 0.671168 0.135800
C23   C     C_R   0.197417 0.659086 0.838465 -0.005237
C24   C     C_R   0.213379 0.541594 0.800159 -0.034214
C25   C     C_R   0.221628 0.539155 0.725840 -0.012529
C26   C     C_R   0.215956 0.760489 0.727019 -0.172404
C27   C     C_R   0.218053 0.758027 0.801156 -0.173931
C28   C     C_3   0.126457 0.472066 0.800335 -0.110871
C29   C     C_3   0.136428 0.469043 0.719091 -0.242120
C30   C     C_R   0.211149 0.653905 0.687844 0.006349
H18   H     H_    0.217622 0.847500 0.700626 0.152455
H19   H     H_    0.214872 0.846122 0.828591 0.138295
H20   H     H_    0.022309 0.541533 0.822482 0.151703
H21   H     H_    0.196259 0.362519 0.694835 0.180869
H22   H     H_    0.035816 0.537958 0.693099 0.107228
C31   C     C_R   0.644777 0.646837 0.161643 0.015967
C32   C     C_R   0.741559 0.524778 0.197086 0.006456
C33   C     C_R   0.725612 0.504412 0.268446 -0.027348
C34   C     C_R   0.500418 0.710028 0.270197 -0.104298
C35   C     C_R   0.516246 0.732135 0.196749 -0.157220
C36   C     C_3   0.894698 0.467830 0.205280 -0.221478
C37   C     C_3   0.874951 0.450018 0.283232 -0.214300
C38   C     C_R   0.612119 0.601993 0.308175 0.028883
H23   H     H_    0.406205 0.783242 0.298146 0.184092
H24   H     H_    0.433250 0.820636 0.169554 0.114866
H25   H     H_    0.924949 0.548982 0.195865 0.169561
H26   H     H_    0.958308 0.366573 0.176313 0.146342
H27   H     H_    0.931806 0.338942 0.300604 0.173521
H28   H     H_    0.888433 0.524859 0.317436 0.180756
C39   C     C_R   0.655804 0.143858 0.178435 0.014616
C40   C     C_R   0.602327 0.078840 0.222821 -0.011648
C41   C     C_R   0.606044 0.088546 0.295752 0.043669
C42   C     C_R   0.745470 0.197944 0.283056 -0.176242
C43   C     C_R   0.736876 0.194870 0.209081 -0.171992
C44   C     C_3   0.460855 0.092794 0.225809 -0.233972
C45   C     C_3   0.466486 0.103097 0.306375 0.117512
C46   C     C_R   0.665619 0.160042 0.326766 0.000013
H29   H     H_    0.804584 0.240666 0.306104 0.143074
H30   H     H_    0.794650 0.230166 0.176058 0.131304
H31   H     H_    0.462921 0.996723 0.206959 0.150873
H32   H     H_    0.380285 0.191627 0.200846 0.144141
H33   H     H_    0.390789 0.205183 0.329185 0.197845
C47   C     C_R   0.155370 0.671318 0.181475 -0.007296
C48   C     C_R   0.172239 0.771231 0.219562 0.014762
C49   C     C_R   0.175142 0.768115 0.291816 0.005183
C50   C     C_R   0.165613 0.552924 0.292772 -0.011598
C51   C     C_R   0.165161 0.555211 0.217618 -0.144693
C52   C     C_3   0.090252 0.929539 0.220647 -0.257410
C53   C     C_3   0.093916 0.923239 0.301058 -0.271130
C54   C     C_R   0.167710 0.664562 0.330514 -0.013061
H34   H     H_    0.158630 0.474252 0.187825 0.158145
H35   H     H_    0.983496 0.971942 0.200254 0.182766
H36   H     H_    0.150190 0.977144 0.197384 0.139220
H37   H     H_    0.155904 0.966988 0.324395 0.201939
H38   H     H_    0.990563 0.958794 0.326919 0.149344
O14   O     O_R   0.089400 0.825690 0.930570 -0.524861
O15   O     O_R   0.818460 0.054440 0.929850 -0.499731
C55   C     C_R   0.701573 0.104574 0.897177 0.535182
O16   O     O_R   0.606060 0.077150 0.915510 -0.511067
O17   O     O_R   0.646550 0.806680 0.917570 -0.506276
C56   C     C_R   0.721330 0.686223 0.889660 0.524258
O18   O     O_R   0.837170 0.593410 0.915250 -0.537083
O19   O     O_R   0.065200 0.635530 0.931570 -0.519101
C57   C     C_R   0.120515 0.704653 0.906408 0.529370
O20   O     O_R   0.068260 0.828890 0.091840 -0.523254
O21   O     O_R   0.798870 0.057410 0.079340 -0.512260
C58   C     C_R   0.675042 0.105171 0.104300 0.546703
O22   O     O_R   0.584930 0.080350 0.076780 -0.520080
O23   O     O_R   0.626960 0.809650 0.067060 -0.502626
C59   C     C_R   0.693755 0.686851 0.096427 0.541436
O24   O     O_R   0.816040 0.596610 0.076510 -0.523801
O25   O     O_R   0.045610 0.638500 0.081060 -0.514600
C60   C     C_R   0.093894 0.709269 0.112078 0.546480
Cr4   Cr    Cr6+3 0.937650 0.938540 0.007610 1.010378
Cr5   Cr    Cr6+3 0.625330 0.937370 0.994520 1.017622
Cr6   Cr    Cr6+3 0.937940 0.625230 0.001190 0.999649
O26   O     O_3   0.833640 0.833710 0.001100 -0.249439
C61   C     C_2   0.442897 0.884003 0.817947 0.245318
H39   H     H_    0.383906 0.911473 0.867860 0.121163
O27   O     O_2   0.435365 0.977918 0.779754 -0.486791
C62   C     C_2   0.193732 0.330793 0.835539 0.230429
H40   H     H_    0.245922 0.316134 0.886037 0.112017
O28   O     O_2   0.181888 0.234697 0.810504 -0.497560
N1    N     N_R   0.472189 0.985201 0.345447 0.073150
O29   O     O_R   0.356950 0.998617 0.372039 -0.358387
O30   O     O_R   0.590438 0.885823 0.369330 -0.330074
C63   C     C_2   0.150645 0.441536 0.329728 0.195314
H41   H     H_    0.122691 0.450360 0.385925 0.148298
O31   O     O_2   0.162352 0.340455 0.296619 -0.580038

loop_
_geom_bond_atom_site_label_1
_geom_bond_atom_site_label_2
_geom_bond_distance
_ccdc_geom_bond_type
C17   C22   1.395572 A    
C25   C29   1.490268 S    
C21   H17   1.112619 S    
C50   C54   1.425546 A    
C52   C53   1.507680 S    
C33   C37   1.481326 S    
C23   C57   1.462973 S    
C39   C43   1.401178 A    
C55   O16   1.276580 A    
C34   C38   1.414932 A    
C56   O18   1.275181 A    
O14   C57   1.276251 A    
C59   O24   1.266105 A    
O4    Cr2   1.976969 S    
C18   C19   1.389148 A    
O19   C57   1.273707 A    
C21   H16   1.111531 S    
C4    O9    1.276335 A    
N1    O30   1.302161 A    
H5    C13   1.113107 S    
O8    Cr1   1.959509 S    
C26   H18   1.081699 S    
O11   Cr3   2.062810 S    
C29   H21   1.110556 S    
C39   C40   1.396943 A    
C12   C14   1.557770 S    
C14   H8    1.107538 S    
C63   O31   1.219948 D    
Cr6   O26   1.983278 S    
C42   H29   1.071439 S    
C33   C38   1.383487 A    
C31   C59   1.480558 S    
C49   C54   1.381556 A    
C51   H34   1.082779 S    
C2    C12   1.477568 S    
C15   C19   1.400360 A    
O15   C55   1.289807 A    
C28   H20   1.092540 S    
O14   Cr4   2.073721 S    
O19   Cr6   1.948651 S    
C12   C13   1.536198 S    
O6    C3    1.281930 A    
C32   C36   1.496095 S    
C35   H24   1.081339 S    
C10   H6    1.104718 S    
C3    C22   1.457727 S    
C53   H38   1.111123 S    
C32   C33   1.377648 A    
O15   Cr4   1.963705 S    
C20   H15   1.110825 S    
C5    C38   1.478832 S    
C26   C27   1.389051 A    
C36   H26   1.111993 S    
Cr3   O13   2.002679 S    
C13   H11   1.111162 S    
C31   C32   1.403414 A    
C28   C62   1.500382 S    
C48   C49   1.354089 A    
C52   H35   1.105971 S    
C41   C46   1.383711 A    
C44   H32   1.111971 S    
O1    Cr1   2.077409 S    
C36   C37   1.499626 S    
C9    H10   1.100595 S    
C6    C46   1.444377 S    
O10   Cr2   1.950651 S    
Cr1   O13   1.993487 S    
O1    C3    1.274657 A    
C40   C41   1.373200 A    
O22   Cr5   2.079919 S    
C42   C46   1.401874 A    
O17   Cr5   1.962584 S    
C41   C45   1.481372 S    
C42   C43   1.391834 A    
C37   H27   1.107719 S    
C62   O28   1.220404 D    
C8    H2    1.112097 S    
C49   C53   1.485596 S    
C19   H13   1.076315 S    
O12   Cr3   1.964667 S    
C10   C14   1.513135 S    
Cr5   O26   2.004792 S    
C39   C58   1.434365 S    
C45   H33   1.093525 S    
C16   C17   1.390569 A    
C34   H23   1.076048 S    
C20   C21   1.517267 S    
C18   C22   1.403395 A    
O7    Cr1   2.075688 S    
C7    H1    1.113441 S    
C47   C48   1.398457 A    
O12   C6    1.274195 A    
C10   H7    1.114021 S    
C47   C60   1.437857 S    
C53   H37   1.108620 S    
C63   H41   1.083393 S    
C31   C35   1.407305 A    
C2    O5    1.267382 A    
C8    C12   1.554666 S    
C4    C54   1.444179 S    
Cr2   O13   1.983348 S    
C27   H19   1.080158 S    
C45   N1    1.458290 S    
C36   H25   1.108576 S    
O25   C60   1.284271 A    
C50   C63   1.480624 S    
C15   C16   1.398002 A    
C1    O3    1.267375 A    
C52   H36   1.112079 S    
C58   O22   1.272737 A    
O17   C56   1.267117 A    
O18   Cr6   2.097509 S    
C25   C30   1.398670 A    
C23   C24   1.407309 A    
C44   H31   1.101280 S    
O9    Cr2   2.096250 S    
O2    Cr1   1.956209 S    
C10   C11   1.552481 S    
C40   C44   1.495053 S    
C34   C35   1.419545 A    
C61   O27   1.221510 D    
O6    Cr3   1.943870 S    
O21   C58   1.279611 A    
C37   H28   1.110689 S    
C24   C28   1.495210 S    
C20   H14   1.111554 S    
C1    C30   1.463013 S    
C8    H3    1.111283 S    
N1    O29   1.299836 A    
C62   H40   1.084942 S    
C26   C30   1.405264 A    
C50   C51   1.407799 A    
C9    C13   1.539162 S    
C7    C11   1.562331 S    
H4    C9    1.111255 S    
O2    C1    1.279218 A    
Cr4   O26   1.995465 S    
C14   H9    1.112355 S    
O5    Cr3   2.088233 S    
C61   H39   1.085338 S    
C9    C11   1.571221 S    
C24   C25   1.393016 A    
O4    C2    1.279719 A    
C18   H12   1.075896 S    
O7    C6    1.281321 A    
C5    O11   1.313654 A    
C47   C51   1.397100 A    
O24   Cr6   2.066112 S    
C29   H22   1.106559 S    
C7    C8    1.551680 S    
C15   C55   1.460458 S    
O23   Cr5   1.942693 S    
C28   C29   1.523220 S    
O16   Cr5   2.063489 S    
O3    Cr2   2.071481 S    
O25   Cr6   1.976154 S    
C23   C27   1.398433 A    
C44   C45   1.517981 S    
O20   Cr4   2.086326 S    
C7    C61   1.518675 S    
O10   C5    1.309556 A    
O20   C60   1.255202 A    
C11   C56   1.472062 S    
O23   C59   1.296293 A    
C43   H30   1.083487 S    
C16   C20   1.482292 S    
C48   C52   1.506556 S    
C17   C21   1.486344 S    
O8    C4    1.264322 A    
O21   Cr4   1.953539 S    
