data_mof_unit_24820.cif
_audit_creation_date              2013-03-05T16:11:49-0500
_audit_creation_method            fapswitch 2.2
_symmetry_space_group_name_H-M    P1
_symmetry_Int_Tables_number       1
_space_group_crystal_system       triclinic
_cell_length_a                    11.524065
_cell_length_b                    9.877177
_cell_length_c                    23.460877
_cell_angle_alpha                 88.005669
_cell_angle_beta                  91.343867
_cell_angle_gamma                 88.723507
_cell_volume                      2667.37529583

loop_
_atom_site_label
_atom_site_type_symbol
_atom_site_description
_atom_site_fract_x
_atom_site_fract_y
_atom_site_fract_z
_atom_type_partial_charge
O1    O     O_R   0.317570 0.620260 0.500030 -0.587886
O2    O     O_R   0.317570 0.379740 0.500030 -0.555567
C1    C     C_R   0.258328 0.502262 0.496621 0.852034
O3    O     O_R   0.499840 0.620290 0.417900 -0.596849
O4    O     O_R   0.499840 0.379710 0.417900 -0.550005
C2    C     C_R   0.502722 0.501982 0.391657 0.794524
Cu1   Cu    Cu3+1 0.499860 0.642410 0.500030 0.982957
Cu2   Cu    Cu3+1 0.499860 0.357590 0.500030 1.042157
O5    O     O_R   0.682190 0.620260 0.500010 -0.536814
O6    O     O_R   0.682190 0.379740 0.500010 -0.576589
O7    O     O_R   0.499920 0.620230 0.582140 -0.608668
O8    O     O_R   0.499920 0.379770 0.582140 -0.482710
C3    C     C_R   0.737464 0.498665 0.501286 0.821954
C4    C     C_R   0.502650 0.497936 0.608776 0.798742
C5    C     C_R   0.673745 0.496443 0.882829 0.652931
N1    N     N_R   0.573907 0.529934 0.851842 -0.475779
C6    C     C_R   0.476766 0.576850 0.878236 0.563612
C7    C     C_R   0.471153 0.570115 0.937601 -0.023114
C8    C     C_R   0.573359 0.540725 0.970039 -0.063172
C9    C     C_R   0.678715 0.513010 0.942631 -0.124561
C10   C     C_R   0.365049 0.587486 0.964994 -0.099111
C11   C     C_R   0.359768 0.570422 0.024047 -0.118266
C12   C     C_R   0.461765 0.546080 0.057017 -0.016921
C13   C     C_R   0.569324 0.537920 0.030111 -0.009204
C14   C     C_R   0.672314 0.526260 0.063173 -0.095415
C15   C     C_R   0.778523 0.509878 0.035864 -0.156105
C16   C     C_R   0.782475 0.499088 0.976488 0.415463
C17   C     C_R   0.459061 0.530285 0.116479 0.541316
N2    N     N_R   0.560195 0.529790 0.148746 -0.463542
C18   C     C_R   0.665975 0.532756 0.122885 0.650677
O9    O     O_2   0.765463 0.443271 0.856137 -0.393759
O10   O     O_2   0.384092 0.624828 0.846857 -0.456114
H1    H     H_    0.285125 0.608410 0.940744 0.221756
H2    H     H_    0.276099 0.579565 0.043833 0.210856
O11   O     O_2   0.355836 0.517577 0.141951 -0.486561
O12   O     O_2   0.764393 0.542857 0.154561 -0.455695
H3    H     H_    0.858927 0.501518 0.060745 0.226300
C19   C     C_R   0.608229 0.425471 0.244708 0.465737
C20   C     C_R   0.597361 0.424876 0.303771 -0.137791
H4    H     H_    0.651697 0.356260 0.329781 0.251346
C21   C     C_R   0.514511 0.508093 0.328804 -0.191394
C22   C     C_R   0.446601 0.598826 0.293486 -0.042676
C23   C     C_R   0.481222 0.626038 0.236756 -0.048797
C24   C     C_R   0.552917 0.529115 0.210354 0.105514
C25   C     C_R   0.476803 0.421822 0.770326 -0.065687
C26   C     C_R   0.449214 0.424474 0.710898 -0.099701
C27   C     C_R   0.521454 0.494330 0.672150 -0.149893
C28   C     C_R   0.617373 0.561958 0.694155 -0.216904
H5    H     H_    0.679077 0.606705 0.666077 0.165704
C29   C     C_R   0.635334 0.575298 0.752522 0.491261
C30   C     C_R   0.565333 0.505442 0.791347 0.125297
C31   C     C_3   0.059429 0.611488 0.539785 0.631654
C32   C     C_3   0.064281 0.359628 0.510572 0.462660
C33   C     C_3   0.927781 0.574986 0.554866 0.121614
C34   C     C_3   0.927344 0.349566 0.501315 0.193128
H6    H     H_    0.887394 0.675501 0.444941 0.252847
H7    H     H_    0.861429 0.531783 0.407318 0.234773
C35   C     C_3   0.050264 0.548541 0.433070 -0.199156
C36   C     C_3   0.114585 0.507350 0.494211 -0.278741
C37   C     C_3   0.872797 0.497052 0.501836 -0.325675
C38   C     C_3   0.913709 0.566621 0.444151 -0.323814
C39   C     C_3   0.613491 0.075540 0.526539 -0.110330
C40   C     C_3   0.604941 0.910552 0.532795 -0.125525
H8    H     H_    0.686983 0.097253 0.498454 0.208444
H9    H     H_    0.685233 0.870983 0.514224 0.232815
H10   H     H_    0.453400 0.066558 0.584156 0.245707
H11   H     H_    0.398889 0.867277 0.574433 0.197644
C41   C     C_3   0.415600 0.072868 0.540576 -0.186800
C42   C     C_3   0.401403 0.918613 0.531347 -0.312551
C43   C     C_3   0.496012 0.087199 0.441561 0.267255
C44   C     C_3   0.506416 0.921261 0.441535 0.274889
N3    N     N_3   0.500250 0.143650 0.501250 -0.253918
N4    N     N_3   0.500250 0.856350 0.501250 -0.274314
C45   C     C_2   0.340738 0.365772 0.689993 0.665280
H12   H     H_    0.287381 0.422591 0.658631 0.147200
O13   O     O_2   0.311543 0.252915 0.706102 -0.416669
Cl1   Cl    Cl    0.742200 0.687853 0.775005 -0.403747
Cl2   Cl    Cl    0.048099 0.784633 0.510731 -0.414582
Cl3   Cl    Cl    0.123639 0.224045 0.471802 -0.498238
Cl4   Cl    Cl    0.152700 0.627984 0.601783 -0.501106
Cl5   Cl    Cl    0.103204 0.319863 0.584125 -0.527235
C46   C     C_2   0.904276 0.502386 0.611851 0.529719
H13   H     H_    0.817454 0.466782 0.619199 0.005882
O14   O     O_2   0.971928 0.499065 0.652672 -0.360712
C47   C     C_2   0.882475 0.249918 0.544989 0.528097
H14   H     H_    0.824972 0.282062 0.577193 -0.030426
O15   O     O_2   0.915718 0.131298 0.545610 -0.406092
Cl6   Cl    Cl    0.849989 0.726596 0.571093 -0.571287
Cl7   Cl    Cl    0.879781 0.271135 0.435472 -0.381658
C48   C     C_2   0.084914 0.676561 0.401617 0.488742
H15   H     H_    0.029739 0.719120 0.366963 0.152985
O16   O     O_2   0.174348 0.732212 0.412824 -0.525732
C49   C     C_2   0.078067 0.447469 0.387695 0.515852
H16   H     H_    0.164999 0.403192 0.386384 0.082798
O17   O     O_2   0.009768 0.426192 0.348550 -0.435601
C50   C     C_2   0.661903 0.124377 0.583306 0.436015
H17   H     H_    0.745176 0.082144 0.597887 0.139824
O18   O     O_2   0.607215 0.186217 0.617943 -0.480930
C51   C     C_2   0.612622 0.852298 0.594390 0.452646
H18   H     H_    0.651560 0.755513 0.602015 0.151258
O19   O     O_2   0.569655 0.906217 0.635203 -0.511712
C52   C     C_2   0.388246 0.145079 0.410688 0.519860
H19   H     H_    0.316445 0.174334 0.434929 0.126642
O20   O     O_2   0.382623 0.164093 0.358904 -0.423904
C53   C     C_2   0.417525 0.867102 0.400893 0.505890
H20   H     H_    0.360046 0.791856 0.415596 0.143106
O21   O     O_2   0.415744 0.899799 0.350202 -0.412624
Cl8   Cl    Cl    0.615438 0.150788 0.399569 -0.410005
Cl9   Cl    Cl    0.639535 0.857868 0.409417 -0.450132
C54   C     C_2   0.312399 0.144599 0.560184 0.566966
H21   H     H_    0.227714 0.101068 0.556611 0.183714
O22   O     O_2   0.325097 0.238720 0.591116 -0.474610
C55   C     C_2   0.286653 0.889239 0.508468 0.426986
H22   H     H_    0.243665 0.817469 0.534181 0.206767
O23   O     O_2   0.239010 0.952303 0.468566 -0.473933
Cl10  Cl    Cl    0.921266 0.476628 0.947622 -0.424288
Cl11  Cl    Cl    0.688506 0.291561 0.215775 -0.408603
C56   C     C_2   0.328821 0.637673 0.312304 0.573591
H23   H     H_    0.302856 0.606459 0.354539 -0.006364
O24   O     O_2   0.256774 0.693940 0.280085 -0.440744
C57   C     C_2   0.449114 0.756325 0.205621 0.603670
H24   H     H_    0.466566 0.770675 0.160644 0.036053
O25   O     O_2   0.409668 0.853010 0.230470 -0.396987
C58   C     C_2   0.412217 0.337928 0.812332 0.538287
H25   H     H_    0.459804 0.283849 0.846859 0.054557
O26   O     O_2   0.306293 0.336489 0.811472 -0.421960

loop_
_geom_bond_atom_site_label_1
_geom_bond_atom_site_label_2
_geom_bond_distance
_ccdc_geom_bond_type
H10   C41   1.101125 S    
C40   H9    1.101526 S    
C49   H16   1.085678 S    
C39   C50   1.529550 S    
C7    C10   1.404547 A    
C21   C22   1.410254 A    
C8    C9    1.413006 A    
N1    C30   1.449471 S    
C33   C46   1.527694 S    
C32   C36   1.619081 S    
Cu1   Cu2   2.813217 S    
Cu1   N4    2.114416 S    
C3    C37   1.559057 S    
C33   C37   1.610372 S    
C47   H14   1.068451 S    
Cu1   O7    1.931179 S    
C53   O21   1.221005 D    
C42   C55   1.454534 S    
C15   C16   1.402490 A    
C39   C40   1.636482 S    
C45   O13   1.221452 D    
C10   C11   1.392723 A    
C17   N2    1.374610 A    
C32   Cl3   1.778143 S    
C35   C49   1.519291 S    
C19   C20   1.394073 A    
O7    C4    1.339929 A    
C10   H1    1.083276 S    
C25   C30   1.417238 A    
C5    N1    1.374320 A    
C32   Cl5   1.800533 S    
C7    C8    1.406420 A    
O5    C3    1.345959 A    
C54   H21   1.077816 S    
C40   C51   1.536567 S    
C56   H23   1.078506 S    
C19   Cl11  1.761664 S    
C27   C28   1.401674 A    
C17   O11   1.350086 S    
C41   C42   1.558007 S    
C2    C21   1.483274 S    
C50   O18   1.213275 D    
C39   H8    1.105379 S    
C12   C13   1.406107 A    
C42   N4    1.486990 S    
C43   C44   1.640739 S    
C23   C57   1.492383 S    
C41   N3    1.522941 S    
C16   Cl10  1.763947 S    
C35   C38   1.608049 S    
C28   C29   1.391334 A    
C49   O17   1.222274 D    
C34   C37   1.574235 S    
O3    Cu1   1.946727 S    
C31   Cl2   1.819654 S    
C31   C33   1.611683 S    
C6    C7    1.395124 A    
C56   O24   1.220801 D    
C32   C34   1.593661 S    
C25   C58   1.488910 S    
C5    C9    1.418130 A    
C11   H2    1.083212 S    
Cu2   N3    2.112224 S    
C45   H12   1.081245 S    
C47   O15   1.224030 D    
C13   C14   1.402871 A    
C20   C21   1.398941 A    
C20   H4    1.076173 S    
C44   N4    1.524128 S    
C22   C56   1.483618 S    
C40   N4    1.518014 S    
C14   C15   1.403539 A    
C25   C26   1.421959 A    
C5    O9    1.346979 S    
C37   C38   1.582915 S    
O1    C1    1.367565 A    
C34   C47   1.504413 S    
C23   C24   1.418727 A    
C19   C24   1.411830 A    
N2    C18   1.374781 A    
C31   C36   1.638445 S    
C48   O16   1.206688 D    
C51   H18   1.054720 S    
Cu2   O8    1.946333 S    
C50   H17   1.081093 S    
C29   C30   1.404286 A    
C39   N3    1.550603 S    
C41   C54   1.462470 S    
C12   C17   1.399482 A    
C52   O20   1.222837 D    
C35   C48   1.508059 S    
C57   H24   1.083878 S    
O3    C2    1.339763 A    
C28   H5    1.072660 S    
C51   O19   1.221308 D    
O8    C4    1.343586 A    
C46   O14   1.219737 D    
C44   C53   1.502930 S    
N2    C24   1.449567 S    
C22   C23   1.416894 A    
C29   Cl1   1.761291 S    
C26   C45   1.470632 S    
C58   O26   1.220784 D    
C55   H22   1.054393 S    
C14   C18   1.408132 A    
Cu1   O5    2.107703 S    
C26   C27   1.418781 A    
O1    Cu1   2.116924 S    
C11   C12   1.403398 A    
O2    Cu2   2.107229 S    
O6    C3    1.349565 A    
O4    Cu2   1.931616 S    
C43   C52   1.513643 S    
C15   H3    1.083504 S    
H7    C38   1.110690 S    
C4    C27   1.496558 S    
C9    C16   1.421329 A    
C53   H20   1.060629 S    
C18   O12   1.348792 S    
O2    C1    1.375093 A    
C35   C36   1.633575 S    
C34   Cl7   1.830112 S    
C43   Cl8   1.821598 S    
C33   Cl6   1.785200 S    
C48   H15   1.087229 S    
O4    C2    1.337798 A    
C44   Cl9   1.832354 S    
C8    C13   1.410537 A    
C52   H19   1.055686 S    
C54   O22   1.208436 D    
C57   O25   1.220777 D    
Cu2   O6    2.117394 S    
C46   H13   1.083514 S    
C6    O10   1.350337 S    
H6    C38   1.111737 S    
C43   N3    1.525321 S    
H11   C42   1.116274 S    
C31   Cl4   1.802353 S    
N1    C6    1.371402 A    
C58   H25   1.085449 S    
C55   O23   1.218953 D    
C1    C36   1.655724 S    
