data_mof_unit_59500.cif
_audit_creation_date              2012-12-10T17:23:37-0500
_audit_creation_method            fapswitch 2.2
_symmetry_space_group_name_H-M    P1
_symmetry_Int_Tables_number       1
_space_group_crystal_system       triclinic
_cell_length_a                    10.347503
_cell_length_b                    10.397302
_cell_length_c                    15.66083
_cell_angle_alpha                 92.479076
_cell_angle_beta                  83.032754
_cell_angle_gamma                 93.075187
_cell_volume                      1668.88961395

loop_
_atom_site_label
_atom_site_type_symbol
_atom_type_description
_atom_site_fract_x
_atom_site_fract_y
_atom_site_fract_z
_atom_type_partial_charge
C1    C     C_R   0.552296 0.734172 0.501413 0.914476
C2    C     C_3   0.519451 0.374199 0.965406 0.155123
C3    C     C_3   0.578961 0.581961 0.971063 0.135995
C4    C     C_3   0.397568 0.400536 0.030059 0.118537
C5    C     C_1   0.503772 0.497995 0.749907 -0.211888
C6    C     C_1   0.491832 0.492246 0.249851 -0.197380
C7    C     C_3   0.369938 0.520259 0.980602 0.052834
C8    C     C_3   0.606210 0.461975 0.019599 0.060985
C9    C     C_3   0.492248 0.493969 0.916853 -0.025504
C10   C     C_3   0.484314 0.487938 0.083589 -0.047360
C11   C     C_1   0.500529 0.495985 0.825381 -0.081965
C12   C     C_R   0.448575 0.266587 0.511830 0.913002
C13   C     C_1   0.486258 0.488234 0.174835 -0.080259
C14   C     C_2   0.575445 0.870871 0.519722 -0.462833
C15   C     C_2   0.428824 0.133000 0.536076 -0.449716
C16   C     C_3   0.679322 0.679940 0.927497 -0.379754
C17   C     C_3   0.748980 0.764288 0.991527 -0.896105
C18   C     C_3   0.295929 0.303766 0.073711 -0.386141
C19   C     C_3   0.245009 0.202277 0.010946 -0.895991
C20   C     C_3   0.419606 0.731475 0.087900 -0.368486
C21   C     C_3   0.387277 0.840340 0.033207 -0.909260
C22   C     C_3   0.551219 0.246908 0.915397 -0.367596
C23   C     C_2   0.500050 0.935746 0.582170 0.204146
C24   C     C_3   0.591375 0.143726 0.972013 -0.898226
C25   C     C_3   0.732468 0.425309 0.052008 -0.363214
C26   C     C_3   0.842209 0.407825 0.978347 -0.352641
C27   C     C_3   0.945617 0.323137 0.003785 -0.916371
C28   C     C_3   0.234072 0.550396 0.958651 -0.395767
C29   C     C_3   0.237094 0.636121 0.880785 -0.319678
C30   C     C_3   0.104169 0.690286 0.875734 -0.922668
C31   C     C_3   0.627184 0.147831 0.618993 -0.337147
C32   C     C_3   0.698840 0.067498 0.676356 -0.928504
C33   C     C_3   0.396835 0.871184 0.646895 -0.340568
C34   C     C_2   0.513771 0.075922 0.580243 0.205625
C35   C     C_3   0.337276 0.962217 0.718891 -0.920547
C36   C     C_3   0.118259 0.406519 0.411195 -0.343668
C37   C     C_3   0.117135 0.475817 0.326998 -0.886592
C38   C     C_3   0.881673 0.592888 0.589143 -0.337752
C39   C     C_3   0.882918 0.523122 0.673161 -0.892145
C40   C     C_2   0.927563 0.507763 0.511123 0.168385
C41   C     C_2   0.072390 0.491979 0.489039 0.175269
C42   C     C_R   0.501579 0.500470 0.661423 0.872096
C43   C     C_R   0.497944 0.498144 0.338457 0.911255
C44   C     C_3   0.456360 0.607712 0.035412 0.149131
H1    H     H_    0.345501 0.077827 0.514832 0.142158
H2    H     H_    0.231123 0.244711 0.949206 0.256014
H3    H     H_    0.313419 0.123647 0.997466 0.271248
H4    H     H_    0.150710 0.158378 0.040156 0.257071
H5    H     H_    0.339376 0.254021 0.123923 0.206638
H6    H     H_    0.213334 0.358210 0.106290 0.195417
H7    H     H_    0.457549 0.848530 0.974211 0.263320
H8    H     H_    0.286943 0.824575 0.015592 0.268509
H9    H     H_    0.391139 0.932705 0.071289 0.250413
H10   H     H_    0.333842 0.709142 0.135760 0.200263
H11   H     H_    0.501646 0.764215 0.124338 0.207272
H12   H     H_    0.653134 0.921475 0.479331 0.146542
H13   H     H_    0.693798 0.161974 0.984452 0.268230
H14   H     H_    0.528233 0.140672 0.034446 0.264913
H15   H     H_    0.584434 0.048219 0.937973 0.249534
H16   H     H_    0.464504 0.210533 0.884757 0.210889
H17   H     H_    0.630420 0.264726 0.862188 0.196778
H18   H     H_    0.997895 0.373476 0.054388 0.268057
H19   H     H_    0.901718 0.229977 0.028071 0.260198
H20   H     H_    0.015192 0.301701 0.946062 0.252853
H21   H     H_    0.804434 0.363466 0.920163 0.230293
H22   H     H_    0.888124 0.503365 0.961431 0.226718
H23   H     H_    0.127110 0.609254 0.586859 0.158220
H24   H     H_    0.763382 0.500778 0.098699 0.190148
H25   H     H_    0.711001 0.335029 0.087586 0.211684
H26   H     H_    0.031624 0.610748 0.864920 0.262027
H27   H     H_    0.071415 0.746291 0.935733 0.264424
H28   H     H_    0.109980 0.754528 0.820596 0.251710
H29   H     H_    0.311476 0.716582 0.883155 0.232662
H30   H     H_    0.262307 0.577942 0.820642 0.238860
H31   H     H_    0.181249 0.458801 0.943557 0.208453
H32   H     H_    0.179794 0.595843 0.016765 0.205840
H33   H     H_    0.632084 0.030925 0.731619 0.266165
H34   H     H_    0.872947 0.390707 0.413186 0.161787
H35   H     H_    0.744492 0.985246 0.638800 0.264296
H36   H     H_    0.777361 0.128843 0.702269 0.249573
H37   H     H_    0.701261 0.182277 0.566652 0.227850
H38   H     H_    0.589410 0.231972 0.658551 0.206198
H39   H     H_    0.413030 0.008577 0.755779 0.262983
H40   H     H_    0.283445 0.037600 0.692093 0.266318
H41   H     H_    0.267507 0.906716 0.764312 0.250468
H42   H     H_    0.315182 0.829221 0.613204 0.221813
H43   H     H_    0.441543 0.792602 0.677274 0.196278
H44   H     H_    0.016872 0.498583 0.316633 0.243161
H45   H     H_    0.680713 0.830178 0.028822 0.270189
H46   H     H_    0.177378 0.567396 0.327644 0.280338
H47   H     H_    0.157878 0.413356 0.272043 0.240795
H48   H     H_    0.215630 0.373007 0.413431 0.266020
H49   H     H_    0.058945 0.314508 0.410572 0.147773
H50   H     H_    0.822521 0.431607 0.672419 0.278840
H51   H     H_    0.983221 0.500215 0.683369 0.246245
H52   H     H_    0.842494 0.585462 0.728241 0.241458
H53   H     H_    0.940956 0.684899 0.589994 0.148545
H54   H     H_    0.784345 0.626589 0.586936 0.265660
H55   H     H_    0.793061 0.704762 0.036264 0.257848
H56   H     H_    0.827913 0.824227 0.955847 0.251607
H57   H     H_    0.752554 0.626999 0.883843 0.195672
H58   H     H_    0.629768 0.742603 0.887319 0.202199
N1    N     N_2   0.842700 0.448880 0.465440 -0.225304
N2    N     N_2   0.157300 0.551120 0.534560 -0.222445
O1    O     O_R   0.431060 0.692470 0.506960 -0.605738
O2    O     O_R   0.568940 0.307530 0.493040 -0.611306
O3    O     O_R   0.651120 0.659650 0.484770 -0.619456
O4    O     O_R   0.348880 0.340350 0.515230 -0.621130
O5    O     O_R   0.389990 0.516420 0.634310 -0.614490
O6    O     O_R   0.610010 0.483580 0.365690 -0.601820
O7    O     O_R   0.610050 0.483600 0.612130 -0.625301
O8    O     O_R   0.389950 0.516400 0.387870 -0.612917
Zn1   Zn    Zn3+2 0.353060 0.521920 0.514810 0.906339
Zn2   Zn    Zn3+2 0.646940 0.478080 0.485190 0.904997

loop_
_geom_bond_atom_site_label_1
_geom_bond_atom_site_label_2
_ccdc_geom_bond_type
O4    Zn1   S    
C14   H12   S    
C5    C42   S    
C37   H44   S    
C38   H54   S    
C30   H27   S    
C19   H2    S    
C39   H50   S    
C26   C27   S    
C31   H38   S    
C37   H46   S    
O2    Zn2   S    
O1    Zn1   S    
C36   C37   S    
C42   O5    A    
C5    C11   T    
C38   H53   S    
C22   H16   S    
C38   C39   S    
C8    C10   S    
C19   H3    S    
C29   H29   S    
C18   C19   S    
C30   H26   S    
C32   H33   S    
C36   H49   S    
C24   H13   S    
C23   C33   S    
C2    C22   S    
C43   O6    A    
O6    Zn2   S    
C15   C34   D    
O5    Zn1   S    
C4    C18   S    
C36   H48   S    
C8    C25   S    
C36   C41   S    
C25   H24   S    
C20   H11   S    
O8    Zn1   S    
C20   C44   S    
H23   N2    S    
C3    C44   S    
C37   H47   S    
C10   C44   S    
C26   H22   S    
N1    Zn2   S    
C17   H45   S    
C20   H10   S    
C3    C8    S    
C12   O4    A    
C35   H39   S    
C19   H4    S    
C16   C17   S    
C29   H30   S    
C4    C7    S    
C25   C26   S    
C7    C28   S    
C14   C23   D    
C2    C4    S    
C33   H42   S    
O3    Zn2   S    
C29   C30   S    
C3    C9    S    
C27   H18   S    
C32   H36   S    
C17   H55   S    
C31   C32   S    
C12   C15   S    
C23   C34   S    
C31   C34   S    
C7    C44   S    
C9    C11   S    
C39   H51   S    
C27   H19   S    
C1    O3    A    
C16   H58   S    
C40   C41   S    
C6    C43   S    
C22   C24   S    
C25   H25   S    
C43   O8    A    
C15   H1    S    
C4    C10   S    
C28   H32   S    
C21   H7    S    
C18   H6    S    
C7    C9    S    
C28   C29   S    
H34   N1    S    
C26   H21   S    
C42   O7    A    
C2    C8    S    
C10   C13   S    
C30   H28   S    
C35   H40   S    
C12   O2    A    
C22   H17   S    
C31   H37   S    
C41   N2    D    
C33   H43   S    
C40   N1    D    
C38   C40   S    
C35   H41   S    
C28   H31   S    
C24   H15   S    
C21   H9    S    
C33   C35   S    
O7    Zn2   S    
C17   H56   S    
C39   H52   S    
C27   H20   S    
N2    Zn1   S    
C16   H57   S    
C20   C21   S    
C24   H14   S    
C32   H35   S    
C1    C14   S    
C2    C9    S    
C21   H8    S    
C3    C16   S    
C18   H5    S    
C1    O1    A    
C6    C13   T    
