data_mof_unit_5175.cif
_audit_creation_date              2012-12-10T18:22:26-0500
_audit_creation_method            fapswitch 2.2
_symmetry_space_group_name_H-M    P1
_symmetry_Int_Tables_number       1
_space_group_crystal_system       triclinic
_cell_length_a                    23.564082
_cell_length_b                    10.688449
_cell_length_c                    9.490096
_cell_angle_alpha                 91.789723
_cell_angle_beta                  90.828034
_cell_angle_gamma                 90.434103
_cell_volume                      2388.71614411

loop_
_atom_site_label
_atom_site_type_symbol
_atom_type_description
_atom_site_fract_x
_atom_site_fract_y
_atom_site_fract_z
_atom_type_partial_charge
C1    C     C_R   0.500492 0.260077 0.498018 0.891928
C2    C     C_R   0.500049 0.739926 0.501965 0.889270
C3    C     C_R   0.239377 0.571027 0.392693 0.469027
C4    C     C_R   0.759709 0.435091 0.391838 0.483217
C5    C     C_R   0.298689 0.576636 0.400370 0.284627
C6    C     C_R   0.700634 0.426169 0.399341 0.248261
C7    C     C_R   0.328531 0.500403 0.496244 -0.383358
C8    C     C_R   0.671312 0.499597 0.501603 -0.377306
C9    C     C_R   0.297333 0.424942 0.589093 0.243124
C10   C     C_R   0.702831 0.573489 0.602558 0.299841
C11   C     C_R   0.238160 0.433886 0.592776 0.492155
C12   C     C_R   0.762063 0.565078 0.607565 0.474965
C13   C     C_R   0.208921 0.502802 0.491377 -0.048440
C14   C     C_R   0.790936 0.500611 0.498705 -0.049506
C15   C     C_3   0.541262 0.046292 0.587492 0.378288
C16   C     C_3   0.460228 0.953805 0.412229 0.381192
C17   C     C_3   0.551102 0.956530 0.460207 0.203239
C18   C     C_3   0.450348 0.043233 0.539547 0.203537
C19   C     C_3   0.500194 0.876058 0.505187 -0.284795
C20   C     C_3   0.501158 0.123938 0.494629 -0.285832
C21   C     C_3   0.490120 0.966761 0.632020 0.240887
C22   C     C_3   0.511353 0.033248 0.367766 0.243007
C23   C     C_R   0.391218 0.499795 0.499030 0.809465
C24   C     C_R   0.608733 0.500219 0.500726 0.824243
C25   C     C_3   0.521175 0.603118 0.054183 0.358899
C26   C     C_3   0.478765 0.396918 0.945861 0.352845
C27   C     C_3   0.470420 0.591460 0.952459 0.237388
C28   C     C_3   0.529502 0.408466 0.047621 0.240930
C29   C     C_3   0.550950 0.511215 0.953681 0.353953
C30   C     C_3   0.449066 0.488727 0.046622 0.356754
C31   C     C_R   0.880427 0.614623 0.489765 0.631281
C32   C     C_R   0.118943 0.393721 0.457272 0.631948
C33   C     C_R   0.880868 0.391640 0.493615 0.640129
C34   C     C_R   0.119880 0.613237 0.510726 0.638444
C35   C     C_R   0.939759 0.389866 0.471576 -0.193238
C36   C     C_R   0.060306 0.617860 0.498364 -0.177802
C37   C     C_R   0.969892 0.504620 0.479096 -0.146440
C38   C     C_R   0.029801 0.504828 0.476158 -0.144067
C39   C     C_R   0.940227 0.618654 0.492543 -0.176352
C40   C     C_R   0.059145 0.392022 0.450232 -0.189530
C41   C     C_R   0.969022 0.277716 0.438759 0.399847
C42   C     C_R   0.030621 0.732241 0.505902 0.374041
C43   C     C_R   0.027831 0.281116 0.417607 0.455146
C44   C     C_R   0.971013 0.732731 0.506490 0.382511
Cu1   Cu    Cu3+1 0.500010 0.499990 0.643150 1.079414
Cu2   Cu    Cu3+1 0.499990 0.500010 0.356850 1.084733
N1    N     N_R   0.852148 0.502489 0.495388 -0.439355
N2    N     N_R   0.147792 0.503026 0.487520 -0.433651
N3    N     N_3   0.500040 0.499970 0.858290 -0.249386
N4    N     N_3   0.499960 0.500030 0.141710 -0.248288
O1    O     O_R   0.500030 0.316850 0.620870 -0.505694
O2    O     O_R   0.499970 0.683150 0.379130 -0.505169
O3    O     O_R   0.500000 0.316860 0.379090 -0.553921
O4    O     O_R   0.500000 0.683140 0.620910 -0.554051
O5    O     O_R   0.417890 0.499960 0.620920 -0.554016
O6    O     O_R   0.582110 0.500040 0.379080 -0.543802
O7    O     O_R   0.417870 0.499970 0.379140 -0.522776
O8    O     O_R   0.582130 0.500030 0.620860 -0.526114
O9    O     O_2   0.850577 0.721293 0.480141 -0.460748
O10   O     O_2   0.148263 0.286916 0.436739 -0.463346
O11   O     O_2   0.852286 0.283944 0.513590 -0.471344
O12   O     O_2   0.149909 0.717225 0.548592 -0.467117
O13   O     O_3   0.941092 0.163097 0.432090 -0.513468
C45   C     C_3   0.918755 0.139591 0.294783 -0.109232
H1    H     H_    0.906002 0.225707 0.239249 0.115516
H2    H     H_    0.880157 0.080308 0.302767 0.219719
H3    H     H_    0.949624 0.085438 0.230884 0.135062
O14   O     O_3   0.059437 0.845413 0.512728 -0.525134
C46   C     C_3   0.070781 0.880791 0.373897 -0.070925
H4    H     H_    0.031385 0.913716 0.321368 0.161349
H5    H     H_    0.090172 0.804056 0.309030 0.118561
H6    H     H_    0.102081 0.958722 0.379161 0.239744
O15   O     O_3   0.438209 0.687453 0.896033 -0.705635
H7    H     H_    0.422289 0.733590 0.978424 0.325286
O16   O     O_3   0.561397 0.312069 0.104162 -0.693414
H8    H     H_    0.576995 0.265270 0.021835 0.325397
O17   O     O_3   0.546582 0.708882 0.122469 -0.537053
C47   C     C_3   0.552413 0.805974 0.027130 -0.157641
H9    H     H_    0.511512 0.855519 0.015536 0.214175
H10   H     H_    0.568189 0.772777 0.922487 0.173864
H11   H     H_    0.583892 0.874573 0.071685 0.185958
O18   O     O_3   0.453031 0.291585 0.877475 -0.535840
C48   C     C_3   0.447424 0.194041 0.972284 -0.151842
H12   H     H_    0.431846 0.226804 0.077258 0.168278
H13   H     H_    0.488348 0.144446 0.983191 0.211230
H14   H     H_    0.415876 0.125609 0.927689 0.188012
O19   O     O_3   0.605230 0.527836 0.896383 -0.538086
C49   C     C_3   0.647329 0.517490 0.002245 -0.180637
H15   H     H_    0.657267 0.417557 0.018129 0.197577
H16   H     H_    0.635865 0.564271 0.104194 0.196751
H17   H     H_    0.686488 0.563955 0.966390 0.189112
O20   O     O_3   0.394994 0.471055 0.104730 -0.542958
C50   C     C_3   0.352465 0.484588 0.000681 -0.185326
H18   H     H_    0.365511 0.452514 0.893546 0.218475
H19   H     H_    0.338886 0.583739 0.998599 0.183336
H20   H     H_    0.315415 0.426513 0.028806 0.167096
O21   O     O_3   0.053846 0.174297 0.365467 -0.527079
C51   C     C_3   0.062832 0.187939 0.219543 -0.304648
H21   H     H_    0.096741 0.257918 0.200460 0.181575
H22   H     H_    0.023536 0.215132 0.162028 0.116836
H23   H     H_    0.076789 0.096957 0.173211 0.176618
O22   O     O_3   0.943371 0.846432 0.514812 -0.516681
C52   C     C_3   0.939103 0.883780 0.658124 -0.103708
H24   H     H_    0.981664 0.901838 0.707140 0.152953
H25   H     H_    0.915423 0.813235 0.718717 0.139171
H26   H     H_    0.915109 0.972606 0.664951 0.211147
O23   O     O_3   0.210895 0.644072 0.297371 -0.506222
C53   C     C_3   0.197602 0.569676 0.176038 -0.292747
H27   H     H_    0.168911 0.490343 0.200390 0.138558
H28   H     H_    0.236672 0.534276 0.124907 0.161839
H29   H     H_    0.175060 0.628389 0.099179 0.178853
O24   O     O_3   0.787198 0.368416 0.286276 -0.506045
C54   C     C_3   0.799932 0.450458 0.177571 -0.306386
H30   H     H_    0.831121 0.523662 0.213542 0.155993
H31   H     H_    0.760939 0.494684 0.135264 0.153836
H32   H     H_    0.819454 0.395666 0.089994 0.173829
O25   O     O_3   0.325508 0.658611 0.313000 -0.645274
H33   H     H_    0.361706 0.686540 0.358014 0.361880
O26   O     O_3   0.673364 0.344491 0.304696 -0.668867
H34   H     H_    0.638718 0.311737 0.348954 0.345900
O27   O     O_3   0.322447 0.339817 0.676492 -0.661962
H35   H     H_    0.359516 0.314814 0.637798 0.380043
O28   O     O_3   0.677821 0.656432 0.696839 -0.651098
H36   H     H_    0.641684 0.685847 0.655596 0.340670
O29   O     O_3   0.208515 0.365506 0.689149 -0.485785
C55   C     C_3   0.197734 0.444072 0.807668 -0.265983
H37   H     H_    0.168112 0.520458 0.780510 0.155543
H38   H     H_    0.237677 0.484167 0.854710 0.139689
H39   H     H_    0.177198 0.387643 0.889091 0.177617
O30   O     O_3   0.791729 0.631028 0.712864 -0.501792
C56   C     C_3   0.809033 0.546635 0.816037 -0.299120
H40   H     H_    0.843015 0.484024 0.776001 0.161252
H41   H     H_    0.772813 0.489906 0.853911 0.150049
H42   H     H_    0.826808 0.601164 0.907966 0.175796
O31   O     O_3   0.603438 0.907548 0.419555 -0.692111
H43   H     H_    0.628243 0.981281 0.405589 0.344765
O32   O     O_3   0.397828 0.091004 0.580157 -0.697514
H44   H     H_    0.373296 0.016791 0.593884 0.348971
O33   O     O_3   0.584582 0.104577 0.670789 -0.568705
C57   C     C_3   0.605709 0.020121 0.769031 -0.191785
H45   H     H_    0.613317 0.925298 0.721277 0.177871
H46   H     H_    0.576446 0.014833 0.859148 0.176882
H47   H     H_    0.646988 0.056475 0.811118 0.181848
O34   O     O_3   0.416979 0.896031 0.328425 -0.577055
C58   C     C_3   0.395741 0.980942 0.230880 -0.187087
H48   H     H_    0.424825 0.986258 0.140432 0.174827
H49   H     H_    0.388340 0.075696 0.279081 0.173351
H50   H     H_    0.354343 0.944894 0.189209 0.193349
O35   O     O_3   0.478429 0.931650 0.769102 -0.731882
H51   H     H_    0.438737 0.900410 0.765672 0.354168
O36   O     O_3   0.523039 0.068477 0.230714 -0.730318
H52   H     H_    0.562781 0.099419 0.234144 0.353778

loop_
_geom_bond_atom_site_label_1
_geom_bond_atom_site_label_2
_ccdc_geom_bond_type
O19   C49   S    
C55   H37   S    
C18   O32   S    
C18   C21   S    
C41   C43   A    
O15   H7    S    
C36   C42   A    
C57   H47   S    
C24   O6    A    
C56   H42   S    
O21   C51   S    
O31   H43   S    
C29   N3    S    
O17   C47   S    
C50   H18   S    
C12   O30   S    
C25   O17   S    
C28   C29   S    
C19   C21   S    
C57   H46   S    
C47   H10   S    
C11   O29   S    
Cu1   O1    S    
C51   H21   S    
Cu2   O2    S    
C34   O12   S    
C53   H27   S    
C23   O7    A    
C31   O9    S    
C46   H5    S    
C1    O3    A    
C25   N4    S    
C8    C24   S    
C28   N4    S    
C40   C43   A    
C31   C39   A    
O14   C46   S    
C17   O31   S    
C9    O27   S    
O23   C53   S    
C21   O35   S    
C18   C20   S    
C3    C13   A    
C54   H32   S    
C4    O24   S    
C24   O8    A    
C50   H19   S    
C31   N1    A    
C27   C30   S    
C42   O14   S    
C32   N2    A    
C46   H4    S    
C42   C44   A    
C10   C12   A    
O24   C54   S    
C58   H49   S    
C58   H48   S    
C15   O33   S    
C25   C29   S    
C15   C20   S    
O33   C57   S    
Cu1   O8    S    
C45   H3    S    
O28   H36   S    
C57   H45   S    
C4    C6    A    
C10   O28   S    
C2    O4    A    
C26   N3    S    
C5    C7    A    
C44   O22   S    
C47   H9    S    
C17   C19   S    
C6    C8    A    
C55   H39   S    
C56   H41   S    
Cu1   Cu2   S    
C5    O25   S    
C45   H2    S    
C46   H6    S    
O16   H8    S    
C37   C38   A    
C9    C11   A    
C48   H12   S    
C49   H17   S    
Cu1   N3    S    
O36   H52   S    
C52   H25   S    
C55   H38   S    
C1    O1    A    
O27   H35   S    
C26   O18   S    
C2    O2    A    
C16   C18   S    
C48   H13   S    
C49   H16   S    
Cu1   O4    S    
C26   C30   S    
C50   H20   S    
C51   H22   S    
Cu2   O7    S    
O29   C55   S    
C33   N1    A    
C34   N2    A    
C41   O13   S    
C39   C44   A    
C56   H40   S    
C6    O26   S    
C58   H50   S    
C35   C37   A    
C54   H30   S    
C15   C17   S    
C22   O36   S    
C1    C20   S    
C16   C22   S    
C16   O34   S    
C2    C19   S    
C8    C10   A    
C43   O21   S    
C20   C22   S    
O34   C58   S    
C3    C5    A    
C13   N2    S    
O26   H34   S    
C23   O5    A    
C14   N1    S    
C25   C27   S    
C51   H23   S    
O32   H44   S    
Cu2   N4    S    
C26   C28   S    
C17   C22   S    
C53   H29   S    
C3    O23   S    
C45   H1    S    
C36   C38   A    
O30   C56   S    
C12   C14   A    
C37   C39   A    
C4    C14   A    
C27   O15   S    
O25   H33   S    
C38   C40   A    
C11   C13   A    
C47   H11   S    
C16   C19   S    
C7    C23   S    
Cu2   O3    S    
O20   C50   S    
C33   C35   A    
C53   H28   S    
C52   H26   S    
C34   C36   A    
C32   C40   A    
C30   N4    S    
O22   C52   S    
C35   C41   A    
C29   O19   S    
O13   C45   S    
C7    C9    A    
C15   C21   S    
C48   H14   S    
C49   H15   S    
Cu1   O5    S    
C33   O11   S    
O18   C48   S    
Cu2   O6    S    
C52   H24   S    
C32   O10   S    
O35   H51   S    
C28   O16   S    
C27   N3    S    
C54   H31   S    
C30   O20   S    
