data_mof_unit_14075.cif
_audit_creation_date              2013-03-05T16:07:58-0500
_audit_creation_method            fapswitch 2.2
_symmetry_space_group_name_H-M    P1
_symmetry_Int_Tables_number       1
_space_group_crystal_system       triclinic
_cell_length_a                    6.986586
_cell_length_b                    14.494519
_cell_length_c                    16.091808
_cell_angle_alpha                 90.001056
_cell_angle_beta                  89.944634
_cell_angle_gamma                 90.024535
_cell_volume                      1629.57148528

loop_
_atom_site_label
_atom_site_type_symbol
_atom_site_description
_atom_site_fract_x
_atom_site_fract_y
_atom_site_fract_z
_atom_type_partial_charge
O1    O     O_R   0.494380 0.415640 0.412830 -0.614058
O2    O     O_R   0.823960 0.405540 0.586560 -0.600728
O3    O     O_R   0.994270 0.584360 0.587170 -0.537201
C1    C     C_R   0.655225 0.383550 0.615118 1.004970
O4    O     O_R   0.824090 0.404620 0.413450 -0.617056
O5    O     O_R   0.994400 0.583430 0.412820 -0.598957
C2    C     C_R   0.655024 0.381781 0.385114 0.902488
O6    O     O_R   0.494250 0.416570 0.587180 -0.599329
O7    O     O_3   0.660800 0.558670 0.500000 -0.198586
V1    V     V_3+5 0.935650 0.489120 0.500000 1.211318
O8    O     O_R   0.324110 0.594460 0.413440 -0.589388
C3    C     C_R   0.155244 0.616542 0.384870 1.009840
O9    O     O_R   0.323980 0.595380 0.586550 -0.550412
C4    C     C_R   0.153560 0.619239 0.613996 1.082487
V2    V     V_3+5 0.435660 0.510880 0.500000 1.237415
O10   O     O_3   0.160640 0.441330 0.500000 -0.324901
C5    C     C_3   0.917392 0.717776 0.704500 0.553001
C6    C     C_3   0.917118 0.777788 0.786043 -0.518661
H1    H     H_    0.854013 0.740270 0.839348 0.256606
H2    H     H_    0.822298 0.837611 0.780162 0.247698
H3    H     H_    0.080372 0.903043 0.701298 0.169332
C7    C     C_3   0.250056 0.784878 0.660946 0.106468
C8    C     C_3   0.233839 0.653567 0.762095 -0.559465
C9    C     C_3   0.136008 0.692710 0.682037 -0.372945
H4    H     H_    0.380356 0.629860 0.747951 0.221901
H5    H     H_    0.161581 0.590450 0.784519 0.250173
C10   C     C_3   0.120339 0.813512 0.808711 -0.347919
C11   C     C_3   0.198223 0.860329 0.727082 0.046656
C12   C     C_3   0.247952 0.728339 0.830989 0.295830
H6    H     H_    0.399243 0.751963 0.832389 0.137578
H7    H     H_    0.405541 0.769296 0.666728 0.174648
C13   C     C_R   0.271829 0.749340 0.187328 0.245728
C14   C     C_R   0.119057 0.811611 0.180344 -0.247620
C15   C     C_R   0.970103 0.803874 0.239113 -0.196219
H8    H     H_    0.848965 0.850137 0.236245 0.139359
C16   C     C_R   0.980868 0.739853 0.304971 -0.075473
H9    H     H_    0.866759 0.738008 0.350423 0.165422
C17   C     C_R   0.142979 0.683090 0.315138 -0.196011
C18   C     C_R   0.284287 0.687534 0.253585 0.096623
C19   C     C_3   0.495183 0.700121 0.261991 -0.554208
C20   C     C_3   0.482543 0.766787 0.188743 -0.172916
H10   H     H_    0.575499 0.635457 0.249147 0.187902
H11   H     H_    0.533286 0.734861 0.321273 0.223730
H12   H     H_    0.519500 0.839561 0.203615 0.152889
C21   C     C_R   0.496862 0.318195 0.742639 0.222082
C22   C     C_R   0.647842 0.317615 0.685288 -0.233432
C23   C     C_R   0.797690 0.254419 0.699217 -0.137512
H13   H     H_    0.918935 0.252148 0.657479 0.139393
C24   C     C_R   0.786196 0.188976 0.763747 -0.090173
H14   H     H_    0.899344 0.138504 0.769859 0.142305
C25   C     C_R   0.624535 0.184838 0.816191 -0.207044
C26   C     C_R   0.485382 0.253542 0.806384 0.147202
C27   C     C_3   0.273425 0.245838 0.798131 -0.451389
C28   C     C_3   0.286127 0.316606 0.728565 -0.463278
H15   H     H_    0.197066 0.271884 0.854029 0.195771
H16   H     H_    0.228209 0.176490 0.776453 0.229413
H17   H     H_    0.217526 0.383548 0.744397 0.202294
H18   H     H_    0.248580 0.288303 0.666494 0.198075
C29   C     C_R   0.481143 0.306530 0.265563 0.143178
C30   C     C_R   0.645113 0.314719 0.314953 -0.198228
C31   C     C_R   0.799140 0.256525 0.295661 -0.156551
H19   H     H_    0.921796 0.256765 0.335509 0.134976
C32   C     C_R   0.789347 0.192805 0.229510 -0.150695
H20   H     H_    0.907385 0.145869 0.219874 0.138070
C33   C     C_R   0.623660 0.185120 0.180090 -0.199126
C34   C     C_R   0.471892 0.244914 0.198405 0.156430
C35   C     C_3   0.271393 0.218506 0.218037 -0.511352
C36   C     C_3   0.284195 0.281545 0.293345 -0.175668
H21   H     H_    0.256775 0.143807 0.232709 0.194076
H22   H     H_    0.171130 0.244360 0.169793 0.188887
H23   H     H_    0.184077 0.341230 0.292562 0.142997
O11   O     O_R   0.771490 0.080820 0.910070 -0.608118
O12   O     O_R   0.441590 0.092730 0.083780 -0.603968
O13   O     O_R   0.271350 0.913900 0.084390 -0.592764
C37   C     C_R   0.610582 0.114775 0.112761 0.910094
O14   O     O_R   0.441780 0.091820 0.910670 -0.584658
O15   O     O_R   0.271540 0.912980 0.910040 -0.549585
C38   C     C_R   0.610803 0.113897 0.882149 1.017726
O16   O     O_R   0.771300 0.081740 0.084420 -0.606015
O17   O     O_3   0.604960 0.938700 0.997240 -0.248753
V3    V     V_3+5 0.330090 0.008230 0.997220 1.209345
O18   O     O_R   0.941820 0.901930 0.910640 -0.587899
C39   C     C_R   0.110385 0.881568 0.880739 1.041472
O19   O     O_R   0.941630 0.902840 0.083750 -0.604673
C40   C     C_R   0.110408 0.881136 0.112722 0.969977
V4    V     V_3+5 0.830090 0.986410 0.997190 1.198723
O20   O     O_3   0.105080 0.055990 0.997200 -0.297882
N1    N     N_R   0.827467 0.770050 0.634453 0.230064
O21   O     O_R   0.777308 0.856197 0.641364 -0.368183
O22   O     O_R   0.789380 0.729693 0.564201 -0.308393
N2    N     N_R   0.357755 0.924217 0.741029 0.263931
O23   O     O_R   0.341832 0.010224 0.718951 -0.389903
O24   O     O_R   0.514228 0.897151 0.776672 -0.417198
N3    N     N_3   0.576252 0.732612 0.113363 -0.135727
H24   H     H_    0.724036 0.737103 0.121801 0.148761
H25   H     H_    0.544592 0.662686 0.104625 0.177777
N4    N     N_R   0.802324 0.633479 0.721199 0.207309
O25   O     O_R   0.666535 0.608456 0.670933 -0.387546
O26   O     O_R   0.828174 0.584187 0.787825 -0.412686
N5    N     N_3   0.289088 0.230364 0.372033 -0.181120
H26   H     H_    0.253738 0.275964 0.419921 0.142741
H27   H     H_    0.183818 0.179137 0.371983 0.129968
N6    N     N_R   0.223445 0.822165 0.576484 0.260744
O27   O     O_R   0.145895 0.774118 0.517241 -0.403056
O28   O     O_R   0.308420 0.898993 0.556664 -0.302059
N7    N     N_R   0.204845 0.689866 0.913375 0.233749
O29   O     O_R   0.046481 0.645553 0.928101 -0.371783
O30   O     O_R   0.331851 0.695899 0.972046 -0.429122

loop_
_geom_bond_atom_site_label_1
_geom_bond_atom_site_label_2
_geom_bond_distance
_ccdc_geom_bond_type
C32   C33   1.409438 A    
C10   C12   1.564956 S    
C5    N1    1.497049 S    
C1    O6    1.302880 A    
N4    O25   1.298866 A    
C23   C24   1.408662 A    
C1    C22   1.480178 S    
C21   C22   1.400920 A    
C8    C12   1.553523 S    
C16   H9    1.081721 S    
O19   V4    2.004422 S    
C15   H8    1.081027 S    
C29   C34   1.403480 A    
O5    C3    1.301543 A    
C17   C18   1.399280 A    
C13   C18   1.395409 A    
N7    O29   1.300681 A    
O15   C39   1.303033 A    
V2    O10   2.169462 S    
C6    H1    1.106771 S    
C8    H5    1.105104 S    
C4    C9    1.532224 S    
C31   C32   1.410988 A    
C14   C40   1.484414 S    
O11   C38   1.301350 A    
N6    O27   1.299250 A    
O8    V2    2.004539 S    
C19   H11   1.111209 S    
C20   N3    1.464273 S    
C24   C25   1.410522 A    
O17   V4    1.717926 S    
C8    C9    1.565506 S    
O1    V2    2.010201 S    
O7    V1    2.169176 S    
C6    H2    1.095596 S    
C19   H10   1.111889 S    
C34   C35   1.485683 S    
C29   C30   1.399913 A    
C7    C11   1.568224 S    
O9    C4    1.315922 A    
O12   C37   1.309325 A    
N3    H24   1.043524 S    
O12   V3    2.012052 S    
N4    O26   1.301169 A    
C5    C6    1.574279 S    
C27   H15   1.111515 S    
C5    C9    1.610892 S    
C7    H7    1.113615 S    
C25   C26   1.401040 A    
O19   C40   1.306974 A    
N2    O23   1.301107 A    
O4    C2    1.308978 A    
V4    O20   2.169478 S    
C21   C26   1.391639 A    
O18   V4    2.011753 S    
O18   C39   1.305675 A    
C7    N6    1.474633 S    
C35   C36   1.520373 S    
C30   C31   1.402151 A    
C35   H21   1.112799 S    
O2    C1    1.304289 A    
C36   N5    1.467985 S    
C12   H6    1.111193 S    
C29   C36   1.490892 S    
N2    O24   1.295981 A    
C23   H13   1.081047 S    
O15   V3    2.010482 S    
C13   C20   1.493823 S    
N5    H27   1.044881 S    
C14   C15   1.409939 A    
N6    O28   1.301283 A    
N3    H25   1.046822 S    
V3    O20   1.717993 S    
O3    C4    1.296495 A    
C19   C20   1.526814 S    
H3    C11   1.111077 S    
N1    O22   1.300531 A    
C21   C28   1.490016 S    
C33   C34   1.400895 A    
O6    V2    2.001483 S    
O9    V2    2.011791 S    
C20   H12   1.111965 S    
C7    C9    1.591668 S    
C12   N7    1.469140 S    
C37   O16   1.302905 A    
O13   V3    2.000988 S    
O2    V1    2.003466 S    
C2    C30   1.491435 S    
C18   C19   1.490900 S    
C26   C27   1.491072 S    
C28   H18   1.111391 S    
C27   H16   1.109849 S    
C22   C23   1.409475 A    
O1    C2    1.303434 A    
C6    C10   1.554813 S    
O14   C38   1.306210 A    
O17   V3    2.169165 S    
O14   V3    2.003442 S    
O5    V1    2.000919 S    
O11   V4    2.001811 S    
O8    C3    1.306558 A    
C27   C28   1.520838 S    
C33   C37   1.490598 S    
C35   H22   1.111352 S    
C13   C14   1.402708 A    
C10   C39   1.523543 S    
O7    V2    1.718456 S    
C25   C38   1.480811 S    
O4    V1    2.012103 S    
O3    V1    2.010370 S    
V1    O10   1.718039 S    
N7    O30   1.299206 A    
C36   H23   1.112825 S    
C16   C17   1.409834 A    
N5    H26   1.044724 S    
C11   N2    1.466216 S    
C15   C16   1.410723 A    
C8    H4    1.103449 S    
O13   C40   1.302418 A    
C3    C17   1.482303 S    
C31   H19   1.070793 S    
C32   H20   1.080377 S    
N1    O21   1.301773 A    
C24   H14   1.081869 S    
C10   C11   1.574914 S    
C5    N4    1.486665 S    
O16   V4    2.011868 S    
C28   H17   1.111870 S    
