data_mof_unit_43619.cif
_audit_creation_date              2012-12-10T19:01:59-0500
_audit_creation_method            fapswitch 2.2
_symmetry_space_group_name_H-M    P1
_symmetry_Int_Tables_number       1
_space_group_crystal_system       triclinic
_cell_length_a                    24.434838
_cell_length_b                    24.403091
_cell_length_c                    25.933779
_cell_angle_alpha                 89.692505
_cell_angle_beta                  89.877349
_cell_angle_gamma                 89.879614
_cell_volume                      15463.6464366

loop_
_atom_site_label
_atom_site_type_symbol
_atom_type_description
_atom_site_fract_x
_atom_site_fract_y
_atom_site_fract_z
_atom_type_partial_charge
C1    C     C_R   0.227483 0.270620 0.247998 -0.177317
C2    C     C_R   0.227266 0.728403 0.250353 -0.168618
C3    C     C_R   0.394920 0.105186 0.750022 0.795439
C4    C     C_R   0.895059 0.395132 0.249845 0.796704
C5    C     C_R   0.105138 0.605231 0.749834 0.796559
C6    C     C_R   0.395036 0.104970 0.249953 0.783833
C7    C     C_R   0.604904 0.895119 0.750003 0.793777
C8    C     C_R   0.894982 0.604903 0.750044 0.787696
C9    C     C_R   0.104848 0.395075 0.250003 0.790898
C10   C     C_R   0.395192 0.895164 0.750151 0.793223
C11   C     C_R   0.605008 0.104981 0.249891 0.786688
C12   C     C_R   0.104830 0.395093 0.750028 0.799852
C13   C     C_R   0.728456 0.771515 0.750017 -0.179821
C14   C     C_R   0.894833 0.605123 0.249885 0.802542
C15   C     C_R   0.604808 0.104911 0.749957 0.793878
C16   C     C_R   0.394689 0.894691 0.250120 0.795117
C17   C     C_R   0.174524 0.258549 0.267258 0.503682
C18   C     C_R   0.797768 0.714634 0.703378 0.464578
C19   C     C_R   0.260483 0.821847 0.225474 0.488735
C20   C     C_R   0.737471 0.177166 0.722289 0.476549
C21   C     C_R   0.826291 0.743754 0.241770 0.499279
C22   C     C_R   0.184405 0.268477 0.715722 0.477348
C23   C     C_R   0.744053 0.171485 0.255406 0.502309
C24   C     C_R   0.270441 0.227806 0.248406 -0.175422
C25   C     C_R   0.263092 0.822638 0.722531 0.480382
C26   C     C_R   0.826523 0.256374 0.762279 0.504338
C27   C     C_R   0.174218 0.740702 0.268566 0.461294
C28   C     C_R   0.740754 0.824769 0.731371 0.502245
C29   C     C_R   0.284799 0.202000 0.295378 0.461382
C30   C     C_R   0.173735 0.743359 0.763076 0.497185
C31   C     C_R   0.810638 0.272978 0.288938 0.483224
C32   C     C_R   0.256558 0.173878 0.757893 0.494818
C33   C     C_R   0.732094 0.816285 0.283825 0.475961
C34   C     C_R   0.675329 0.759115 0.768632 0.502732
C35   C     C_R   0.228212 0.730310 0.748973 -0.172225
C36   C     C_R   0.297184 0.213521 0.202026 0.463572
C37   C     C_R   0.758635 0.323858 0.733187 0.497173
C38   C     C_R   0.240069 0.675507 0.232239 0.470598
C39   C     C_R   0.326962 0.244208 0.744238 0.497724
C40   C     C_R   0.683520 0.768165 0.214855 0.474756
C41   C     C_R   0.241982 0.676142 0.734477 0.498396
C42   C     C_R   0.777517 0.307389 0.205731 0.484699
C43   C     C_R   0.320239 0.761107 0.275787 0.495923
C44   C     C_R   0.679883 0.236146 0.776054 0.474509
C45   C     C_R   0.239827 0.323794 0.229181 0.500428
C46   C     C_R   0.773484 0.269862 0.247366 -0.191621
C47   C     C_R   0.785152 0.701704 0.796539 0.472653
C48   C     C_R   0.674607 0.242755 0.240694 0.505574
C49   C     C_R   0.319837 0.764091 0.777776 0.480985
C50   C     C_R   0.756160 0.673461 0.256682 0.497122
C51   C     C_R   0.231988 0.316716 0.785197 0.478147
C52   C     C_R   0.135579 0.300856 0.271870 -0.168551
C53   C     C_R   0.840756 0.676120 0.703797 -0.151418
C54   C     C_R   0.298058 0.864622 0.232556 -0.164002
C55   C     C_R   0.697886 0.135491 0.725359 -0.166711
C56   C     C_R   0.867238 0.703737 0.248235 -0.183004
C57   C     C_R   0.271377 0.229516 0.751084 -0.177131
C58   C     C_R   0.142167 0.307710 0.716903 -0.148969
C59   C     C_R   0.702279 0.132250 0.261570 -0.165817
C60   C     C_R   0.302426 0.864461 0.725544 -0.163106
C61   C     C_R   0.867923 0.295821 0.755753 -0.176017
C62   C     C_R   0.133196 0.700459 0.267267 -0.164994
C63   C     C_R   0.698786 0.864210 0.727636 -0.171834
C64   C     C_R   0.323981 0.159614 0.295689 -0.152069
C65   C     C_R   0.132428 0.703948 0.756336 -0.161240
C66   C     C_R   0.853604 0.311151 0.287250 -0.172096
C67   C     C_R   0.296499 0.132888 0.751281 -0.177814
C68   C     C_R   0.728107 0.771964 0.249225 -0.182380
C69   C     C_R   0.692495 0.858187 0.282861 -0.157919
C70   C     C_R   0.635921 0.801085 0.772354 -0.168457
C71   C     C_R   0.340518 0.175405 0.202937 -0.152968
C72   C     C_R   0.797162 0.365777 0.740711 -0.161471
C73   C     C_R   0.200281 0.634068 0.233804 -0.160728
C74   C     C_R   0.367820 0.203951 0.750152 -0.177288
C75   C     C_R   0.641438 0.807563 0.216484 -0.146312
C76   C     C_R   0.203248 0.634116 0.741352 -0.172368
C77   C     C_R   0.814803 0.351290 0.208242 -0.151029
C78   C     C_R   0.363435 0.798303 0.268733 -0.169613
C79   C     C_R   0.147031 0.352620 0.249728 -0.290986
C80   C     C_R   0.637331 0.197508 0.773689 -0.168243
C81   C     C_R   0.198097 0.363536 0.226208 -0.167813
C82   C     C_R   0.823404 0.658478 0.796144 -0.136144
C83   C     C_R   0.634103 0.201921 0.236756 -0.149641
C84   C     C_R   0.362358 0.802774 0.775288 -0.168378
C85   C     C_R   0.796210 0.632448 0.250600 -0.161083
C86   C     C_R   0.192321 0.358540 0.783713 -0.149654
C87   C     C_2   0.882538 0.334180 0.447404 0.517914
C88   C     C_2   0.117220 0.664700 0.555927 0.459133
C89   C     C_2   0.692976 0.058970 0.440195 0.477518
C90   C     C_R   0.852453 0.647267 0.750040 -0.290779
C91   C     C_2   0.306749 0.942033 0.558119 0.459000
C92   C     C_2   0.103426 0.673064 0.438889 0.445716
C93   C     C_2   0.887083 0.334705 0.564433 0.447052
C94   C     C_2   0.311415 0.930753 0.441071 0.461251
C95   C     C_2   0.694977 0.051041 0.558066 0.481098
C96   C     C_2   0.422103 0.813436 0.942983 0.487786
C97   C     C_2   0.578028 0.185914 0.058031 0.477807
C98   C     C_2   0.917970 0.687019 0.948785 0.506486
C99   C     C_2   0.067865 0.309600 0.057366 0.454390
C100  C     C_2   0.570523 0.188830 0.940253 0.473739
C101  C     C_R   0.351610 0.852022 0.250464 -0.337017
C102  C     C_2   0.413427 0.817920 0.060478 0.457201
C103  C     C_2   0.015682 0.296328 0.950728 0.474786
C104  C     C_2   0.987745 0.704982 0.045148 0.432169
C105  C     C_3   0.152856 0.169139 0.245554 0.138560
C106  C     C_3   0.100959 0.182110 0.214241 -0.405541
C107  C     C_3   0.091476 0.139143 0.172707 -0.883123
C108  C     C_3   0.738855 0.718040 0.635034 0.129583
C109  C     C_3   0.734441 0.737825 0.579232 -0.268912
C110  C     C_3   0.684192 0.713810 0.552839 -0.991721
C111  C     C_3   0.208723 0.805746 0.152394 0.139345
C112  C     C_R   0.771253 0.728566 0.749975 -0.181744
C113  C     C_R   0.647254 0.146744 0.749489 -0.276417
C114  C     C_3   0.246094 0.832183 0.111583 -0.362058
C115  C     C_3   0.240401 0.803577 0.059643 -0.906109
C116  C     C_3   0.777980 0.183046 0.642918 0.071308
C117  C     C_3   0.823814 0.157469 0.610829 -0.259490
C118  C     C_3   0.815055 0.167317 0.553289 -0.833757
C119  C     C_3   0.830154 0.815942 0.183443 0.151226
C120  C     C_3   0.866707 0.788113 0.142837 -0.402565
C121  C     C_3   0.853544 0.809108 0.088739 -0.889939
C122  C     C_3   0.212311 0.234600 0.637979 0.087971
C123  C     C_3   0.196848 0.193382 0.596441 -0.236259
C124  C     C_R   0.852142 0.647707 0.249587 -0.316363
C125  C     C_3   0.231554 0.201354 0.548027 -0.975214
C126  C     C_3   0.826834 0.154680 0.214571 0.161261
C127  C     C_3   0.806914 0.109362 0.178202 -0.404349
C128  C     C_3   0.840860 0.108175 0.128774 -0.925684
C129  C     C_3   0.224321 0.813967 0.642899 0.065536
C130  C     C_3   0.183153 0.843167 0.608015 -0.264854
C131  C     C_3   0.191804 0.828164 0.551565 -0.854832
C132  C     C_3   0.824023 0.193276 0.829009 0.156180
C133  C     C_3   0.858304 0.224932 0.868569 -0.380617
C134  C     C_3   0.839560 0.212319 0.923480 -0.966605
C135  C     C_R   0.147088 0.353010 0.750288 -0.279509
C136  C     C_3   0.170702 0.797870 0.338000 0.091921
C137  C     C_3   0.146024 0.851844 0.356552 -0.267339
C138  C     C_3   0.149032 0.856637 0.415058 -0.878817
C139  C     C_3   0.830472 0.845558 0.752475 0.142639
C140  C     C_3   0.819248 0.898224 0.783053 -0.399549
C141  C     C_3   0.862455 0.906690 0.824624 -0.891771
C142  C     C_3   0.278975 0.261018 0.363410 0.155939
C143  C     C_3   0.254111 0.268448 0.417010 -0.361628
C144  C     C_3   0.192586 0.279475 0.414400 -0.700829
C145  C     C_3   0.176431 0.807435 0.828667 0.153128
C146  C     C_R   0.647706 0.147133 0.249690 -0.302012
C147  C     C_3   0.144966 0.774183 0.869610 -0.377414
C148  C     C_3   0.163841 0.788751 0.923906 -0.945667
C149  C     C_3   0.768263 0.256171 0.365767 0.062785
C150  C     C_3   0.765854 0.217311 0.411988 -0.189583
C151  C     C_3   0.724105 0.237028 0.451681 -0.970967
C152  C     C_3   0.183602 0.170358 0.815182 0.164778
C153  C     C_3   0.210925 0.134255 0.856602 -0.404692
C154  C     C_3   0.189235 0.148037 0.910231 -0.905184
C155  C     C_3   0.766061 0.790674 0.362377 0.086032
C156  C     C_3   0.808189 0.806652 0.402980 -0.237236
C157  C     C_R   0.352745 0.853371 0.750177 -0.278921
C158  C     C_3   0.798465 0.775962 0.453577 -0.967676
C159  C     C_3   0.654345 0.669482 0.747251 0.143102
C160  C     C_3   0.601420 0.680841 0.717028 -0.395812
C161  C     C_3   0.592654 0.637913 0.675315 -0.905494
C162  C     C_3   0.238497 0.215146 0.133535 0.132741
C163  C     C_3   0.233401 0.234791 0.077767 -0.312824
C164  C     C_3   0.185196 0.207532 0.050843 -0.930145
C165  C     C_3   0.695057 0.319192 0.667338 0.136757
C166  C     C_3   0.725724 0.352614 0.626099 -0.361128
C167  C     C_3   0.711873 0.332579 0.572042 -0.900855
C168  C     C_R   0.852786 0.351523 0.749032 -0.328112
C169  C     C_3   0.295928 0.672709 0.161487 0.080676
C170  C     C_3   0.346822 0.643677 0.140816 -0.256057
C171  C     C_3   0.349565 0.646749 0.082124 -0.915926
C172  C     C_3   0.331312 0.317120 0.686754 0.156871
C173  C     C_3   0.368277 0.289947 0.646130 -0.383648
C174  C     C_3   0.355712 0.311820 0.592196 -0.955770
C175  C     C_3   0.709506 0.734254 0.136507 0.092445
C176  C     C_3   0.693504 0.692504 0.095603 -0.249983
C177  C     C_3   0.725288 0.701802 0.045613 -0.955058
C178  C     C_3   0.306591 0.681398 0.669256 0.132115
C179  C     C_R   0.146707 0.647223 0.250221 -0.282075
C180  C     C_3   0.276658 0.648228 0.627797 -0.366187
C181  C     C_3   0.291495 0.668580 0.573800 -0.898918
C182  C     C_3   0.763058 0.261741 0.130350 0.084286
C183  C     C_3   0.737292 0.268745 0.077190 -0.229241
C184  C     C_3   0.751753 0.220567 0.042347 -0.960923
C185  C     C_3   0.302193 0.710231 0.349646 0.143033
C186  C     C_3   0.324094 0.751940 0.388811 -0.397469
C187  C     C_3   0.294180 0.746878 0.440381 -0.889265
C188  C     C_3   0.690921 0.279090 0.853378 0.074672
C189  C     C_3   0.668522 0.326456 0.885449 -0.240732
C190  C     C_R   0.647238 0.852792 0.750016 -0.285858
C191  C     C_3   0.685801 0.321475 0.941773 -0.913011
C192  C     C_3   0.329939 0.344677 0.248577 0.131293
C193  C     C_3   0.320277 0.398739 0.277371 -0.374657
C194  C     C_3   0.364410 0.408084 0.317885 -0.916657
C195  C     C_3   0.783297 0.760609 0.864751 0.115800
C196  C     C_3   0.764678 0.764935 0.920814 -0.257559
C197  C     C_3   0.787846 0.816144 0.946255 -0.942662
C198  C     C_3   0.660470 0.327234 0.279257 0.156520
C199  C     C_3   0.616208 0.308459 0.317731 -0.404400
C200  C     C_3   0.616927 0.343445 0.366305 -0.940670
C201  C     C_R   0.352637 0.147493 0.249592 -0.291418
C202  C     C_3   0.303782 0.723010 0.855575 0.071486
C203  C     C_3   0.326888 0.679238 0.891747 -0.226293
C204  C     C_3   0.302532 0.684156 0.945765 -0.940802
C205  C     C_3   0.683878 0.670009 0.314670 0.154201
C206  C     C_3   0.711660 0.633931 0.355855 -0.385542
C207  C     C_3   0.690509 0.647639 0.409693 -0.953398
C208  C     C_3   0.264954 0.291268 0.864147 0.087730
C209  C     C_3   0.306630 0.307262 0.905145 -0.237760
C210  C     C_3   0.296198 0.276761 0.955696 -0.967630
C211  C     C_2   0.082580 0.291182 0.299520 0.465543
C212  C     C_R   0.147519 0.648316 0.749172 -0.329100
C213  C     C_2   0.874741 0.666927 0.656506 0.510770
C214  C     C_2   0.279835 0.922448 0.224432 0.537777
C215  C     C_2   0.708770 0.080541 0.702443 0.471205
C216  C     C_2   0.925511 0.720400 0.255831 0.535957
C217  C     C_2   0.093015 0.302087 0.683000 0.487817
C218  C     C_2   0.715251 0.075792 0.281177 0.470687
C219  C     C_2   0.291578 0.919397 0.702092 0.486304
C220  C     C_2   0.926668 0.278557 0.753576 0.522313
C221  C     C_2   0.076745 0.713154 0.285813 0.493072
C222  C     C_2   0.708470 0.917548 0.700375 0.495945
C223  C     C_R   0.269925 0.771093 0.250526 -0.167166
C224  C     C_R   0.853026 0.352621 0.249113 -0.282989
C225  C     C_2   0.333801 0.126449 0.343540 0.500752
C226  C     C_2   0.073720 0.721267 0.754335 0.519008
C227  C     C_2   0.900227 0.306581 0.324012 0.479365
C228  C     C_2   0.279855 0.074559 0.743287 0.545685
C229  C     C_2   0.698124 0.907470 0.316539 0.490473
C230  C     C_2   0.582668 0.791166 0.799440 0.488402
C231  C     C_2   0.374570 0.165809 0.155758 0.522024
C232  C     C_2   0.778805 0.424231 0.742450 0.524837
C233  C     C_2   0.214040 0.577392 0.216664 0.491243
C234  C     C_2   0.426217 0.220213 0.758229 0.534104
C235  C     C_R   0.352480 0.147978 0.750320 -0.311163
C236  C     C_2   0.591923 0.802183 0.183016 0.471819
C237  C     C_2   0.221456 0.575592 0.743060 0.542043
C238  C     C_2   0.814841 0.395326 0.167844 0.494531
C239  C     C_2   0.420837 0.779609 0.277720 0.553212
C240  C     C_2   0.582900 0.209380 0.797535 0.493250
C241  C     C_2   0.207443 0.416581 0.198400 0.476076
C242  C     C_2   0.831848 0.623600 0.843178 0.448708
C243  C     C_2   0.577686 0.216113 0.218361 0.449766
C244  C     C_2   0.416292 0.791237 0.800154 0.480827
C245  C     C_2   0.779720 0.573956 0.243238 0.513920
C246  C     C_R   0.646869 0.852805 0.249900 -0.278873
C247  C     C_2   0.197489 0.407913 0.817310 0.481594
C248  C     C_R   0.052216 0.586366 0.445374 -0.278956
C249  C     C_R   0.948785 0.413693 0.555658 -0.268154
C250  C     C_R   0.404375 0.968737 0.446314 -0.276261
C251  C     C_R   0.596862 0.029227 0.553215 -0.272183
C252  C     C_R   0.941265 0.416178 0.448988 -0.275758
C253  C     C_R   0.054653 0.585982 0.552311 -0.286117
C254  C     C_R   0.597299 0.027871 0.446002 -0.279879
C255  C     C_R   0.729232 0.226790 0.748938 -0.176551
C256  C     C_R   0.403794 0.968988 0.553535 -0.279277
C257  C     C_R   0.538029 0.093637 0.945947 -0.275167
C258  C     C_R   0.460279 0.906922 0.054356 -0.279031
C259  C     C_R   0.995909 0.395314 0.954323 -0.258832
C260  C     C_R   0.001267 0.604677 0.045954 -0.259209
C261  C     C_R   0.459363 0.907036 0.947206 -0.274521
C262  C     C_R   0.537025 0.094000 0.053100 -0.275194
C263  C     C_R   0.952540 0.592024 0.950566 -0.234712
C264  C     C_R   0.046089 0.407684 0.049075 -0.249316
C265  C     C_R   0.080385 0.628047 0.470936 0.041932
C266  C     C_R   0.770832 0.729052 0.249206 -0.177279
C267  C     C_R   0.917184 0.374164 0.531096 0.035248
C268  C     C_R   0.357173 0.952048 0.472565 0.041636
C269  C     C_R   0.645347 0.041592 0.526673 0.013275
C270  C     C_R   0.913502 0.375333 0.476855 0.009314
C271  C     C_R   0.083179 0.626698 0.525321 0.042769
C272  C     C_R   0.645284 0.042130 0.472113 0.012842
C273  C     C_R   0.356344 0.953646 0.527033 0.022118
C274  C     C_R   0.555588 0.140499 0.972058 0.022610
C275  C     C_R   0.438608 0.861732 0.028484 0.039029
C276  C     C_R   0.018443 0.349131 0.978741 -0.005117
C277  C     C_R   0.228560 0.272369 0.750606 -0.186102
C278  C     C_R   0.978788 0.650655 0.021162 0.006194
C279  C     C_R   0.439410 0.861198 0.973983 0.017431
C280  C     C_R   0.556152 0.140304 0.026584 0.018686
C281  C     C_R   0.950538 0.643340 0.974274 0.022180
C282  C     C_R   0.044914 0.355653 0.026716 0.028660
C283  C     C_R   0.519105 0.046617 0.026901 0.081749
C284  C     C_R   0.479280 0.953748 0.973243 0.077131
C285  C     C_R   0.019545 0.453144 0.026041 0.076073
C286  C     C_R   0.979624 0.546919 0.973670 0.074827
C287  C     C_R   0.479808 0.953616 0.027522 0.076618
C288  C     C_R   0.730089 0.227351 0.247641 -0.191217
C289  C     C_R   0.519516 0.046430 0.972631 0.077972
C290  C     C_R   0.996963 0.551307 0.025036 0.084838
C291  C     C_R   0.001310 0.448668 0.975007 0.088254
C292  C     C_R   0.027494 0.542804 0.526632 0.077041
C293  C     C_R   0.970996 0.458164 0.473986 0.074380
C294  C     C_R   0.452227 0.984152 0.527119 0.077617
C295  C     C_R   0.548522 0.014466 0.472647 0.080041
C296  C     C_R   0.973383 0.457555 0.528180 0.077436
C297  C     C_R   0.026859 0.542568 0.472382 0.079132
C298  C     C_R   0.548242 0.015189 0.526929 0.077355
C299  C     C_R   0.271034 0.773110 0.749836 -0.181732
C300  C     C_R   0.452386 0.984190 0.472832 0.078234
C301  C     C_R   0.004431 0.500636 0.109787 0.815309
C302  C     C_R   0.995368 0.499369 0.890161 0.813649
C303  C     C_R   0.500023 0.999953 0.110132 0.796523
C304  C     C_R   0.499934 0.999856 0.889906 0.798867
C305  C     C_R   0.499923 0.000110 0.610072 0.800539
C306  C     C_R   0.500302 0.999874 0.389866 0.798498
C307  C     C_R   0.000175 0.500810 0.610172 0.794372
C308  C     C_R   0.999795 0.499236 0.389976 0.798216
C309  C     C_R   0.499941 0.999944 0.053996 -0.124777
C310  C     C_R   0.772163 0.269546 0.747913 -0.170122
C311  C     C_R   0.499751 0.999922 0.946092 -0.127283
C312  C     C_R   0.010850 0.502684 0.052942 -0.181995
C313  C     C_R   0.988345 0.497369 0.946918 -0.182078
C314  C     C_R   0.000681 0.500285 0.554117 -0.127635
C315  C     C_R   0.999133 0.499942 0.446238 -0.133097
C316  C     C_R   0.500006 0.000222 0.553877 -0.126156
C317  C     C_R   0.500398 0.999593 0.445977 -0.123156
C318  C     C_R   0.104763 0.604934 0.250016 0.793242
C319  C     C_R   0.894964 0.394674 0.749875 0.793202
C320  C     C_R   0.604816 0.895085 0.250001 0.797668
H1    H     H_    0.049191 0.589757 0.403893 0.137239
H2    H     H_    0.460431 0.905501 0.096071 0.129194
H3    H     H_    0.121664 0.826045 0.433547 0.300116
H4    H     H_    0.135728 0.898225 0.426966 0.279388
H5    H     H_    0.191510 0.849613 0.428526 0.301862
H6    H     H_    0.871546 0.849314 0.734383 0.195207
H7    H     H_    0.833273 0.809628 0.778547 0.083340
H8    H     H_    0.819468 0.934012 0.756391 0.282488
H9    H     H_    0.778559 0.895933 0.802107 0.202437
H10   H     H_    0.862325 0.871706 0.852223 0.257600
H11   H     H_    0.853319 0.944856 0.846143 0.274961
H12   H     H_    0.903713 0.910436 0.806903 0.283678
H13   H     H_    0.972446 0.388213 0.919802 0.171368
H14   H     H_    0.269741 0.298393 0.340426 0.101002
H15   H     H_    0.324199 0.256948 0.367819 0.103775
H16   H     H_    0.261788 0.231006 0.440455 0.260545
H17   H     H_    0.274372 0.303542 0.436273 0.165853
H18   H     H_    0.184156 0.316494 0.390559 0.233485
H19   H     H_    0.176384 0.286445 0.453851 0.225493
H20   H     H_    0.170975 0.243827 0.397566 0.326068
H21   H     H_    0.168466 0.851596 0.835712 0.190479
H22   H     H_    0.221130 0.802088 0.833422 0.082710
H23   H     H_    0.100471 0.782837 0.866236 0.278011
H24   H     H_    0.025660 0.612213 0.079820 0.171329
H25   H     H_    0.151730 0.729614 0.863799 0.207188
H26   H     H_    0.208160 0.779728 0.928473 0.258037
H27   H     H_    0.140671 0.764069 0.952632 0.283034
H28   H     H_    0.156417 0.832872 0.931637 0.278071
H29   H     H_    0.726826 0.256991 0.348406 0.115264
H30   H     H_    0.779334 0.297973 0.379274 0.124021
H31   H     H_    0.754056 0.175865 0.398474 0.258181
H32   H     H_    0.806795 0.214410 0.430314 0.282246
H33   H     H_    0.736152 0.277776 0.466715 0.277395
H34   H     H_    0.722077 0.207577 0.484343 0.283532
H35   H     H_    0.460176 0.905090 0.905520 0.127834
H36   H     H_    0.682808 0.240051 0.434041 0.264329
H37   H     H_    0.138934 0.162057 0.816114 0.197466
H38   H     H_    0.187766 0.214305 0.824680 0.086927
H39   H     H_    0.202612 0.090424 0.848440 0.275545
H40   H     H_    0.255918 0.140653 0.856444 0.209823
H41   H     H_    0.197759 0.191593 0.919419 0.259486
H42   H     H_    0.209760 0.121713 0.939436 0.273820
H43   H     H_    0.144423 0.140776 0.912320 0.289920
H44   H     H_    0.770495 0.746091 0.355056 0.121328
H45   H     H_    0.724310 0.799458 0.377890 0.122656
H46   H     H_    0.536851 0.095404 0.094809 0.123195
H47   H     H_    0.849961 0.797001 0.388519 0.238250
H48   H     H_    0.805609 0.851452 0.410137 0.268396
H49   H     H_    0.757483 0.786378 0.469354 0.267026
H50   H     H_    0.829982 0.787951 0.482131 0.294815
H51   H     H_    0.801091 0.731003 0.447471 0.270062
H52   H     H_    0.650902 0.628184 0.765165 0.194999
H53   H     H_    0.689964 0.667034 0.720937 0.083854
H54   H     H_    0.565946 0.680303 0.743893 0.280127
H55   H     H_    0.603430 0.721745 0.698139 0.202515
H56   H     H_    0.627288 0.638412 0.647484 0.255898
H57   H     H_    0.930416 0.586851 0.914810 0.148499
H58   H     H_    0.554270 0.647118 0.654097 0.274919
H59   H     H_    0.589245 0.596435 0.692865 0.282737
H60   H     H_    0.200607 0.227420 0.154185 0.112928
H61   H     H_    0.242412 0.169543 0.133655 0.134937
H62   H     H_    0.227482 0.279978 0.077113 0.234762
H63   H     H_    0.271644 0.224916 0.056496 0.270231
H64   H     H_    0.192384 0.162725 0.047555 0.271257
H65   H     H_    0.180331 0.225082 0.011548 0.281297
H66   H     H_    0.146827 0.214628 0.072816 0.293896
H67   H     H_    0.650447 0.324196 0.660593 0.185823
H68   H     H_    0.067884 0.412295 0.085090 0.150142
H69   H     H_    0.703409 0.274864 0.662820 0.083611
H70   H     H_    0.714212 0.396522 0.629279 0.266081
H71   H     H_    0.770609 0.348768 0.631838 0.229919
H72   H     H_    0.724156 0.288986 0.567640 0.269262
H73   H     H_    0.734274 0.357534 0.542989 0.288078
H74   H     H_    0.667277 0.336639 0.564704 0.256231
H75   H     H_    0.300254 0.717299 0.153582 0.126771
H76   H     H_    0.259332 0.656671 0.140767 0.118926
H77   H     H_    0.383991 0.663013 0.157315 0.233073
H78   H     H_    0.346127 0.599889 0.152816 0.270248
H79   H     H_    0.859816 0.346966 0.413567 -0.001768
H80   H     H_    0.314227 0.624819 0.065067 0.258158
H81   H     H_    0.387942 0.627190 0.068387 0.288397
H82   H     H_    0.348956 0.690049 0.068951 0.308005
H83   H     H_    0.339307 0.361903 0.685808 0.192501
H84   H     H_    0.287623 0.312600 0.676475 0.082680
H85   H     H_    0.411848 0.298295 0.655262 0.273554
H86   H     H_    0.361933 0.244891 0.646127 0.208213
H87   H     H_    0.312509 0.303093 0.581857 0.258993
H88   H     H_    0.382867 0.291530 0.563676 0.276606
H89   H     H_    0.362813 0.356732 0.590341 0.275462
H90   H     H_    0.105204 0.675072 0.595018 0.024638
H91   H     H_    0.753880 0.729139 0.144358 0.121255
H92   H     H_    0.701442 0.776252 0.120964 0.121603
H93   H     H_    0.702087 0.650460 0.110251 0.240414
H94   H     H_    0.648961 0.695961 0.087578 0.263890
H95   H     H_    0.716053 0.743120 0.029701 0.263478
H96   H     H_    0.713177 0.670644 0.016783 0.293418
H97   H     H_    0.770009 0.698180 0.052569 0.279344
H98   H     H_    0.351319 0.676557 0.662985 0.181842
H99   H     H_    0.298177 0.725719 0.664408 0.083639
H100  H     H_    0.288131 0.604305 0.631318 0.268198
H101  H     H_    0.695364 0.046441 0.400137 0.064596
H102  H     H_    0.231658 0.652043 0.632933 0.222328
H103  H     H_    0.278755 0.712021 0.568773 0.270302
H104  H     H_    0.270118 0.643376 0.544599 0.295003
H105  H     H_    0.336296 0.665097 0.567208 0.254649
H106  H     H_    0.751017 0.220924 0.145673 0.130823
H107  H     H_    0.808476 0.263564 0.125678 0.114986
H108  H     H_    0.692151 0.271466 0.081349 0.286029
H109  H     H_    0.752098 0.307417 0.059186 0.239192
H110  H     H_    0.796770 0.218029 0.036816 0.261885
H111  H     H_    0.732137 0.226073 0.004177 0.277482
H112  H     H_    0.952673 0.410144 0.597060 0.134731
H113  H     H_    0.310967 0.924672 0.596438 0.020024
H114  H     H_    0.736809 0.181542 0.059506 0.278202
H115  H     H_    0.308411 0.668528 0.366002 0.182224
H116  H     H_    0.257384 0.714672 0.344942 0.087877
H117  H     H_    0.368488 0.744759 0.395077 0.271198
H118  H     H_    0.318389 0.794378 0.374021 0.216318
H119  H     H_    0.249730 0.754859 0.435288 0.278240
H120  H     H_    0.310764 0.777301 0.467906 0.284627
H121  H     H_    0.299973 0.705200 0.456925 0.266384
H122  H     H_    0.736326 0.281407 0.853811 0.117919
H123  H     H_    0.677327 0.239710 0.871343 0.117103
H124  H     H_    0.112853 0.665856 0.398543 0.010023
H125  H     H_    0.683909 0.365858 0.869376 0.227964
H126  H     H_    0.623085 0.326730 0.883396 0.281477
H127  H     H_    0.667905 0.283936 0.959239 0.304509
H128  H     H_    0.670674 0.357528 0.963544 0.290541
H129  H     H_    0.731116 0.319804 0.944910 0.249261
H130  H     H_    0.370851 0.346766 0.229927 0.192902
H131  H     H_    0.332257 0.309740 0.275900 0.081415
H132  H     H_    0.320692 0.433422 0.249448 0.285839
H133  H     H_    0.279894 0.397955 0.297102 0.203479
H134  H     H_    0.364040 0.374325 0.346807 0.247985
H135  H     H_    0.902088 0.325557 0.602924 0.037585
H136  H     H_    0.356469 0.447356 0.338020 0.281815
H137  H     H_    0.405413 0.410179 0.299406 0.276898
H138  H     H_    0.770293 0.798553 0.844330 0.118882
H139  H     H_    0.828889 0.757262 0.864161 0.126715
H140  H     H_    0.719233 0.766621 0.922404 0.237393
H141  H     H_    0.778617 0.728099 0.942506 0.273652
H142  H     H_    0.833284 0.815072 0.945778 0.301972
H143  H     H_    0.773742 0.818176 0.986903 0.264821
H144  H     H_    0.773518 0.853538 0.925676 0.261515
H145  H     H_    0.652145 0.370727 0.269090 0.194906
H146  H     H_    0.306721 0.944306 0.401374 0.030047
H147  H     H_    0.701423 0.327224 0.297423 0.086204
H148  H     H_    0.575281 0.311726 0.299386 0.266119
H149  H     H_    0.623192 0.265110 0.329270 0.206080
H150  H     H_    0.657298 0.340065 0.385723 0.259684
H151  H     H_    0.584755 0.328966 0.393405 0.273648
H152  H     H_    0.608765 0.387060 0.356492 0.277242
H153  H     H_    0.258756 0.717324 0.853324 0.125916
H154  H     H_    0.313078 0.764082 0.872213 0.113670
H155  H     H_    0.317487 0.637958 0.876189 0.234347
H156  H     H_    0.372077 0.683672 0.894075 0.281622
H157  H     H_    0.691230 0.070875 0.595201 0.015998
H158  H     H_    0.312623 0.724624 0.962677 0.299947
H159  H     H_    0.319818 0.651475 0.970804 0.282808
H160  H     H_    0.257358 0.679317 0.944468 0.254794
H161  H     H_    0.639217 0.661732 0.316065 0.189327
H162  H     H_    0.688187 0.713971 0.324065 0.084906
H163  H     H_    0.703315 0.590093 0.347764 0.270610
H164  H     H_    0.756641 0.640383 0.355311 0.209365
H165  H     H_    0.699112 0.691180 0.418893 0.258709
H166  H     H_    0.711334 0.621269 0.438673 0.279024
H167  H     H_    0.645726 0.640335 0.412166 0.276843
H168  H     H_    0.405054 0.819989 0.904876 0.010848
H169  H     H_    0.269434 0.246671 0.856914 0.121113
H170  H     H_    0.223031 0.300108 0.879220 0.128931
H171  H     H_    0.348549 0.297454 0.891162 0.244317
H172  H     H_    0.304079 0.352090 0.912158 0.262550
H173  H     H_    0.255025 0.287307 0.970958 0.265361
H174  H     H_    0.327367 0.288786 0.984574 0.296457
H175  H     H_    0.298820 0.231776 0.949744 0.272130
H176  H     H_    0.049527 0.320777 0.297184 0.045208
H177  H     H_    0.913073 0.644608 0.658825 0.033555
H178  H     H_    0.297809 0.955139 0.246900 0.048045
H179  H     H_    0.565910 0.189669 0.098167 0.053075
H180  H     H_    0.675258 0.053114 0.693639 0.004720
H181  H     H_    0.954854 0.691589 0.271591 0.039763
H182  H     H_    0.063884 0.335427 0.679092 0.011682
H183  H     H_    0.683401 0.045304 0.285604 0.034706
H184  H     H_    0.325017 0.947175 0.693560 -0.007031
H185  H     H_    0.957105 0.305150 0.736182 0.050072
H186  H     H_    0.049777 0.680455 0.298354 -0.002594
H187  H     H_    0.679179 0.950764 0.703315 0.026835
H188  H     H_    0.356144 0.088072 0.341779 0.033668
H189  H     H_    0.043611 0.695580 0.735658 0.041873
H190  H     H_    0.912151 0.686208 0.907315 0.049073
H191  H     H_    0.927468 0.340924 0.330267 -0.000704
H192  H     H_    0.308587 0.045263 0.727386 0.039953
H193  H     H_    0.664102 0.935515 0.321784 0.007101
H194  H     H_    0.549249 0.820199 0.796074 0.030051
H195  H     H_    0.413327 0.144276 0.158443 0.031463
H196  H     H_    0.803127 0.454547 0.762409 0.048297
H197  H     H_    0.182102 0.550076 0.203563 0.017493
H198  H     H_    0.455826 0.190667 0.772334 0.042620
H199  H     H_    0.562993 0.835718 0.179259 0.016125
H200  H     H_    0.196564 0.544910 0.762279 0.053657
H201  H     H_    0.101598 0.317016 0.083602 0.034102
H202  H     H_    0.845313 0.427543 0.168301 0.029549
H203  H     H_    0.454078 0.796956 0.255205 0.054681
H204  H     H_    0.554167 0.176543 0.805306 -0.005435
H205  H     H_    0.178442 0.449981 0.201806 0.027720
H206  H     H_    0.857358 0.587275 0.841648 0.032090
H207  H     H_    0.546019 0.185218 0.216313 0.041508
H208  H     H_    0.444990 0.824136 0.807338 0.004412
H209  H     H_    0.808673 0.544332 0.228200 0.048492
H210  H     H_    0.163446 0.436045 0.821953 0.023764
H211  H     H_    0.589983 0.182857 0.903099 0.007444
H212  H     H_    0.403439 0.968120 0.404585 0.122586
H213  H     H_    0.426711 0.811920 0.100043 0.039141
H214  H     H_    0.982399 0.289053 0.923953 0.041659
H215  H     H_    0.995431 0.707571 0.086286 0.057962
H216  H     H_    0.147649 0.128031 0.263469 0.189723
H217  H     H_    0.189037 0.165426 0.220069 0.086595
H218  H     H_    0.064949 0.183100 0.240445 0.271470
H219  H     H_    0.104762 0.222740 0.195065 0.207765
H220  H     H_    0.126853 0.137782 0.145759 0.258470
H221  H     H_    0.054133 0.149785 0.150443 0.285817
H222  H     H_    0.085772 0.098063 0.190547 0.274476
H223  H     H_    0.598214 0.028868 0.594958 0.120752
H224  H     H_    0.701164 0.731029 0.655657 0.116862
H225  H     H_    0.741758 0.672364 0.635052 0.129579
H226  H     H_    0.731564 0.783297 0.578415 0.243701
H227  H     H_    0.771721 0.725355 0.557642 0.262631
H228  H     H_    0.687023 0.668387 0.551858 0.274219
H229  H     H_    0.681690 0.729413 0.512631 0.271379
H230  H     H_    0.646328 0.725963 0.573677 0.275059
H231  H     H_    0.165809 0.808979 0.138647 0.185571
H232  H     H_    0.217189 0.761288 0.155743 0.081198
H233  H     H_    0.234995 0.876073 0.106812 0.271319
H234  H     H_    0.939581 0.413943 0.407431 0.143104
H235  H     H_    0.289519 0.829492 0.123989 0.221708
H236  H     H_    0.253210 0.759984 0.062973 0.267572
H237  H     H_    0.266836 0.824187 0.030599 0.293099
H238  H     H_    0.197353 0.805574 0.046064 0.261783
H239  H     H_    0.780498 0.228306 0.638634 0.135617
H240  H     H_    0.737892 0.168444 0.627682 0.108989
H241  H     H_    0.863682 0.175395 0.622476 0.237821
H242  H     H_    0.825275 0.112572 0.618171 0.281995
H243  H     H_    0.776950 0.146854 0.540496 0.284112
H244  H     H_    0.850004 0.150078 0.531232 0.297015
H245  H     H_    0.055353 0.588051 0.593918 0.141044
H246  H     H_    0.812042 0.211824 0.544844 0.296306
H247  H     H_    0.838301 0.860682 0.181893 0.186873
H248  H     H_    0.786341 0.811487 0.173623 0.081580
H249  H     H_    0.910377 0.796644 0.151374 0.277695
H250  H     H_    0.860425 0.743049 0.143515 0.208242
H251  H     H_    0.810328 0.799893 0.078892 0.249084
H252  H     H_    0.880607 0.788620 0.060304 0.324127
H253  H     H_    0.860293 0.854038 0.086215 0.267923
H254  H     H_    0.256397 0.228912 0.646867 0.122993
H255  H     H_    0.205200 0.276788 0.622473 0.118777
H256  H     H_    0.598497 0.027788 0.404256 0.117416
H257  H     H_    0.203048 0.151060 0.611446 0.247008
H258  H     H_    0.152940 0.198577 0.586383 0.259943
H259  H     H_    0.226134 0.243556 0.532619 0.258655
H260  H     H_    0.218698 0.171681 0.518114 0.297025
H261  H     H_    0.275509 0.194418 0.556851 0.272975
H262  H     H_    0.870560 0.146667 0.223559 0.192828
H263  H     H_    0.826075 0.195128 0.195113 0.081853
H264  H     H_    0.810185 0.068955 0.197900 0.272705
H265  H     H_    0.763446 0.116460 0.167582 0.205534
H266  H     H_    0.837729 0.148086 0.108175 0.260881
H267  H     H_    0.401920 0.970107 0.595244 0.121899
H268  H     H_    0.825374 0.075454 0.103081 0.274581
H269  H     H_    0.884479 0.099596 0.137772 0.276996
H270  H     H_    0.217260 0.769077 0.640280 0.137726
H271  H     H_    0.266399 0.823675 0.628600 0.103971
H272  H     H_    0.140904 0.831738 0.619821 0.235530
H273  H     H_    0.187736 0.888221 0.612211 0.283885
H274  H     H_    0.233761 0.839360 0.538882 0.291446
H275  H     H_    0.161770 0.850741 0.527412 0.287914
H276  H     H_    0.185822 0.783597 0.545953 0.300888
H277  H     H_    0.829757 0.148771 0.836455 0.182814
H278  H     H_    0.537339 0.095378 0.904231 0.126503
H279  H     H_    0.779768 0.201151 0.834761 0.080770
H280  H     H_    0.902104 0.213434 0.864521 0.272463
H281  H     H_    0.854222 0.269760 0.861950 0.206198
H282  H     H_    0.796079 0.224527 0.928527 0.260001
H283  H     H_    0.864900 0.235685 0.951204 0.274964
H284  H     H_    0.844021 0.167885 0.932021 0.278566
H285  H     H_    0.215347 0.798805 0.345878 0.116805
H286  H     H_    0.151477 0.763408 0.359845 0.151777
H287  H     H_    0.168647 0.886537 0.338569 0.225147
H288  H     H_    0.102469 0.854525 0.344487 0.271585
O1    O     O_3   0.000000 0.500000 0.250000 -0.480530
O2    O     O_R   0.000000 0.454520 0.865790 -0.653396
O3    O     O_3   0.276085 0.320953 0.818463 -0.538627
O4    O     O_2   0.075292 0.250627 0.326414 -0.504114
O5    O     O_2   0.860930 0.684307 0.614273 -0.547066
O6    O     O_2   0.244065 0.934393 0.193553 -0.542365
O7    O     O_2   0.755319 0.064653 0.693955 -0.499444
O8    O     O_2   0.941508 0.766623 0.245933 -0.489929
O9    O     O_2   0.083686 0.259956 0.659457 -0.516367
O10   O     O_2   0.761427 0.062644 0.294256 -0.486406
O11   O     O_2   0.245073 0.934951 0.692919 -0.492299
O12   O     O_2   0.941933 0.234009 0.769683 -0.516839
O13   O     O_R   0.545480 0.000000 0.134210 -0.640451
O14   O     O_2   0.059417 0.760084 0.287011 -0.490505
O15   O     O_2   0.748578 0.924877 0.673065 -0.477782
O16   O     O_2   0.316970 0.141047 0.385641 -0.546065
O17   O     O_2   0.058131 0.764738 0.772272 -0.534514
O18   O     O_2   0.910011 0.263684 0.346661 -0.461400
O19   O     O_2   0.233749 0.058403 0.753147 -0.495100
O20   O     O_2   0.741010 0.918142 0.338318 -0.502987
O21   O     O_2   0.575620 0.751118 0.827059 -0.484182
O22   O     O_2   0.360343 0.181983 0.113232 -0.543561
O23   O     O_2   0.736030 0.439364 0.722708 -0.537718
O24   O     O_R   0.454520 0.000000 0.865790 -0.636976
O25   O     O_2   0.260965 0.560146 0.217714 -0.522409
O26   O     O_2   0.442085 0.266970 0.750689 -0.496197
O27   O     O_2   0.582078 0.760050 0.159666 -0.527451
O28   O     O_2   0.264802 0.560784 0.724206 -0.524422
O29   O     O_2   0.780462 0.396983 0.133785 -0.518333
O30   O     O_2   0.431816 0.744158 0.309451 -0.536016
O31   O     O_2   0.568911 0.256029 0.808188 -0.484065
O32   O     O_2   0.246838 0.423403 0.170071 -0.505111
O33   O     O_2   0.809804 0.634070 0.884247 -0.546310
O34   O     O_2   0.565820 0.262232 0.203685 -0.512568
O35   O     O_R   0.500000 0.954520 0.634210 -0.635859
O36   O     O_2   0.429906 0.744784 0.812334 -0.491207
O37   O     O_2   0.733418 0.557995 0.252541 -0.528359
O38   O     O_2   0.240029 0.418571 0.839684 -0.519548
O39   O     O_R   0.500000 0.045480 0.365790 -0.636359
O40   O     O_R   0.954520 0.500000 0.634210 -0.638271
O41   O     O_R   0.045480 0.500000 0.365790 -0.637570
O42   O     O_R   0.500000 0.045480 0.634210 -0.637470
O43   O     O_R   0.500000 0.954520 0.365790 -0.637433
O44   O     O_R   0.045480 0.500000 0.634210 -0.643090
O45   O     O_3   0.000000 0.500000 0.750000 -0.479251
O46   O     O_R   0.954520 0.500000 0.365790 -0.644509
O47   O     O_R   0.063990 0.609460 0.219650 -0.649992
O48   O     O_R   0.936010 0.390540 0.780350 -0.657393
O49   O     O_R   0.609460 0.936010 0.219650 -0.639915
O50   O     O_R   0.390540 0.063990 0.780350 -0.643916
O51   O     O_R   0.936010 0.390540 0.219650 -0.635426
O52   O     O_R   0.063990 0.609460 0.780350 -0.640402
O53   O     O_R   0.390540 0.063990 0.219650 -0.642061
O54   O     O_R   0.609460 0.936010 0.780350 -0.640270
O55   O     O_R   0.936010 0.609460 0.780350 -0.656574
O56   O     O_3   0.500000 0.000000 0.250000 -0.484138
O57   O     O_R   0.063990 0.390540 0.219650 -0.651599
O58   O     O_R   0.390540 0.936010 0.780350 -0.642770
O59   O     O_R   0.609460 0.063990 0.219650 -0.646340
O60   O     O_R   0.063990 0.390540 0.780350 -0.640076
O61   O     O_R   0.936010 0.609460 0.219650 -0.648985
O62   O     O_R   0.609460 0.063990 0.780350 -0.642965
O63   O     O_R   0.390540 0.936010 0.219650 -0.648744
O64   O     O_R   0.563990 0.109460 0.719650 -0.642883
O65   O     O_R   0.436010 0.890540 0.280350 -0.651303
O66   O     O_R   0.109460 0.436010 0.719650 -0.637718
O67   O     O_3   0.500000 0.000000 0.750000 -0.485929
O68   O     O_R   0.890540 0.563990 0.280350 -0.643376
O69   O     O_R   0.436010 0.890540 0.719650 -0.642960
O70   O     O_R   0.563990 0.109460 0.280350 -0.644497
O71   O     O_R   0.890540 0.563990 0.719650 -0.638885
O72   O     O_R   0.109460 0.436010 0.280350 -0.638362
O73   O     O_R   0.436010 0.109460 0.280350 -0.642553
O74   O     O_R   0.563990 0.890540 0.719650 -0.641010
O75   O     O_R   0.890540 0.436010 0.280350 -0.648022
O76   O     O_R   0.109460 0.563990 0.719650 -0.653828
O77   O     O_R   0.563990 0.890540 0.280350 -0.639879
O78   O     O_R   1.000000 0.454520 0.134210 -0.638751
O79   O     O_R   0.436010 0.109460 0.719650 -0.646397
O80   O     O_R   0.109460 0.563990 0.280350 -0.643911
O81   O     O_R   0.890540 0.436010 0.719650 -0.648000
O82   O     O_2   0.883965 0.285716 0.459209 -0.504434
O83   O     O_2   0.160756 0.681742 0.539332 -0.576598
O84   O     O_2   0.728546 0.088940 0.456992 -0.552600
O85   O     O_2   0.261188 0.954287 0.542597 -0.513355
O86   O     O_2   0.109448 0.719120 0.456021 -0.564972
O87   O     O_2   0.843885 0.314487 0.550852 -0.588676
O88   O     O_2   0.280622 0.895601 0.457763 -0.587560
O89   O     O_R   0.000000 0.545480 0.865790 -0.640620
O90   O     O_2   0.739712 0.034017 0.544463 -0.479882
O91   O     O_2   0.429318 0.766565 0.958209 -0.508223
O92   O     O_2   0.611659 0.217987 0.040727 -0.558790
O93   O     O_2   0.894896 0.722473 0.973773 -0.569273
O94   O     O_2   0.047371 0.264051 0.056406 -0.538915
O95   O     O_2   0.558485 0.235227 0.953556 -0.500640
O96   O     O_2   0.375615 0.790356 0.044390 -0.586589
O97   O     O_2   0.051830 0.261962 0.954587 -0.533911
O98   O     O_2   0.989585 0.746877 0.019283 -0.532693
O99   O     O_3   0.161683 0.206718 0.286156 -0.549228
O100  O     O_R   0.454520 0.000000 0.134210 -0.634814
O101  O     O_3   0.785136 0.742322 0.658077 -0.545332
O102  O     O_3   0.211345 0.832902 0.200518 -0.541146
O103  O     O_3   0.785624 0.168385 0.695190 -0.541017
O104  O     O_3   0.841590 0.798087 0.234425 -0.537764
O105  O     O_3   0.180622 0.224281 0.682553 -0.537492
O106  O     O_3   0.798143 0.155233 0.262103 -0.530609
O107  O     O_3   0.215722 0.831043 0.694278 -0.540575
O108  O     O_3   0.840865 0.203610 0.777536 -0.537098
O109  O     O_3   0.161533 0.793324 0.284516 -0.545607
O110  O     O_3   0.792376 0.837430 0.712117 -0.540099
O111  O     O_R   0.545480 0.000000 0.865790 -0.637993
O112  O     O_3   0.256269 0.214047 0.340165 -0.530004
O113  O     O_3   0.159048 0.796124 0.777677 -0.537376
O114  O     O_3   0.807120 0.236499 0.329984 -0.532302
O115  O     O_3   0.202231 0.158495 0.764621 -0.539847
O116  O     O_3   0.776636 0.820403 0.316592 -0.539104
O117  O     O_3   0.662735 0.707304 0.787742 -0.540047
O118  O     O_3   0.284308 0.240451 0.156393 -0.543962
O119  O     O_3   0.705892 0.337848 0.717952 -0.537642
O120  O     O_3   0.292547 0.663600 0.215213 -0.547962
O121  O     O_3   0.342408 0.298592 0.737595 -0.537833
O122  O     O_R   0.000000 0.545480 0.134210 -0.654229
O123  O     O_3   0.679156 0.723836 0.181892 -0.539538
O124  O     O_3   0.295014 0.662411 0.719879 -0.538936
O125  O     O_3   0.743153 0.303048 0.163481 -0.536405
O126  O     O_3   0.330306 0.712109 0.301733 -0.544080
O127  O     O_3   0.671815 0.284821 0.802296 -0.540242
O128  O     O_3   0.291131 0.336000 0.208938 -0.539141
O129  O     O_3   0.758085 0.714704 0.841932 -0.541330
O130  O     O_3   0.659867 0.297184 0.232623 -0.535137
O131  O     O_3   0.327023 0.716297 0.806081 -0.541890
O132  O     O_3   0.701911 0.658097 0.263925 -0.540405
Zn1   Zn    Zn3+2 0.064970 0.500000 0.293390 0.953506
Zn2   Zn    Zn3+2 0.435030 0.000000 0.206610 0.956081
Zn3   Zn    Zn3+2 0.000000 0.435030 0.793390 0.945327
Zn4   Zn    Zn3+2 0.000000 0.564970 0.206610 0.942130
Zn5   Zn    Zn3+2 0.435030 0.000000 0.793390 0.955615
Zn6   Zn    Zn3+2 0.564970 0.000000 0.206610 0.949296
Zn7   Zn    Zn3+2 0.000000 0.564970 0.793390 0.948550
Zn8   Zn    Zn3+2 1.000000 0.435030 0.206610 0.954096
Zn9   Zn    Zn3+2 0.935030 0.500000 0.706610 0.954638
Zn10  Zn    Zn3+2 0.500000 0.935030 0.293390 0.955771
Zn11  Zn    Zn3+2 0.500000 0.064970 0.706610 0.954118
Zn12  Zn    Zn3+2 0.935030 0.500000 0.293390 0.953572
Zn13  Zn    Zn3+2 0.064970 0.500000 0.706610 0.956078
Zn14  Zn    Zn3+2 0.500000 0.064970 0.293390 0.950212
Zn15  Zn    Zn3+2 0.500000 0.935030 0.706610 0.953078
Zn16  Zn    Zn3+2 0.564970 0.000000 0.793390 0.953032

loop_
_geom_bond_atom_site_label_1
_geom_bond_atom_site_label_2
_ccdc_geom_bond_type
C154  H43   S    
C97   O92   D    
C191  H129  S    
C126  C127  S    
C108  H224  S    
C138  H4    S    
C177  H97   S    
C181  H105  S    
O73   Zn14  S    
C193  H132  S    
C251  C269  A    
C114  C115  S    
C167  H74   S    
C234  O26   D    
C149  H29   S    
C155  H44   S    
C216  O8    D    
C97   C280  S    
C103  C276  S    
C122  H254  S    
C225  H188  S    
C119  H248  S    
C118  H246  S    
C204  H159  S    
C58   C217  S    
C197  H143  S    
C106  C107  S    
C143  C144  S    
C138  H5    S    
C108  C109  S    
C82   C242  S    
O44   Zn13  S    
C307  O40   A    
C39   C74   A    
C161  H59   S    
C182  C183  S    
C36   O118  S    
O72   Zn1   S    
C12   C135  S    
C66   C227  S    
C207  H166  S    
C25   C60   A    
C74   C234  S    
O56   Zn2   S    
C248  H1    S    
C36   C71   A    
C33   C69   A    
C120  H249  S    
C232  O23   D    
C131  H274  S    
O54   Zn16  S    
C209  H172  S    
C9    O57   A    
C199  C200  S    
O40   Zn9   S    
C78   C101  A    
C262  H46   S    
C63   C222  S    
C292  C297  A    
C194  H134  S    
C230  O21   D    
C148  H26   S    
C32   C57   A    
C180  H100  S    
C145  H21   S    
C17   C52   A    
C188  H123  S    
C145  O113  S    
C226  H189  S    
C51   O3    S    
C189  H126  S    
C260  C290  A    
C22   C277  A    
C202  C203  S    
C195  O129  S    
C305  O42   A    
C214  O6    D    
C144  H20   S    
C8    O55   A    
C213  O5    D    
C117  H242  S    
C297  C315  A    
C60   C219  S    
C255  C310  S    
C211  H176  S    
C14   O61   A    
C178  H99   S    
C7    O54   A    
C182  H107  S    
C141  H11   S    
C76   C237  S    
C256  H267  S    
C254  H256  S    
C183  C184  S    
C20   O103  S    
O67   Zn5   S    
C21   C56   A    
C261  C284  A    
C200  H150  S    
C175  C176  S    
C186  H118  S    
C283  C309  A    
C171  H80   S    
C259  C276  A    
C304  O24   A    
C171  H82   S    
C164  H65   S    
C287  C309  A    
O66   Zn13  S    
C164  H64   S    
C203  H156  S    
C6    C201  S    
C260  H24   S    
C75   C236  S    
C242  H206  S    
C154  H41   S    
O89   Zn7   S    
O100  Zn2   S    
C254  C295  A    
C306  O39   A    
C302  C313  S    
C77   C238  S    
C17   O99   S    
C247  O38   D    
O45   Zn3   S    
C37   C310  A    
C238  O29   D    
C94   C268  S    
C70   C190  A    
C20   C255  A    
C79   C81   A    
C54   C214  S    
C249  C296  A    
C177  H95   S    
C219  H184  S    
C31   C66   A    
C39   O121  S    
C9    O72   A    
C45   C81   A    
C38   O120  S    
C196  C197  S    
C25   O107  S    
C118  H244  S    
C126  H263  S    
C22   C58   A    
C105  H217  S    
C139  C140  S    
C141  H12   S    
C13   C112  S    
C128  H266  S    
C291  C313  A    
C61   C168  A    
C222  H187  S    
C142  H14   S    
C130  C131  S    
C302  O2    A    
C241  O32   D    
C220  H185  S    
C307  O44   A    
C41   C76   A    
C276  C282  A    
C10   O69   A    
C104  H215  S    
C156  C158  S    
C5    O76   A    
C121  H253  S    
C242  O33   D    
C175  H92   S    
C125  H259  S    
C12   O66   A    
C195  C196  S    
C129  O107  S    
C210  H173  S    
C222  O15   D    
C107  H222  S    
O56   Zn10  S    
C3    O50   A    
O58   Zn5   S    
C193  C194  S    
C155  C156  S    
C71   C231  S    
C306  O43   A    
C183  H109  S    
C162  H60   S    
C180  H102  S    
C186  C187  S    
C109  C110  S    
C133  H280  S    
C150  H32   S    
C181  H103  S    
C196  H140  S    
C115  H236  S    
C6    O73   A    
C170  H78   S    
C86   C247  S    
C159  O117  S    
C4    O75   A    
C28   O110  S    
O48   Zn3   S    
C147  C148  S    
C10   O58   A    
C30   O113  S    
C98   C281  S    
C257  C289  A    
O24   Zn5   S    
C126  O106  S    
C247  H210  S    
C23   C59   A    
C198  H147  S    
C24   C36   A    
C305  C316  S    
C161  H56   S    
C162  H61   S    
C49   C84   A    
C139  O110  S    
C292  C314  A    
C111  O102  S    
C206  H164  S    
C114  H235  S    
C117  H241  S    
C267  C270  A    
C62   C221  S    
C170  C171  S    
C208  H170  S    
C257  H278  S    
C51   C277  A    
C9    C79   S    
C89   O84   D    
C49   C299  A    
C123  H257  S    
C226  O17   D    
C111  H232  S    
C204  H158  S    
C24   C29   A    
C165  O119  S    
C31   C46   A    
C264  H68   S    
C102  O96   D    
C149  O114  S    
C15   C113  S    
C7    C190  S    
C142  O112  S    
C42   O125  S    
C50   C85   A    
C303  C309  S    
C3    C235  S    
C23   C288  A    
C76   C212  A    
C296  C314  A    
C301  O78   A    
C156  H48   S    
C85   C245  S    
C72   C168  A    
C137  H288  S    
C207  H167  S    
C259  C291  A    
C98   O93   D    
C215  O7    D    
C64   C225  S    
C284  C311  A    
C241  H205  S    
C151  H36   S    
C211  O4    D    
C131  H275  S    
C129  H271  S    
C139  H7    S    
C251  C298  A    
C14   C124  S    
C23   O106  S    
C252  C293  A    
O63   Zn2   S    
C183  H108  S    
C234  H198  S    
C60   C157  A    
C236  H199  S    
C152  H37   S    
C298  C316  A    
C62   C179  A    
C195  H138  S    
C174  H89   S    
C188  H122  S    
C248  C265  A    
C103  H214  S    
C158  H49   S    
C136  H285  S    
O2    Zn3   S    
O57   Zn8   S    
C100  C274  S    
C258  C287  A    
C43   C223  A    
C116  O103  S    
C188  O127  S    
O56   Zn14  S    
C308  C315  S    
C69   C229  S    
C176  H93   S    
C2    C38   A    
C88   C271  S    
C107  H220  S    
O45   Zn7   S    
O55   Zn7   S    
C209  C210  S    
C140  H8    S    
O67   Zn16  S    
C44   O127  S    
C95   H157  S    
C29   O112  S    
C110  H230  S    
C179  C318  S    
C21   C266  A    
C32   C67   A    
C134  H284  S    
C19   C54   A    
C172  H84   S    
O76   Zn13  S    
C173  H85   S    
C91   O85   D    
C187  H120  S    
C102  C275  S    
C148  H27   S    
C169  H75   S    
C121  H251  S    
C116  H240  S    
C200  H151  S    
C120  C121  S    
C88   O83   D    
C129  C130  S    
C196  H141  S    
C198  H145  S    
C19   O102  S    
C53   C213  S    
C72   C232  S    
C22   O105  S    
C68   C266  S    
C133  H281  S    
C73   C179  A    
C136  C137  S    
O78   Zn8   S    
C114  H233  S    
C169  O120  S    
C11   C146  S    
C122  C123  S    
C11   O59   A    
C58   C135  A    
C63   C190  A    
C285  C291  A    
C1    C17   A    
C48   C83   A    
C158  H51   S    
O52   Zn7   S    
C249  C267  A    
C227  O18   D    
C166  H70   S    
C250  C268  A    
C122  H255  S    
C40   O123  S    
C119  H247  S    
O111  Zn16  S    
C210  H175  S    
C87   O82   D    
C256  C294  A    
C127  H265  S    
O60   Zn3   S    
C202  H154  S    
C197  H142  S    
O80   Zn1   S    
C213  H177  S    
C109  H226  S    
C161  H58   S    
C35   C41   A    
C29   C64   A    
C30   C65   A    
C100  H211  S    
C233  O25   D    
C191  H128  S    
C16   C101  S    
C238  H202  S    
C80   C113  A    
C42   C77   A    
C158  H50   S    
C150  C151  S    
C207  H165  S    
C240  O31   D    
C227  H191  S    
C74   C235  A    
O49   Zn6   S    
C231  H195  S    
C37   O119  S    
C308  O46   A    
C172  O121  S    
C198  O130  S    
C33   C68   A    
C16   O63   A    
C120  H250  S    
C289  C311  A    
C64   C201  A    
C209  H171  S    
C153  H40   S    
C290  C312  A    
C78   C239  S    
O64   Zn11  S    
C97   H179  S    
C89   C272  S    
C264  C282  A    
C108  H225  S    
C96   O91   D    
C203  C204  S    
C174  H87   S    
C239  H203  S    
C205  H162  S    
C115  H237  S    
C43   C78   A    
C189  H125  S    
C89   H101  S    
C257  C274  A    
O53   Zn2   S    
C56   C124  A    
C122  O105  S    
C26   C61   A    
C18   C112  A    
C106  H219  S    
C293  C296  A    
C87   C270  S    
C123  C125  S    
O1    Zn4   S    
O56   Zn6   S    
O75   Zn12  S    
C184  H111  S    
C83   C243  S    
C98   H190  S    
C151  H34   S    
C141  H10   S    
C205  O132  S    
C233  H197  S    
C42   C46   A    
C81   C241  S    
C108  O101  S    
C229  O20   D    
C110  H228  S    
C12   O60   A    
C99   H201  S    
C65   C212  A    
C132  H277  S    
C54   C101  A    
C18   C53   A    
C134  H282  S    
C6    O53   A    
C165  H67   S    
C301  C312  S    
C208  C209  S    
C182  O125  S    
C278  C281  A    
C11   O70   A    
C13   C28   A    
C2    C27   A    
C171  H81   S    
C164  H66   S    
O47   Zn4   S    
C115  H238  S    
C34   C70   A    
C73   C233  S    
C319  O81   A    
C203  H155  S    
C214  H178  S    
C245  O37   D    
C127  H264  S    
C154  H42   S    
O50   Zn5   S    
C318  O80   A    
C138  H3    S    
O43   Zn10  S    
C168  C319  S    
C263  H57   S    
C193  H133  S    
C91   H113  S    
C51   C86   A    
C75   C246  A    
C145  C147  S    
C160  H55   S    
C32   O115  S    
C165  H69   S    
C96   H168  S    
C208  O3    S    
C149  H30   S    
C286  C290  A    
C44   C80   A    
C19   C223  A    
C15   O62   A    
C119  O104  S    
C128  H268  S    
C105  H216  S    
C197  H144  S    
O65   Zn10  S    
O59   Zn6   S    
C87   H79   S    
C205  C206  S    
O1    Zn8   S    
O45   Zn13  S    
C285  C312  A    
C275  C279  A    
C237  O28   D    
C83   C146  A    
C260  C278  A    
C240  H204  S    
C77   C224  A    
C174  H88   S    
C159  C160  S    
C261  C279  A    
C262  C280  A    
C25   C299  A    
C167  H73   S    
O62   Zn16  S    
C140  C141  S    
C121  H252  S    
C305  O35   A    
C215  H180  S    
C293  C315  A    
C175  H91   S    
C294  C316  A    
C92   C265  S    
C210  H174  S    
C202  H153  S    
O41   Zn1   S    
C107  H221  S    
C232  H196  S    
C133  C134  S    
O70   Zn14  S    
C256  C273  A    
C253  C292  A    
C195  H139  S    
C21   O104  S    
C145  H22   S    
C259  H13   S    
O67   Zn11  S    
C180  C181  S    
O81   Zn9   S    
C162  C163  S    
C162  O118  S    
C217  O9    D    
C105  O99   S    
C258  C275  A    
C228  H192  S    
C96   C279  S    
C175  O123  S    
C144  H19   S    
C230  H194  S    
C59   C218  S    
C163  H62   S    
C178  C180  S    
C319  O48   A    
C5    C212  S    
C44   C255  A    
C202  O131  S    
C147  H25   S    
C178  H98   S    
C35   C299  S    
C105  C106  S    
C182  H106  S    
C82   C90   A    
C40   C75   A    
C265  C271  A    
C13   C34   A    
C132  H279  S    
C149  C150  S    
C192  C193  S    
C237  H200  S    
C55   C215  S    
C48   C288  A    
C252  C270  A    
C185  C186  S    
C251  H223  S    
C253  C271  A    
C186  H117  S    
C26   C310  A    
C254  C272  A    
C65   C226  S    
C111  C114  S    
C94   O88   D    
C111  H231  S    
C128  H269  S    
C99   C282  S    
C69   C246  A    
C15   O64   A    
C40   C68   A    
C269  C272  A    
C53   C90   A    
C104  O98   D    
C142  C143  S    
C92   O86   D    
C99   O94   D    
C142  H15   S    
C194  H137  S    
C204  H160  S    
C160  H54   S    
C57   C277  S    
C304  C311  S    
C244  O36   D    
C50   C266  A    
C177  H96   S    
C165  C166  S    
C117  C118  S    
C169  C170  S    
C137  H287  S    
C284  C287  A    
C50   O132  S    
C163  C164  S    
C61   C220  S    
C221  O14   D    
C1    C45   A    
C118  H243  S    
C126  H262  S    
C308  O41   A    
C125  H261  S    
C173  C174  S    
C283  C289  A    
C129  H270  S    
C67   C235  A    
O46   Zn12  S    
C228  O19   D    
C30   C35   A    
O35   Zn15  S    
C274  C280  A    
C264  C285  A    
O39   Zn14  S    
C178  O124  S    
C155  O116  S    
C94   H146  S    
C185  H115  S    
C152  H38   S    
C167  H72   S    
C139  H6    S    
C136  O109  S    
C33   O116  S    
C102  H213  S    
C47   C112  A    
C39   C57   A    
C286  C313  A    
C219  O11   D    
C136  H286  S    
C116  C117  S    
C218  O10   D    
C85   C124  A    
C189  C191  S    
C47   C82   A    
C225  O16   D    
C125  H260  S    
C199  H149  S    
C246  C320  S    
O1    Zn1   S    
C262  C283  A    
C184  H110  S    
C132  C133  S    
C206  C207  S    
C268  C273  A    
O68   Zn12  S    
C52   C211  S    
C92   H124  S    
O67   Zn15  S    
C192  H131  S    
O69   Zn15  S    
C109  H227  S    
C49   O131  S    
C150  H31   S    
C181  H104  S    
C218  H183  S    
C170  H77   S    
C143  H17   S    
C263  C286  A    
C244  H208  S    
C166  H71   S    
C187  H119  S    
C148  H28   S    
C37   C72   A    
C176  H94   S    
C20   C55   A    
C304  O111  A    
C200  H152  S    
C95   C269  S    
C295  C298  A    
C147  H23   S    
C302  O89   A    
C243  H207  S    
C132  O108  S    
C231  O22   D    
C56   C216  S    
C236  O27   D    
C261  H35   S    
O74   Zn15  S    
C91   C273  S    
C43   O126  S    
C221  H186  S    
C192  O128  S    
C66   C224  A    
C104  C278  S    
C206  H163  S    
C307  C314  S    
O77   Zn10  S    
C159  H53   S    
C55   C113  A    
C320  O77   A    
C4    C224  S    
C4    O51   A    
C253  H245  S    
C208  H169  S    
C243  O34   D    
C188  C189  S    
C27   O109  S    
C229  H193  S    
C93   C267  S    
C185  H116  S    
C26   O108  S    
C70   C230  S    
C123  H258  S    
C294  C300  A    
C8    O71   A    
C320  O49   A    
C48   O130  S    
C86   C135  A    
C47   O129  S    
O71   Zn9   S    
C318  O47   A    
C155  H45   S    
C18   O101  S    
C295  C317  A    
C252  H234  S    
O42   Zn11  S    
C14   O68   A    
C140  H9    S    
C152  C153  S    
C119  C120  S    
C10   C157  S    
O122  Zn4   S    
C198  C199  S    
C1    C24   S    
C191  H127  S    
C3    O79   A    
C176  C177  S    
C93   H135  S    
C152  O115  S    
C187  H121  S    
C250  C300  A    
C185  O126  S    
C156  H47   S    
C166  C167  S    
C16   O65   A    
C248  C297  A    
C7    O74   A    
C8    C90   S    
C52   C79   A    
C41   O124  S    
C172  C173  S    
C245  H209  S    
C199  H148  S    
C131  H276  S    
C71   C201  A    
O1    Zn12  S    
C153  H39   S    
C130  H273  S    
O45   Zn9   S    
C45   O128  S    
C194  H136  S    
C258  H2    S    
C34   O117  S    
C303  O100  A    
C84   C157  A    
C205  H161  S    
C27   C62   A    
C250  H212  S    
C300  C317  A    
C137  C138  S    
C143  H16   S    
C263  C281  A    
C46   C288  S    
C160  C161  S    
C80   C240  S    
C144  H18   S    
C216  H181  S    
C84   C244  S    
C184  H114  S    
O51   Zn8   S    
C163  H63   S    
C301  O122  A    
C93   O87   D    
C31   O114  S    
C67   C228  S    
C239  O30   D    
O79   Zn11  S    
C2    C223  S    
C151  H33   S    
C220  O12   D    
C110  H229  S    
C249  H112  S    
C134  H283  S    
C100  O95   D    
C59   C146  A    
C159  H52   S    
C172  H83   S    
C130  H272  S    
C217  H182  S    
O61   Zn4   S    
C173  H86   S    
O13   Zn6   S    
C5    O52   A    
C306  C317  S    
C28   C63   A    
C169  H76   S    
C103  O97   D    
C116  H239  S    
C153  C154  S    
C303  O13   A    
C127  C128  S    
C95   O90   D    
C88   H90   S    
C106  H218  S    
C38   C73   A    
C192  H130  S    
