data_mof_unit_65568.cif
_audit_creation_date              2013-03-05T15:53:11-0500
_audit_creation_method            fapswitch 2.2
_symmetry_space_group_name_H-M    P1
_symmetry_Int_Tables_number       1
_space_group_crystal_system       orthorhombic
_cell_length_a                    30.166184
_cell_length_b                    30.166192
_cell_length_c                    46.998474
_cell_angle_alpha                 90.0
_cell_angle_beta                  90.0
_cell_angle_gamma                 90.0
_cell_volume                      42768.5595689

loop_
_atom_site_label
_atom_site_type_symbol
_atom_site_description
_atom_site_fract_x
_atom_site_fract_y
_atom_site_fract_z
_atom_type_partial_charge
O1    O     O_R   0.933960 0.462710 0.499980 -0.610466
O2    O     O_R   0.537290 0.933960 0.499980 -0.610469
O3    O     O_R   0.066040 0.537290 0.499980 -0.610466
O4    O     O_R   0.462710 0.066040 0.499980 -0.610469
O5    O     O_R   0.933960 0.537290 0.500020 -0.610471
O6    O     O_R   0.537290 0.066040 0.500020 -0.610464
O7    O     O_R   0.066040 0.462710 0.500020 -0.610471
O8    O     O_R   0.462710 0.933960 0.500020 -0.610463
O9    O     O_R   0.433960 0.962710 0.999980 -0.610476
O10   O     O_R   0.037290 0.433960 0.999980 -0.610469
O11   O     O_R   0.566040 0.037290 0.999980 -0.610477
O12   O     O_R   0.962710 0.566040 0.999980 -0.610468
O13   O     O_R   0.433960 0.037290 0.000020 -0.610471
O14   O     O_R   0.037290 0.566040 0.000020 -0.610474
O15   O     O_R   0.566040 0.962710 0.000020 -0.610470
O16   O     O_R   0.962710 0.433960 0.000020 -0.610473
C1    C     C_R   0.913425 0.500000 0.500000 0.922692
C2    C     C_R   0.500000 0.913425 0.500000 0.922676
C3    C     C_R   0.086575 0.500000 0.500000 0.922691
C4    C     C_R   0.500000 0.086575 0.500000 0.922675
C5    C     C_R   0.413425 0.000000 0.000000 0.922724
C6    C     C_R   0.000000 0.413425 1.000000 0.922707
C7    C     C_R   0.586575 1.000000 0.000000 0.922724
C8    C     C_R   0.000000 0.586575 1.000000 0.922706
O17   O     O_R   0.000060 0.462720 0.541890 -0.594165
O18   O     O_R   0.537280 0.000060 0.541890 -0.594157
O19   O     O_R   0.999940 0.537280 0.541890 -0.594166
O20   O     O_R   0.462720 0.999940 0.541890 -0.594156
O21   O     O_R   0.000060 0.537280 0.458110 -0.594160
O22   O     O_R   0.537280 0.999940 0.458110 -0.594162
O23   O     O_R   0.999940 0.462720 0.458110 -0.594160
O24   O     O_R   0.462720 0.000060 0.458110 -0.594161
O25   O     O_R   0.500060 0.962720 0.041890 -0.594169
O26   O     O_R   0.037280 0.500060 0.041890 -0.594171
O27   O     O_R   0.499940 0.037280 0.041890 -0.594169
O28   O     O_R   0.962720 0.499940 0.041890 -0.594170
O29   O     O_R   0.500060 0.037280 0.958110 -0.594175
O30   O     O_R   0.037280 0.499940 0.958110 -0.594165
O31   O     O_R   0.499940 0.962720 0.958110 -0.594175
O32   O     O_R   0.962720 0.500060 0.958110 -0.594165
C9    C     C_R   0.000000 0.500000 0.555251 0.957355
C10   C     C_R   0.500000 1.000000 0.555251 0.957326
C11   C     C_R   0.000000 0.500000 0.444749 0.957337
C12   C     C_R   0.500000 1.000000 0.444749 0.957345
C13   C     C_R   0.500000 0.000000 0.055251 0.957359
C14   C     C_R   0.000000 0.500000 0.055251 0.957367
C15   C     C_R   0.500000 1.000000 0.944749 0.957380
C16   C     C_R   0.000000 0.500000 0.944749 0.957349
Zn1   Zn    Zn3+2 0.000000 0.450210 0.500000 1.066902
Zn2   Zn    Zn3+2 0.549790 0.000000 0.500000 1.066909
Zn3   Zn    Zn3+2 0.000000 0.549790 0.500000 1.066902
Zn4   Zn    Zn3+2 0.450210 0.000000 0.500000 1.066910
Zn5   Zn    Zn3+2 0.500000 0.950210 0.000000 1.066886
Zn6   Zn    Zn3+2 0.049790 0.500000 0.000000 1.066894
Zn7   Zn    Zn3+2 0.500000 0.049790 0.000000 1.066886
Zn8   Zn    Zn3+2 0.950210 0.500000 0.000000 1.066894
C17   C     C_R   0.027992 0.528057 0.809753 0.532168
C18   C     C_R   0.528022 0.971972 0.809754 0.532172
C19   C     C_R   0.972007 0.471943 0.809753 0.532169
C20   C     C_R   0.471978 0.028028 0.809754 0.532172
C21   C     C_R   0.971987 0.528037 0.190246 0.532170
C22   C     C_R   0.528043 0.028006 0.190246 0.532170
C23   C     C_R   0.028013 0.471963 0.190246 0.532171
C24   C     C_R   0.471957 0.971994 0.190246 0.532170
C25   C     C_R   0.527986 0.028064 0.309753 0.532167
C26   C     C_R   0.971929 0.527979 0.309753 0.532167
C27   C     C_R   0.472014 0.971936 0.309753 0.532168
C28   C     C_R   0.028071 0.472021 0.309753 0.532167
C29   C     C_R   0.527965 0.971915 0.690248 0.532165
C30   C     C_R   0.028050 0.528000 0.690246 0.532170
C31   C     C_R   0.472035 0.028085 0.690248 0.532164
C32   C     C_R   0.971950 0.472000 0.690246 0.532169
N1    N     N_R   1.000000 0.500000 0.823933 -0.345943
N2    N     N_R   0.500000 0.000000 0.823934 -0.345952
N3    N     N_R   0.000000 0.500000 0.176066 -0.345948
N4    N     N_R   0.500000 1.000000 0.176067 -0.345946
N5    N     N_R   0.500000 0.000000 0.323933 -0.345942
N6    N     N_R   0.000000 0.500000 0.323932 -0.345940
N7    N     N_R   0.500000 1.000000 0.676068 -0.345937
N8    N     N_R   0.000000 0.500000 0.676067 -0.345945
C33   C     C_R   0.971426 0.471339 0.779951 -0.028320
C34   C     C_R   0.471376 0.028611 0.779952 -0.028322
C35   C     C_R   0.028574 0.528661 0.779951 -0.028319
C36   C     C_R   0.528624 0.971389 0.779952 -0.028322
C37   C     C_R   0.028596 0.471360 0.220048 -0.028321
C38   C     C_R   0.471353 0.971411 0.220048 -0.028321
C39   C     C_R   0.971404 0.528639 0.220048 -0.028321
C40   C     C_R   0.528646 0.028589 0.220048 -0.028320
C41   C     C_R   0.471432 0.971333 0.279951 -0.028318
C42   C     C_R   0.028674 0.471439 0.279951 -0.028317
C43   C     C_R   0.528568 0.028667 0.279951 -0.028318
C44   C     C_R   0.971326 0.528560 0.279951 -0.028317
C45   C     C_R   0.471454 0.028689 0.720050 -0.028314
C46   C     C_R   0.971347 0.471418 0.720048 -0.028319
C47   C     C_R   0.528546 0.971310 0.720050 -0.028315
C48   C     C_R   0.028653 0.528582 0.720048 -0.028320
C49   C     C_R   1.000000 0.500000 0.764993 -0.014251
C50   C     C_R   0.500000 0.000000 0.764995 -0.014252
C51   C     C_R   0.000000 0.500000 0.235006 -0.014251
C52   C     C_R   0.500000 0.000000 0.235006 -0.014251
C53   C     C_R   0.500000 0.000000 0.264993 -0.014252
C54   C     C_R   0.000000 0.500000 0.264993 -0.014252
C55   C     C_R   0.500000 1.000000 0.735007 -0.014253
C56   C     C_R   0.000000 0.500000 0.735006 -0.014251
C57   C     C_R   0.943016 0.442954 0.764832 -0.135054
C58   C     C_R   0.443026 0.057057 0.764833 -0.135054
C59   C     C_R   0.056984 0.557046 0.764832 -0.135053
C60   C     C_R   0.556974 0.942943 0.764833 -0.135053
C61   C     C_R   0.057027 0.442996 0.235167 -0.135053
C62   C     C_R   0.442982 0.942987 0.235167 -0.135054
C63   C     C_R   0.942973 0.557004 0.235167 -0.135053
C64   C     C_R   0.557018 0.057013 0.235167 -0.135054
C65   C     C_R   0.443029 0.942940 0.264832 -0.135052
C66   C     C_R   0.057074 0.443043 0.264832 -0.135052
C67   C     C_R   0.556971 0.057060 0.264832 -0.135052
C68   C     C_R   0.942926 0.556957 0.264832 -0.135052
C69   C     C_R   0.443073 0.057104 0.735169 -0.135051
C70   C     C_R   0.942968 0.443001 0.735167 -0.135053
C71   C     C_R   0.556927 0.942896 0.735169 -0.135051
C72   C     C_R   0.057031 0.556999 0.735167 -0.135053
O33   O     O_2   0.055336 0.555021 0.824487 -0.529818
O34   O     O_2   0.554951 0.944595 0.824488 -0.529807
O35   O     O_2   0.944664 0.444979 0.824487 -0.529819
O36   O     O_2   0.445049 0.055405 0.824488 -0.529807
O37   O     O_2   0.944624 0.554980 0.175512 -0.529812
O38   O     O_2   0.554993 0.055363 0.175512 -0.529814
O39   O     O_2   0.055376 0.445020 0.175512 -0.529812
O40   O     O_2   0.445006 0.944637 0.175512 -0.529814
O41   O     O_2   0.555323 0.055033 0.324487 -0.529820
O42   O     O_2   0.944953 0.555310 0.324487 -0.529822
O43   O     O_2   0.444677 0.944967 0.324487 -0.529821
O44   O     O_2   0.055047 0.444690 0.324487 -0.529822
O45   O     O_2   0.555282 0.944924 0.675514 -0.529827
O46   O     O_2   0.055006 0.555350 0.675512 -0.529816
O47   O     O_2   0.444718 0.055075 0.675514 -0.529826
O48   O     O_2   0.944994 0.444650 0.675512 -0.529816
H1    H     H_    0.920739 0.420637 0.775854 0.200777
H2    H     H_    0.420737 0.079362 0.775855 0.200776
H3    H     H_    0.079261 0.579363 0.775854 0.200777
H4    H     H_    0.579263 0.920638 0.775855 0.200775
H5    H     H_    0.079320 0.420696 0.224145 0.200776
H6    H     H_    0.420676 0.920700 0.224146 0.200777
H7    H     H_    0.920680 0.579304 0.224145 0.200776
H8    H     H_    0.579324 0.079300 0.224146 0.200776
H9    H     H_    0.420758 0.920618 0.275853 0.200777
H10   H     H_    0.079402 0.420778 0.275853 0.200777
H11   H     H_    0.579242 0.079382 0.275853 0.200777
H12   H     H_    0.920598 0.579222 0.275853 0.200777
H13   H     H_    0.420819 0.079444 0.724147 0.200777
H14   H     H_    0.920658 0.420718 0.724146 0.200777
H15   H     H_    0.579181 0.920556 0.724147 0.200777
H16   H     H_    0.079342 0.579281 0.724146 0.200777
O49   O     O_R   0.500030 0.566120 0.523650 -0.581083
O50   O     O_R   0.433880 0.500030 0.523650 -0.581082
O51   O     O_R   0.499970 0.433880 0.523650 -0.581083
O52   O     O_R   0.566120 0.499970 0.523650 -0.581083
O53   O     O_R   0.500030 0.433880 0.476350 -0.581082
O54   O     O_R   0.433880 0.499970 0.476350 -0.581082
O55   O     O_R   0.499970 0.566120 0.476350 -0.581082
O56   O     O_R   0.566120 0.500030 0.476350 -0.581082
O57   O     O_R   0.000030 0.066120 0.023650 -0.581083
O58   O     O_R   0.933880 0.000030 0.023650 -0.581082
O59   O     O_R   0.999970 0.933880 0.023650 -0.581083
O60   O     O_R   0.066120 0.999970 0.023650 -0.581083
O61   O     O_R   0.000030 0.933880 0.976350 -0.581082
O62   O     O_R   0.933880 0.999970 0.976350 -0.581081
O63   O     O_R   0.999970 0.066120 0.976350 -0.581082
O64   O     O_R   0.066120 0.000030 0.976350 -0.581082
C73   C     C_R   0.963941 0.517752 0.630819 -0.108349
C74   C     C_R   0.482223 0.963953 0.630820 -0.108351
C75   C     C_R   0.036059 0.482248 0.630819 -0.108349
C76   C     C_R   0.517777 0.036047 0.630820 -0.108351
C77   C     C_R   0.963948 0.482234 0.369180 -0.108349
C78   C     C_R   0.482239 0.036054 0.369180 -0.108349
C79   C     C_R   0.036052 0.517766 0.369180 -0.108349
C80   C     C_R   0.517761 0.963946 0.369180 -0.108349
C81   C     C_R   0.463939 0.017747 0.130819 -0.108348
C82   C     C_R   0.982258 0.463936 0.130819 -0.108348
C83   C     C_R   0.536061 0.982253 0.130819 -0.108348
C84   C     C_R   0.017742 0.536064 0.130819 -0.108347
C85   C     C_R   0.463931 0.982270 0.869181 -0.108345
C86   C     C_R   0.982243 0.536057 0.869180 -0.108349
C87   C     C_R   0.536069 0.017730 0.869181 -0.108345
C88   C     C_R   0.017757 0.463943 0.869180 -0.108349
H17   H     H_    0.936070 0.531355 0.642427 0.184492
H18   H     H_    0.468601 0.936091 0.642428 0.184509
H19   H     H_    0.063930 0.468645 0.642427 0.184492
H20   H     H_    0.531399 0.063908 0.642428 0.184509
H21   H     H_    0.936082 0.468619 0.357573 0.184502
H22   H     H_    0.468628 0.063922 0.357573 0.184499
H23   H     H_    0.063918 0.531381 0.357573 0.184502
H24   H     H_    0.531372 0.936078 0.357573 0.184499
H25   H     H_    0.436066 0.031347 0.142427 0.184489
H26   H     H_    0.968662 0.436061 0.142427 0.184486
H27   H     H_    0.563934 0.968653 0.142427 0.184490
H28   H     H_    0.031338 0.563939 0.142427 0.184486
H29   H     H_    0.436051 0.968682 0.857573 0.184480
H30   H     H_    0.968636 0.563926 0.857573 0.184496
H31   H     H_    0.563949 0.031317 0.857573 0.184480
H32   H     H_    0.031364 0.436074 0.857573 0.184496
C89   C     C_R   0.963738 0.517920 0.601176 0.200683
C90   C     C_R   0.482055 0.963750 0.601176 0.200692
C91   C     C_R   0.036262 0.482080 0.601176 0.200683
C92   C     C_R   0.517945 0.036250 0.601176 0.200692
C93   C     C_R   0.963745 0.482066 0.398824 0.200688
C94   C     C_R   0.482070 0.036258 0.398824 0.200686
C95   C     C_R   0.036255 0.517934 0.398824 0.200688
C96   C     C_R   0.517930 0.963742 0.398824 0.200687
C97   C     C_R   0.463735 0.017915 0.101175 0.200681
C98   C     C_R   0.982089 0.463733 0.101175 0.200679
C99   C     C_R   0.536265 0.982085 0.101175 0.200680
C100  C     C_R   0.017911 0.536267 0.101175 0.200679
C101  C     C_R   0.463727 0.982101 0.898825 0.200674
C102  C     C_R   0.982075 0.536260 0.898824 0.200684
C103  C     C_R   0.536273 0.017899 0.898825 0.200673
C104  C     C_R   0.017925 0.463740 0.898824 0.200684
C105  C     C_R   0.000000 0.500000 0.586222 -0.174464
C106  C     C_R   0.500000 1.000000 0.586222 -0.174501
C107  C     C_R   0.000000 0.500000 0.413778 -0.174485
C108  C     C_R   0.500000 0.000000 0.413778 -0.174479
C109  C     C_R   0.500000 1.000000 0.086222 -0.174456
C110  C     C_R   0.000000 0.500000 0.086222 -0.174450
C111  C     C_R   0.500000 1.000000 0.913779 -0.174433
C112  C     C_R   1.000000 0.500000 0.913778 -0.174470
C113  C     C_R   0.000000 0.500000 0.645641 0.196738
C114  C     C_R   0.500000 1.000000 0.645642 0.196713
C115  C     C_R   0.000000 0.500000 0.354359 0.196723
C116  C     C_R   0.500000 0.000000 0.354359 0.196729
C117  C     C_R   0.500000 0.000000 0.145641 0.196743
C118  C     C_R   0.000000 0.500000 0.145641 0.196748
C119  C     C_R   0.500000 1.000000 0.854360 0.196755
C120  C     C_R   1.000000 0.500000 0.854359 0.196734
C121  C     C_R   0.657889 0.527883 0.480930 0.242044
C122  C     C_R   0.472117 0.657889 0.480930 0.242044
C123  C     C_R   0.342111 0.472117 0.480930 0.242045
C124  C     C_R   0.527883 0.342111 0.480930 0.242044
C125  C     C_R   0.657889 0.472117 0.519070 0.242044
C126  C     C_R   0.472117 0.342111 0.519070 0.242043
C127  C     C_R   0.342111 0.527882 0.519070 0.242044
C128  C     C_R   0.527883 0.657889 0.519070 0.242044
C129  C     C_R   0.157889 0.027882 0.980929 0.242045
C130  C     C_R   0.972117 0.157889 0.980930 0.242044
C131  C     C_R   0.842111 0.972118 0.980929 0.242045
C132  C     C_R   0.027883 0.842111 0.980930 0.242044
C133  C     C_R   0.157889 0.972117 0.019070 0.242044
C134  C     C_R   0.972117 0.842111 0.019070 0.242044
C135  C     C_R   0.842111 0.027882 0.019070 0.242043
C136  C     C_R   0.027882 0.157889 0.019070 0.242043
C137  C     C_R   0.635004 0.500000 0.500000 -0.260249
C138  C     C_R   0.500000 0.635004 0.500000 -0.260249
C139  C     C_R   0.364996 0.500000 0.500000 -0.260249
C140  C     C_R   0.500000 0.364996 0.500000 -0.260249
C141  C     C_R   0.135004 1.000000 0.000000 -0.260249
C142  C     C_R   1.000000 0.135004 0.000000 -0.260249
C143  C     C_R   0.864996 0.000000 1.000000 -0.260249
C144  C     C_R   0.000000 0.864996 0.000000 -0.260250
C145  C     C_R   0.704267 0.471212 0.518572 0.001061
C146  C     C_R   0.528788 0.704267 0.518571 0.001061
C147  C     C_R   0.295733 0.528788 0.518572 0.001061
C148  C     C_R   0.471212 0.295733 0.518571 0.001061
C149  C     C_R   0.704267 0.528788 0.481428 0.001061
C150  C     C_R   0.528788 0.295733 0.481428 0.001061
C151  C     C_R   0.295733 0.471212 0.481428 0.001061
C152  C     C_R   0.471212 0.704267 0.481428 0.001061
C153  C     C_R   0.204267 0.971212 0.018572 0.001062
C154  C     C_R   0.028788 0.204267 0.018572 0.001062
C155  C     C_R   0.795733 0.028788 0.018572 0.001062
C156  C     C_R   0.971212 0.795733 0.018572 0.001061
C157  C     C_R   0.204267 0.028787 0.981428 0.001061
C158  C     C_R   0.028788 0.795733 0.981428 0.001061
C159  C     C_R   0.795732 0.971212 0.981428 0.001061
C160  C     C_R   0.971212 0.204267 0.981428 0.001061
C161  C     C_R   0.727350 0.500000 0.500000 -0.017593
C162  C     C_R   0.500000 0.727350 0.500000 -0.017594
C163  C     C_R   0.272649 0.500000 0.500000 -0.017593
C164  C     C_R   0.500000 0.272650 0.500000 -0.017594
C165  C     C_R   0.227350 1.000000 1.000000 -0.017592
C166  C     C_R   1.000000 0.227350 0.000000 -0.017593
C167  C     C_R   0.772650 0.000000 1.000000 -0.017592
C168  C     C_R   0.000000 0.772650 0.000000 -0.017593
C169  C     C_R   0.728132 0.441595 0.535936 -0.099441
C170  C     C_R   0.558406 0.728132 0.535936 -0.099441
C171  C     C_R   0.271868 0.558405 0.535936 -0.099442
C172  C     C_R   0.441594 0.271869 0.535936 -0.099441
C173  C     C_R   0.728132 0.558405 0.464064 -0.099442
C174  C     C_R   0.558406 0.271868 0.464064 -0.099441
C175  C     C_R   0.271868 0.441595 0.464064 -0.099442
C176  C     C_R   0.441594 0.728132 0.464064 -0.099441
C177  C     C_R   0.228131 0.941595 0.035937 -0.099444
C178  C     C_R   0.058405 0.228131 0.035936 -0.099443
C179  C     C_R   0.771868 0.058405 0.035937 -0.099444
C180  C     C_R   0.941595 0.771868 0.035936 -0.099443
C181  C     C_R   0.228131 0.058405 0.964063 -0.099444
C182  C     C_R   0.058405 0.771868 0.964064 -0.099443
C183  C     C_R   0.771868 0.941595 0.964063 -0.099444
C184  C     C_R   0.941595 0.228131 0.964064 -0.099442
C185  C     C_R   0.774146 0.440944 0.535331 -0.192536
C186  C     C_R   0.559056 0.774146 0.535331 -0.192545
C187  C     C_R   0.225854 0.559056 0.535331 -0.192536
C188  C     C_R   0.440944 0.225854 0.535331 -0.192545
C189  C     C_R   0.774146 0.559056 0.464669 -0.192541
C190  C     C_R   0.559056 0.225854 0.464669 -0.192540
C191  C     C_R   0.225854 0.440944 0.464669 -0.192541
C192  C     C_R   0.440944 0.774146 0.464669 -0.192540
C193  C     C_R   0.274146 0.940944 0.035331 -0.192535
C194  C     C_R   0.059056 0.274146 0.035331 -0.192532
C195  C     C_R   0.725854 0.059055 0.035331 -0.192534
C196  C     C_R   0.940944 0.725854 0.035331 -0.192532
C197  C     C_R   0.274146 0.059055 0.964669 -0.192528
C198  C     C_R   0.059056 0.725854 0.964669 -0.192538
C199  C     C_R   0.725854 0.940945 0.964669 -0.192528
C200  C     C_R   0.940944 0.274146 0.964669 -0.192538
C201  C     C_R   0.797121 0.470085 0.517604 0.114898
C202  C     C_R   0.529915 0.797121 0.517603 0.114902
C203  C     C_R   0.202879 0.529914 0.517603 0.114898
C204  C     C_R   0.470085 0.202879 0.517603 0.114902
C205  C     C_R   0.797121 0.529914 0.482396 0.114902
C206  C     C_R   0.529915 0.202879 0.482397 0.114898
C207  C     C_R   0.202879 0.470085 0.482396 0.114901
C208  C     C_R   0.470085 0.797121 0.482397 0.114898
C209  C     C_R   0.297121 0.970086 0.017604 0.114900
C210  C     C_R   0.029915 0.297121 0.017604 0.114898
C211  C     C_R   0.702879 0.029914 0.017604 0.114900
C212  C     C_R   0.970085 0.702879 0.017604 0.114897
C213  C     C_R   0.297121 0.029914 0.982396 0.114896
C214  C     C_R   0.029915 0.702879 0.982396 0.114901
C215  C     C_R   0.702879 0.970086 0.982396 0.114896
C216  C     C_R   0.970085 0.297121 0.982396 0.114901
C217  C     C_R   0.773824 0.500000 0.500000 0.112878
C218  C     C_R   0.500000 0.773824 0.500000 0.112880
C219  C     C_R   0.226176 0.500000 0.500000 0.112878
C220  C     C_R   0.500000 0.226176 0.500000 0.112880
C221  C     C_R   0.273824 1.000000 1.000000 0.112875
C222  C     C_R   1.000000 0.273824 0.000000 0.112877
C223  C     C_R   0.726176 0.000000 1.000000 0.112875
C224  C     C_R   0.000000 0.726176 0.000000 0.112877
C225  C     C_R   0.843151 0.469845 0.517160 -0.198443
C226  C     C_R   0.530155 0.843151 0.517159 -0.198477
C227  C     C_R   0.156849 0.530155 0.517160 -0.198443
C228  C     C_R   0.469845 0.156849 0.517159 -0.198477
C229  C     C_R   0.843151 0.530155 0.482840 -0.198468
C230  C     C_R   0.530155 0.156849 0.482840 -0.198452
C231  C     C_R   0.156849 0.469845 0.482840 -0.198467
C232  C     C_R   0.469845 0.843151 0.482840 -0.198451
C233  C     C_R   0.343151 0.969845 0.017160 -0.198450
C234  C     C_R   0.030155 0.343151 0.017160 -0.198435
C235  C     C_R   0.656849 0.030155 0.017160 -0.198450
C236  C     C_R   0.969845 0.656849 0.017160 -0.198434
C237  C     C_R   0.343151 0.030155 0.982840 -0.198423
C238  C     C_R   0.030155 0.656849 0.982840 -0.198460
C239  C     C_R   0.656849 0.969845 0.982840 -0.198423
C240  C     C_R   0.969845 0.343151 0.982840 -0.198459
C241  C     C_R   0.865815 0.500000 0.500000 -0.041462
C242  C     C_R   0.500000 0.865815 0.500000 -0.041463
C243  C     C_R   0.134185 0.500000 0.500000 -0.041461
C244  C     C_R   0.500000 0.134184 0.500000 -0.041463
C245  C     C_R   0.365815 0.000000 0.000000 -0.041458
C246  C     C_R   0.000000 0.365815 1.000000 -0.041460
C247  C     C_R   0.634185 1.000000 0.000000 -0.041458
C248  C     C_R   0.000000 0.634184 1.000000 -0.041460
H33   H     H_    0.711530 0.418353 0.549858 0.202535
H34   H     H_    0.581647 0.711530 0.549858 0.202534
H35   H     H_    0.288470 0.581646 0.549858 0.202535
H36   H     H_    0.418353 0.288470 0.549858 0.202535
H37   H     H_    0.711530 0.581646 0.450142 0.202535
H38   H     H_    0.581647 0.288470 0.450142 0.202535
H39   H     H_    0.288470 0.418353 0.450142 0.202535
H40   H     H_    0.418353 0.711530 0.450142 0.202535
H41   H     H_    0.211530 0.918354 0.049859 0.202535
H42   H     H_    0.081647 0.211530 0.049858 0.202535
H43   H     H_    0.788470 0.081646 0.049859 0.202535
H44   H     H_    0.918353 0.788470 0.049858 0.202535
H45   H     H_    0.211530 0.081646 0.950141 0.202535
H46   H     H_    0.081647 0.788470 0.950142 0.202535
H47   H     H_    0.788470 0.918354 0.950141 0.202535
H48   H     H_    0.918353 0.211530 0.950142 0.202534
H49   H     H_    0.791775 0.417755 0.548834 0.167819
H50   H     H_    0.582246 0.791775 0.548833 0.167816
H51   H     H_    0.208224 0.582245 0.548834 0.167819
H52   H     H_    0.417754 0.208224 0.548833 0.167816
H53   H     H_    0.791775 0.582245 0.451166 0.167817
H54   H     H_    0.582245 0.208224 0.451167 0.167818
H55   H     H_    0.208224 0.417755 0.451166 0.167817
H56   H     H_    0.417754 0.791775 0.451167 0.167818
H57   H     H_    0.291776 0.917755 0.048834 0.167819
H58   H     H_    0.082245 0.291775 0.048834 0.167819
H59   H     H_    0.708224 0.082244 0.048834 0.167819
H60   H     H_    0.917755 0.708224 0.048834 0.167819
H61   H     H_    0.291776 0.082244 0.951166 0.167821
H62   H     H_    0.082245 0.708224 0.951166 0.167818
H63   H     H_    0.708224 0.917756 0.951166 0.167821
H64   H     H_    0.917755 0.291775 0.951166 0.167818
H65   H     H_    0.861430 0.446913 0.530533 0.165399
H66   H     H_    0.553087 0.861430 0.530533 0.165385
H67   H     H_    0.138570 0.553087 0.530533 0.165399
H68   H     H_    0.446913 0.138570 0.530533 0.165386
H69   H     H_    0.861430 0.553087 0.469467 0.165391
H70   H     H_    0.553087 0.138570 0.469467 0.165394
H71   H     H_    0.138570 0.446913 0.469467 0.165391
H72   H     H_    0.446913 0.861430 0.469467 0.165394
H73   H     H_    0.361430 0.946913 0.030533 0.165401
H74   H     H_    0.053087 0.361430 0.030533 0.165404
H75   H     H_    0.638570 0.053087 0.030533 0.165401
H76   H     H_    0.946913 0.638570 0.030533 0.165404
H77   H     H_    0.361430 0.053087 0.969467 0.165410
H78   H     H_    0.053087 0.638570 0.969467 0.165396
H79   H     H_    0.638569 0.946913 0.969467 0.165410
H80   H     H_    0.946913 0.361430 0.969467 0.165396
C249  C     C_R   0.500000 0.586946 0.500000 1.009516
C250  C     C_R   0.413054 0.500000 0.500000 1.009517
C251  C     C_R   0.500000 0.413054 0.500000 1.009517
C252  C     C_R   0.586946 0.500000 0.500000 1.009516
C253  C     C_R   0.000000 0.086946 0.000000 1.009516
C254  C     C_R   0.913054 1.000000 0.000000 1.009517
C255  C     C_R   0.000000 0.913054 0.000000 1.009517
C256  C     C_R   0.086946 0.000000 0.000000 1.009516
Zn9   Zn    Zn3+2 0.500000 0.500000 0.531580 1.216708
Zn10  Zn    Zn3+2 0.500000 0.500000 0.468420 1.216709
Zn11  Zn    Zn3+2 0.000000 1.000000 0.031580 1.216709
Zn12  Zn    Zn3+2 0.000000 1.000000 0.968420 1.216710
Br1   Br    Br    0.912589 0.541323 0.582021 -0.461091
Br2   Br    Br    0.458620 0.912615 0.582022 -0.461031
Br3   Br    Br    0.087411 0.458677 0.582021 -0.461092
Br4   Br    Br    0.541380 0.087385 0.582022 -0.461031
Br5   Br    Br    0.912604 0.458644 0.417978 -0.461057
Br6   Br    Br    0.458655 0.087401 0.417979 -0.461067
Br7   Br    Br    0.087396 0.541356 0.417978 -0.461058
Br8   Br    Br    0.541345 0.912599 0.417979 -0.461067
Br9   Br    Br    0.412584 0.041312 0.082020 -0.461107
Br10  Br    Br    0.958699 0.412579 0.082020 -0.461116
Br11  Br    Br    0.587416 0.958687 0.082020 -0.461107
Br12  Br    Br    0.041301 0.587421 0.082020 -0.461117
Br13  Br    Br    0.412567 0.958725 0.917980 -0.461145
Br14  Br    Br    0.958665 0.587405 0.917979 -0.461082
Br15  Br    Br    0.587433 0.041275 0.917980 -0.461146
Br16  Br    Br    0.041335 0.412594 0.917979 -0.461082
N9    N     N_R   0.633973 0.555709 0.461421 0.211030
O65   O     O_R   0.636804 0.548735 0.434163 -0.340222
O66   O     O_R   0.608566 0.587286 0.470857 -0.354148
N10   N     N_R   0.444290 0.633973 0.461421 0.211030
O67   O     O_R   0.412714 0.608566 0.470857 -0.354148
O68   O     O_R   0.451264 0.636804 0.434163 -0.340222
N11   N     N_R   0.366027 0.444290 0.461421 0.211030
O69   O     O_R   0.363196 0.451265 0.434163 -0.340222
O70   O     O_R   0.391434 0.412714 0.470857 -0.354147
N12   N     N_R   0.555710 0.366027 0.461421 0.211030
O71   O     O_R   0.587286 0.391434 0.470857 -0.354148
O72   O     O_R   0.548736 0.363196 0.434163 -0.340222
N13   N     N_R   0.633973 0.444290 0.538579 0.211030
O73   O     O_R   0.608566 0.412714 0.529143 -0.354147
O74   O     O_R   0.636804 0.451265 0.565837 -0.340222
N14   N     N_R   0.444290 0.366027 0.538579 0.211030
O75   O     O_R   0.451264 0.363196 0.565837 -0.340223
O76   O     O_R   0.412714 0.391434 0.529142 -0.354148
N15   N     N_R   0.366027 0.555709 0.538579 0.211030
O77   O     O_R   0.391434 0.587286 0.529143 -0.354147
O78   O     O_R   0.363196 0.548735 0.565837 -0.340222
N16   N     N_R   0.555710 0.633973 0.538579 0.211030
O79   O     O_R   0.548736 0.636804 0.565837 -0.340223
O80   O     O_R   0.587286 0.608566 0.529142 -0.354149
N17   N     N_R   0.133973 0.055709 0.961421 0.211030
O81   O     O_R   0.136804 0.048735 0.934163 -0.340221
O82   O     O_R   0.108566 0.087286 0.970857 -0.354148
N18   N     N_R   0.944290 0.133973 0.961421 0.211030
O83   O     O_R   0.912714 0.108566 0.970857 -0.354148
O84   O     O_R   0.951264 0.136804 0.934163 -0.340222
N19   N     N_R   0.866027 0.944291 0.961421 0.211030
O85   O     O_R   0.863196 0.951265 0.934163 -0.340221
O86   O     O_R   0.891434 0.912714 0.970857 -0.354147
N20   N     N_R   0.055710 0.866027 0.961421 0.211030
O87   O     O_R   0.087286 0.891434 0.970857 -0.354148
O88   O     O_R   0.048736 0.863196 0.934163 -0.340222
N21   N     N_R   0.133973 0.944291 0.038579 0.211030
O89   O     O_R   0.108566 0.912714 0.029143 -0.354148
O90   O     O_R   0.136804 0.951265 0.065837 -0.340222
N22   N     N_R   0.944290 0.866027 0.038579 0.211030
O91   O     O_R   0.951264 0.863196 0.065837 -0.340222
O92   O     O_R   0.912714 0.891434 0.029142 -0.354148
N23   N     N_R   0.866027 0.055709 0.038579 0.211031
O93   O     O_R   0.891434 0.087286 0.029143 -0.354148
O94   O     O_R   0.863196 0.048735 0.065837 -0.340222
N24   N     N_R   0.055710 0.133973 0.038579 0.211030
O95   O     O_R   0.048736 0.136804 0.065837 -0.340221
O96   O     O_R   0.087286 0.108566 0.029143 -0.354148

loop_
_geom_bond_atom_site_label_1
_geom_bond_atom_site_label_2
_geom_bond_distance
_ccdc_geom_bond_type
C236  H76   1.085201 S    
O25   C13   1.288031 A    
C237  H77   1.085199 S    
C79   C95   1.393241 A    
C206  C220  1.411641 A    
C170  H34   1.081884 S    
N22   O92   1.300543 A    
C83   H27   1.083006 S    
N9    O65   1.301042 A    
C154  C166  1.414521 A    
C128  C138  1.409740 A    
C20   N2    1.368768 A    
C124  N12   1.437296 S    
C193  C209  1.395449 A    
C132  C158  1.399522 A    
C121  C149  1.399522 A    
C38   C62   1.404502 A    
O57   C253  1.276772 A    
O18   Zn2   2.004605 S    
O51   C251  1.276772 A    
C177  C193  1.388509 A    
C131  C143  1.409740 A    
C164  C220  1.401938 A    
C89   Br1   1.920824 S    
C185  H49   1.083930 S    
C160  C184  1.408023 A    
O24   Zn4   2.004609 S    
O19   Zn3   2.004605 S    
N18   O83   1.300543 A    
N13   O74   1.301042 A    
C28   C42   1.400877 A    
C17   C35   1.400877 A    
O3    C3    1.284187 A    
N8    C113  1.429976 S    
C156  C180  1.408023 A    
C230  C244  1.394750 A    
C19   N1    1.368769 A    
C157  C181  1.408025 A    
C84   H28   1.083007 S    
C44   C54   1.408798 A    
C32   C46   1.400877 A    
C159  C167  1.414518 A    
C46   C56   1.408797 A    
C23   C37   1.400877 A    
C153  C177  1.408023 A    
C34   C50   1.408800 A    
C143  C254  1.449723 S    
C122  C138  1.409743 A    
O62   Zn12  2.029112 S    
C148  C172  1.408023 A    
C149  C173  1.408023 A    
C87   C103  1.393241 A    
C191  C207  1.395448 A    
C41   C65   1.404503 A    
C18   O34   1.349623 S    
C151  C175  1.408023 A    
C91   C105  1.408111 A    
C169  H33   1.081883 S    
O17   C9    1.288031 A    
C22   O38   1.349622 S    
O54   Zn10  2.029112 S    
C47   C71   1.404505 A    
C193  H57   1.083931 S    
C188  H52   1.083932 S    
O27   Zn7   2.004605 S    
C152  C162  1.414520 A    
O16   C6    1.284189 A    
C104  C112  1.408112 A    
C82   H26   1.083008 S    
C171  H35   1.081883 S    
C126  N14   1.437299 S    
C211  C235  1.388731 A    
C178  C194  1.388510 A    
O13   C5    1.284187 A    
C44   C68   1.404503 A    
C88   C120  1.398292 A    
C81   H25   1.083009 S    
C86   C120  1.398291 A    
N19   O86   1.300543 A    
O26   Zn6   2.004605 S    
N24   O96   1.300541 A    
C48   C56   1.408793 A    
C133  C141  1.409739 A    
C201  C225  1.388731 A    
C57   C70   1.394202 A    
C239  H79   1.085198 S    
C103  Br15  1.920822 S    
O27   C13   1.288029 A    
C59   C72   1.394206 A    
C230  H70   1.085200 S    
O31   C15   1.288029 A    
C140  C251  1.449724 S    
C127  C147  1.399522 A    
C25   C43   1.400877 A    
C74   C114  1.398296 A    
C15   C111  1.455585 S    
C160  C166  1.414521 A    
C207  C231  1.388731 A    
C100  Br12  1.920819 S    
C190  H54   1.083931 S    
C133  C153  1.399525 A    
C203  C227  1.388731 A    
N2    C119  1.429966 S    
C29   C47   1.400877 A    
C17   O33   1.349622 S    
C31   C45   1.400881 A    
C2    C242  1.436191 S    
C213  C237  1.388731 A    
C14   C110  1.455594 S    
C128  N16   1.437296 S    
C80   C96   1.393241 A    
C234  H74   1.085197 S    
O9    C5    1.284190 A    
C225  C241  1.394753 A    
C188  C204  1.395451 A    
C199  H63   1.083931 S    
O11   C7    1.284187 A    
C42   C66   1.404503 A    
N11   O70   1.300542 A    
O4    C4    1.284189 A    
C171  C187  1.388509 A    
O5    C1    1.284187 A    
N5    C116  1.429976 S    
C132  C144  1.409741 A    
C165  C221  1.401937 A    
N15   O78   1.301042 A    
O5    Zn3   2.027550 S    
C69   H13   1.083106 S    
C167  C223  1.401937 A    
N16   O80   1.300542 A    
O49   C249  1.276772 A    
C232  H72   1.085200 S    
C8    C248  1.436191 S    
C212  C224  1.411640 A    
C98   C110  1.408109 A    
C240  C246  1.394750 A    
C146  C162  1.414520 A    
C12   C108  1.455604 S    
O53   C251  1.276776 A    
C85   H29   1.083008 S    
C45   C55   1.408795 A    
C31   N7    1.368775 A    
O55   Zn10  2.029109 S    
C202  C218  1.411644 A    
C100  C110  1.408106 A    
N17   O81   1.301042 A    
C209  C233  1.388734 A    
O23   C11   1.288034 A    
C190  C206  1.395449 A    
C173  C189  1.388509 A    
C173  H37   1.081883 S    
C82   C118  1.398289 A    
C22   C40   1.400877 A    
C215  C239  1.388734 A    
C158  C168  1.414519 A    
C99   C109  1.408111 A    
C82   C98   1.393241 A    
C70   H14   1.083103 S    
O58   Zn11  2.029112 S    
O14   C8    1.284187 A    
C84   C100  1.393241 A    
C42   C54   1.408795 A    
C194  H58   1.083934 S    
C36   C60   1.404501 A    
C168  C224  1.401938 A    
C189  H53   1.083932 S    
C200  C216  1.395449 A    
O28   C14   1.288029 A    
O26   C14   1.288026 A    
C83   C117  1.398295 A    
C198  H62   1.083934 S    
O8    Zn4   2.027551 S    
O30   C16   1.288028 A    
C196  C212  1.395450 A    
C63   H7    1.083105 S    
C135  C155  1.399522 A    
C185  C201  1.395450 A    
C122  C152  1.399523 A    
C162  C218  1.401938 A    
C145  C169  1.408026 A    
C226  C242  1.394747 A    
C45   C69   1.404503 A    
C43   C53   1.408796 A    
C134  C156  1.399522 A    
O58   C254  1.276772 A    
C95   C107  1.408109 A    
C47   C55   1.408800 A    
C131  C159  1.399525 A    
C24   N4    1.368768 A    
C80   C116  1.398296 A    
C33   C57   1.404502 A    
O50   C250  1.276772 A    
C209  C221  1.411641 A    
N16   O79   1.301040 A    
C96   Br8   1.920825 S    
C152  C176  1.408024 A    
C90   Br2   1.920827 S    
C229  C241  1.394749 A    
C166  C222  1.401938 A    
C77   C115  1.398293 A    
C204  C220  1.411641 A    
N20   O87   1.300543 A    
C26   C44   1.400877 A    
C16   C112  1.455599 S    
C73   C89   1.393236 A    
O64   C256  1.276776 A    
C92   C106  1.408117 A    
C28   O44   1.349622 S    
C30   C48   1.400877 A    
O16   Zn8   2.027551 S    
C37   C51   1.408796 A    
C158  C182  1.408025 A    
C198  C214  1.395448 A    
C157  C165  1.414520 A    
C154  C178  1.408023 A    
O6    Zn2   2.027548 S    
C179  H43   1.081882 S    
C194  C210  1.395450 A    
C159  C183  1.408026 A    
C61   C66   1.394206 A    
C150  C174  1.408024 A    
C151  C163  1.414524 A    
O59   C255  1.276772 A    
C29   N7    1.368775 A    
C129  C141  1.409742 A    
O60   C256  1.276772 A    
C87   C119  1.398291 A    
O54   C250  1.276776 A    
C18   N2    1.368769 A    
C30   O46   1.349620 S    
O21   Zn3   2.004609 S    
N6    C115  1.429980 S    
O52   C252  1.276772 A    
C93   C107  1.408113 A    
C91   Br3   1.920821 S    
C233  C245  1.394748 A    
C235  C247  1.394747 A    
N14   O75   1.301040 A    
C9    C105  1.455594 S    
N12   O72   1.301040 A    
C137  C252  1.449723 S    
C99   Br11  1.920823 S    
C178  H42   1.081883 S    
O12   C8    1.284189 A    
O1    C1    1.284190 A    
C13   C109  1.455590 S    
C90   C106  1.408120 A    
C163  C219  1.401934 A    
C226  H66   1.085202 S    
C204  C228  1.388731 A    
C134  C144  1.409740 A    
C52   C53   1.409362 A    
C129  C157  1.399522 A    
C176  H40   1.081882 S    
C34   C58   1.404501 A    
C59   H3    1.083103 S    
C79   H23   1.083006 S    
C57   H1    1.083102 S    
C148  C164  1.414520 A    
C123  N11   1.437296 S    
C102  Br14  1.920825 S    
C181  H45   1.081882 S    
C228  H68   1.085202 S    
N18   O84   1.301041 A    
N13   O73   1.300542 A    
O49   Zn9   2.029109 S    
C3    C243  1.436191 S    
C85   C101  1.393241 A    
C128  C146  1.399523 A    
C10   C106  1.455609 S    
C124  C150  1.399523 A    
C203  C219  1.411640 A    
C97   C109  1.408108 A    
N23   O93   1.300541 A    
C212  C236  1.388732 A    
C216  C240  1.388732 A    
C197  C213  1.395450 A    
C186  C202  1.395449 A    
C235  H75   1.085201 S    
C121  C137  1.409742 A    
O10   C6    1.284187 A    
C233  H73   1.085199 S    
C206  C230  1.388732 A    
C186  H50   1.083933 S    
O15   Zn5   2.027547 S    
C93   Br5   1.920826 S    
O55   C249  1.276776 A    
C88   H32   1.083006 S    
C37   C61   1.404500 A    
C202  C226  1.388731 A    
C88   C104  1.393241 A    
C39   C63   1.404498 A    
C50   C55   1.409362 A    
C240  H80   1.085199 S    
C67   H11   1.083105 S    
C79   C115  1.398294 A    
N10   O67   1.300543 A    
C132  N20   1.437296 S    
C65   H9    1.083104 S    
C76   C92   1.393241 A    
C78   C116  1.398293 A    
C234  C246  1.394753 A    
C216  C222  1.411643 A    
C101  Br13  1.920821 S    
C76   C114  1.398297 A    
O59   Zn11  2.029112 S    
O32   Zn8   2.004609 S    
C129  N17   1.437296 S    
C123  C151  1.399522 A    
C147  C163  1.414521 A    
C63   C68   1.394206 A    
C4    C244  1.436191 S    
C38   C52   1.408797 A    
N7    C114  1.429980 S    
C231  C243  1.394750 A    
C6    C246  1.436191 S    
C181  C197  1.388509 A    
C135  N23   1.437299 S    
O22   Zn2   2.004609 S    
C238  C248  1.394750 A    
N15   O77   1.300542 A    
O21   C11   1.288031 A    
C19   O35   1.349618 S    
C60   C71   1.394206 A    
O22   C12   1.288028 A    
O23   Zn1   2.004609 S    
O61   Zn12  2.029112 S    
C24   C38   1.400877 A    
N22   O91   1.301041 A    
C200  H64   1.083932 S    
N9    O66   1.300542 A    
C28   N6    1.368770 A    
C215  C223  1.411640 A    
C26   N6    1.368772 A    
C138  C249  1.449724 S    
C227  C243  1.394751 A    
C134  N22   1.437296 S    
C30   N8    1.368763 A    
C196  H60   1.083934 S    
C231  H71   1.085202 S    
C197  H61   1.083931 S    
C169  C185  1.388509 A    
C68   H12   1.083104 S    
C195  H59   1.083933 S    
C78   C94   1.393241 A    
C94   C108  1.408111 A    
C214  C224  1.411643 A    
O53   Zn10  2.029112 S    
C172  C188  1.388513 A    
O8    C2    1.284189 A    
C228  C244  1.394749 A    
N3    C118  1.429971 S    
O28   Zn8   2.004605 S    
C27   N5    1.368769 A    
C25   N5    1.368769 A    
C205  C217  1.411641 A    
O50   Zn9   2.029112 S    
O30   Zn6   2.004609 S    
C127  N15   1.437297 S    
C74   H18   1.083006 S    
C211  C223  1.411640 A    
C146  C170  1.408024 A    
C40   C52   1.408797 A    
C205  C229  1.388731 A    
C78   H22   1.083005 S    
C174  H38   1.081882 S    
C92   Br4   1.920827 S    
C58   C69   1.394206 A    
C179  C195  1.388509 A    
C73   C113  1.398293 A    
N21   O90   1.301038 A    
C237  C245  1.394750 A    
O11   Zn7   2.027547 S    
O3    Zn3   2.027547 S    
C121  N9    1.437296 S    
C145  C161  1.414519 A    
C174  C190  1.388510 A    
C7    C247  1.436191 S    
C19   C33   1.400877 A    
C122  N10   1.437298 S    
C25   O41   1.349622 S    
C191  H55   1.083932 S    
C238  H78   1.085197 S    
O6    C4    1.284187 A    
C156  C168  1.414521 A    
C97   Br9   1.920825 S    
C155  C179  1.408025 A    
C141  C256  1.449723 S    
C5    C245  1.436191 S    
C81   C117  1.398292 A    
C101  C111  1.408106 A    
C153  C165  1.414521 A    
O31   Zn5   2.004609 S    
C207  C219  1.411643 A    
C172  H36   1.081882 S    
C183  H47   1.081882 S    
C155  C167  1.414523 A    
O57   Zn11  2.029109 S    
C43   C67   1.404502 A    
C136  C142  1.409738 A    
O18   C10   1.288031 A    
C75   C91   1.393236 A    
O17   Zn1   2.004605 S    
C49   C56   1.409362 A    
C32   O48   1.349620 S    
C236  C248  1.394750 A    
C73   H17   1.083006 S    
C40   C64   1.404502 A    
C94   Br6   1.920825 S    
C51   C54   1.409362 A    
C149  C161  1.414522 A    
C32   N8    1.368767 A    
N24   O95   1.301045 A    
C35   C49   1.408796 A    
C95   Br7   1.920825 S    
N4    C117  1.429971 S    
C175  H39   1.081883 S    
C77   C93   1.393241 A    
C232  C242  1.394752 A    
C98   Br10  1.920822 S    
C130  C160  1.399523 A    
O13   Zn7   2.027550 S    
C135  C143  1.409740 A    
C96   C108  1.408113 A    
O60   Zn11  2.029109 S    
C125  N13   1.437297 S    
N12   O71   1.300545 A    
O2    C2    1.284187 A    
O25   Zn5   2.004605 S    
C46   C70   1.404500 A    
C213  C221  1.411640 A    
O61   C255  1.276776 A    
C86   H30   1.083004 S    
C123  C139  1.409742 A    
C227  H67   1.085200 S    
C11   C107  1.455604 S    
C210  C234  1.388731 A    
C21   N3    1.368770 A    
C225  H65   1.085200 S    
C84   C118  1.398291 A    
C23   N3    1.368766 A    
O4    Zn4   2.027548 S    
C41   C53   1.408796 A    
C189  C205  1.395450 A    
C192  C208  1.395451 A    
C76   H20   1.083005 S    
O52   Zn9   2.029109 S    
C104  Br16  1.920825 S    
C31   O47   1.349625 S    
N20   O88   1.301041 A    
C80   H24   1.083005 S    
C136  C154  1.399522 A    
C17   N1    1.368767 A    
C83   C99   1.393241 A    
C27   C41   1.400877 A    
O62   C254  1.276776 A    
C62   H6    1.083105 S    
O20   C10   1.288033 A    
C20   O36   1.349625 S    
O32   C16   1.288031 A    
O7    C3    1.284190 A    
C20   C34   1.400877 A    
C183  C199  1.388512 A    
C75   C113  1.398292 A    
N10   O68   1.301040 A    
C184  C200  1.388510 A    
C126  C148  1.399523 A    
C131  N19   1.437296 S    
O2    Zn2   2.027551 S    
C81   C97   1.393241 A    
C180  C196  1.388510 A    
C187  C203  1.395451 A    
O15   C7    1.284190 A    
C175  C191  1.388509 A    
C161  C217  1.401934 A    
C176  C192  1.388510 A    
C125  C137  1.409739 A    
O63   C253  1.276776 A    
C239  C247  1.394751 A    
C39   C51   1.408800 A    
N17   O82   1.300544 A    
C71   H15   1.083106 S    
C210  C222  1.411640 A    
C72   H16   1.083103 S    
C127  C139  1.409739 A    
C136  N24   1.437298 S    
C66   H10   1.083104 S    
N14   O76   1.300545 A    
C142  C253  1.449724 S    
C229  H69   1.085200 S    
C60   H4    1.083109 S    
C24   O40   1.349622 S    
N21   O89   1.300544 A    
C214  C238  1.388731 A    
C1    C241  1.436191 S    
C87   H31   1.083006 S    
O29   Zn7   2.004609 S    
C18   C36   1.400877 A    
O7    Zn1   2.027547 S    
C192  H56   1.083929 S    
C124  C140  1.409740 A    
O19   C9    1.288029 A    
N19   O85   1.301042 A    
C182  C198  1.388510 A    
C74   C90   1.393241 A    
O24   C12   1.288031 A    
C184  H48   1.081885 S    
C195  C211  1.395450 A    
O51   Zn9   2.029112 S    
C62   C65   1.394202 A    
O12   Zn8   2.027548 S    
C102  C112  1.408108 A    
O14   Zn6   2.027548 S    
C58   H2    1.083109 S    
C130  N18   1.437296 S    
C201  C217  1.411641 A    
C130  C142  1.409741 A    
O29   C15   1.288026 A    
C180  H44   1.081883 S    
C187  H51   1.083932 S    
C170  C186  1.388510 A    
C21   C39   1.400877 A    
C29   O45   1.349623 S    
C22   N4    1.368768 A    
O63   Zn12  2.029109 S    
C48   C72   1.404500 A    
C27   O43   1.349620 S    
C144  C255  1.449724 S    
C139  C250  1.449723 S    
C103  C111  1.408103 A    
C61   H5    1.083105 S    
N23   O94   1.301038 A    
C150  C164  1.414520 A    
C177  H41   1.081882 S    
C75   H19   1.083006 S    
C36   C50   1.408802 A    
C64   H8    1.083105 S    
C147  C171  1.408024 A    
C89   C105  1.408111 A    
N11   O69   1.301042 A    
C125  C145  1.399522 A    
O20   Zn4   2.004605 S    
C33   C49   1.408794 A    
C85   C119  1.398292 A    
C133  N21   1.437297 S    
C77   H21   1.083008 S    
C35   C59   1.404497 A    
O64   Zn12  2.029109 S    
C64   C67   1.394202 A    
O10   Zn6   2.027551 S    
C199  C215  1.395449 A    
C126  C140  1.409740 A    
C182  H46   1.081883 S    
O9    Zn5   2.027550 S    
C86   C102  1.393241 A    
C208  C218  1.411641 A    
C21   O37   1.349622 S    
O56   C252  1.276776 A    
O1    Zn1   2.027550 S    
C208  C232  1.388732 A    
N1    C120  1.429976 S    
C23   O39   1.349622 S    
C26   O42   1.349622 S    
O56   Zn10  2.029109 S    
