data_mof_unit_59234.cif
_audit_creation_date              2012-12-11T14:33:53-0500
_audit_creation_method            fapswitch 2.2
_symmetry_space_group_name_H-M    P1
_symmetry_Int_Tables_number       1
_space_group_crystal_system       triclinic
_cell_length_a                    13.936441
_cell_length_b                    14.028749
_cell_length_c                    27.346211
_cell_angle_alpha                 89.950911
_cell_angle_beta                  90.056247
_cell_angle_gamma                 119.834321
_cell_volume                      4637.89595838

loop_
_atom_site_label
_atom_site_type_symbol
_atom_type_description
_atom_site_fract_x
_atom_site_fract_y
_atom_site_fract_z
_atom_type_partial_charge
C1    C     C_R   0.236555 0.785720 0.569689 0.548597
C2    C     C_R   0.213677 0.449692 0.569489 0.550185
C3    C     C_R   0.546648 0.761783 0.570394 0.551072
C4    C     C_3   0.710075 0.760136 0.787430 -0.173126
C5    C     C_3   0.245807 0.975930 0.781181 -0.171768
C6    C     C_3   0.019856 0.260401 0.780049 -0.171677
C7    C     C_3   0.675931 0.736004 0.732488 0.188776
C8    C     C_3   0.271333 0.956122 0.727741 0.192925
C9    C     C_3   0.038227 0.302541 0.726107 0.192166
C10   C     C_1   0.694395 0.850009 0.862747 -0.071866
C11   C     C_1   0.126986 0.886452 0.853811 -0.072252
C12   C     C_1   0.112930 0.239649 0.853638 -0.071685
C13   C     C_1   0.594275 0.790759 0.663918 0.009514
C14   C     C_1   0.199438 0.815095 0.660695 0.003481
C15   C     C_1   0.181824 0.378537 0.659818 0.004184
C16   C     C_1   0.577688 0.781905 0.620601 0.060649
C17   C     C_1   0.211498 0.801098 0.618407 0.055091
C18   C     C_1   0.196809 0.406409 0.617743 0.054117
C19   C     C_R   0.065106 0.150962 0.095926 0.577026
C20   C     C_R   0.778104 0.884144 0.088492 0.547887
C21   C     C_R   0.116090 0.893858 0.088268 0.561329
C22   C     C_R   0.070025 0.161982 0.943282 0.537909
C23   C     C_R   0.779335 0.886455 0.951153 0.544880
C24   C     C_R   0.091679 0.929616 0.943360 0.535057
C25   C     C_R   0.617854 0.895170 0.361351 -0.130561
C26   C     C_R   0.098079 0.732388 0.362840 -0.131634
C27   C     C_R   0.264100 0.358888 0.363557 -0.131737
C28   C     C_R   0.644929 0.911096 0.311826 0.013653
C29   C     C_R   0.081305 0.743975 0.313257 0.013828
C30   C     C_R   0.241239 0.308298 0.317459 0.014157
C31   C     C_R   0.682449 0.929270 0.210471 0.016787
C32   C     C_R   0.060614 0.760379 0.211753 0.017032
C33   C     C_R   0.200693 0.227474 0.220835 0.016959
C34   C     C_R   0.232795 0.788241 0.431779 0.549121
C35   C     C_R   0.211767 0.444868 0.431364 0.549471
C36   C     C_R   0.555235 0.767144 0.431877 0.550692
C37   C     C_R   0.654399 0.000350 0.234394 -0.138388
C38   C     C_R   0.977947 0.671207 0.237860 -0.128224
C39   C     C_R   0.302601 0.258574 0.243393 -0.124085
C40   C     C_R   0.635416 0.991142 0.284801 -0.130932
C41   C     C_R   0.988830 0.662373 0.288262 -0.128585
C42   C     C_R   0.322868 0.299025 0.291307 -0.127587
C43   C     C_R   0.705291 0.939432 0.160236 -0.149935
C44   C     C_R   0.050438 0.771619 0.161438 -0.135429
C45   C     C_R   0.182872 0.196543 0.171425 -0.128432
C46   C     C_R   0.730428 0.865226 0.137368 -0.002640
C47   C     C_R   0.134725 0.861774 0.136433 -0.004680
C48   C     C_R   0.083115 0.173465 0.148572 -0.008788
C49   C     C_R   0.659079 0.745866 0.364349 -0.127562
C50   C     C_R   0.266630 0.910392 0.361782 -0.125387
C51   C     C_R   0.076851 0.328854 0.367830 -0.125577
C52   C     C_R   0.684007 0.759031 0.314911 0.012616
C53   C     C_R   0.254497 0.920269 0.312159 0.013038
C54   C     C_R   0.053455 0.280054 0.321772 0.011742
C55   C     C_R   0.674431 0.840210 0.288209 0.063778
C56   C     C_R   0.162606 0.835938 0.287471 0.063223
C57   C     C_R   0.136540 0.271771 0.295938 0.062654
C58   C     C_R   0.710178 0.686688 0.291139 -0.126248
C59   C     C_R   0.337207 0.009594 0.286379 -0.127188
C60   C     C_R   0.950363 0.245770 0.299933 -0.127749
C61   C     C_R   0.722903 0.691998 0.240739 -0.127115
C62   C     C_R   0.330855 0.013719 0.235859 -0.129855
C63   C     C_R   0.931366 0.208387 0.251820 -0.122482
C64   C     C_R   0.712657 0.771654 0.214015 0.010785
C65   C     C_R   0.239926 0.930484 0.211014 0.013991
C66   C     C_R   0.014164 0.202552 0.225305 0.016673
C67   C     C_3   0.509713 0.759190 0.747423 -0.235627
C68   C     C_3   0.197227 0.754056 0.746615 -0.237497
C69   C     C_3   0.238705 0.440758 0.745627 -0.241319
C70   C     C_R   0.690360 0.847515 0.237585 0.065541
C71   C     C_R   0.154144 0.842249 0.236746 0.064186
C72   C     C_R   0.116561 0.232180 0.247603 0.062450
C73   C     C_R   0.727438 0.778117 0.164060 -0.122858
C74   C     C_R   0.231732 0.936646 0.160907 -0.132086
C75   C     C_R   0.997950 0.172543 0.176162 -0.128928
C76   C     C_R   0.618255 0.808037 0.386724 0.000157
C77   C     C_R   0.194173 0.812865 0.386320 -0.000233
C78   C     C_R   0.183402 0.373361 0.387983 -0.001748
C79   C     C_3   0.692722 0.924544 0.728649 -0.218592
C80   C     C_3   0.067613 0.816625 0.718400 -0.216988
C81   C     C_3   0.189055 0.252044 0.718945 -0.218355
C82   C     C_3   0.717194 0.942425 0.783911 -0.225016
C83   C     C_3   0.045297 0.834139 0.771961 -0.227078
C84   C     C_3   0.170878 0.213298 0.772621 -0.230396
C85   C     C_1   0.728238 0.867731 0.904124 -0.018752
C86   C     C_1   0.108385 0.903289 0.894850 -0.012766
C87   C     C_1   0.096406 0.204769 0.894752 -0.015925
C88   C     C_3   0.616919 0.801112 0.716690 0.065625
C89   C     C_3   0.185973 0.835692 0.712039 0.060144
C90   C     C_3   0.161465 0.344826 0.711239 0.062363
C91   C     C_3   0.537380 0.771625 0.802962 -0.223628
C92   C     C_3   0.181056 0.777203 0.800597 -0.220877
C93   C     C_3   0.216867 0.402677 0.799795 -0.221530
C94   C     C_3   0.664463 0.830852 0.810725 0.028131
C95   C     C_3   0.149644 0.868809 0.803265 0.023624
C96   C     C_3   0.129807 0.278615 0.802905 0.026934
Cr1   Cr    Cr6+3 0.164410 0.584450 0.499910 1.051504
Cr2   Cr    Cr6+3 0.415550 0.579960 0.499910 1.051926
Cr3   Cr    Cr6+3 0.420040 0.835590 0.499910 1.052101
Cr4   Cr    Cr6+3 0.155170 0.075460 0.019960 1.021786
Cr5   Cr    Cr6+3 0.924540 0.079710 0.019960 1.011890
Cr6   Cr    Cr6+3 0.920290 0.844830 0.019960 1.014118
H1    H     H_    0.502266 0.818995 0.820623 0.133366
H2    H     H_    0.115104 0.700378 0.817680 0.140742
H3    H     H_    0.295726 0.418543 0.817183 0.138510
H4    H     H_    0.448969 0.672368 0.738787 0.130924
H5    H     H_    0.278693 0.759048 0.742157 0.129694
H6    H     H_    0.227464 0.513170 0.740479 0.134248
H7    H     H_    0.498043 0.688976 0.820370 0.132124
H8    H     H_    0.258795 0.802732 0.821403 0.132190
H9    H     H_    0.186873 0.451540 0.820085 0.134150
H10   H     H_    0.801721 0.804230 0.790916 0.121376
H11   H     H_    0.223177 0.041209 0.781676 0.118720
H12   H     H_    0.957354 0.171610 0.781408 0.121686
H13   H     H_    0.706861 0.006049 0.139467 0.106033
H14   H     H_    0.975565 0.713854 0.142371 0.114564
H15   H     H_    0.247824 0.194618 0.150424 0.122592
H16   H     H_    0.587600 0.944484 0.378816 0.130527
H17   H     H_    0.040804 0.657809 0.382001 0.127358
H18   H     H_    0.346205 0.392101 0.379061 0.128171
H19   H     H_    0.646959 0.062786 0.214142 0.099402
H20   H     H_    0.905904 0.607598 0.219197 0.099008
H21   H     H_    0.367876 0.255033 0.223450 0.101352
H22   H     H_    0.611999 0.045610 0.302525 0.101912
H23   H     H_    0.925586 0.591412 0.307583 0.103357
H24   H     H_    0.403426 0.325948 0.307392 0.104701
H25   H     H_    0.745383 0.719300 0.146603 0.130159
H26   H     H_    0.297471 0.005923 0.141565 0.124673
H27   H     H_    0.920018 0.151982 0.158776 0.118491
H28   H     H_    0.740722 0.633898 0.222631 0.099187
H29   H     H_    0.396478 0.082363 0.216264 0.095459
H30   H     H_    0.853467 0.187964 0.234741 0.111133
H31   H     H_    0.717264 0.623887 0.311279 0.104258
H32   H     H_    0.408425 0.074354 0.305093 0.099749
H33   H     H_    0.885983 0.252031 0.319366 0.106610
H34   H     H_    0.468577 0.806652 0.738001 0.148087
H35   H     H_    0.133832 0.668700 0.737089 0.158891
H36   H     H_    0.326309 0.468433 0.736535 0.150992
H37   H     H_    0.661487 0.680076 0.384175 0.133695
H38   H     H_    0.339524 0.974338 0.379943 0.135673
H39   H     H_    0.013419 0.337914 0.386663 0.135722
H40   H     H_    0.771639 0.955955 0.708611 0.186261
H41   H     H_    0.056023 0.873949 0.694382 0.186087
H42   H     H_    0.136769 0.181380 0.694754 0.183929
H43   H     H_    0.654045 0.973156 0.716222 0.183548
H44   H     H_    0.006304 0.731369 0.707025 0.177991
H45   H     H_    0.276998 0.282519 0.708909 0.177980
H46   H     H_    0.684060 0.994140 0.798810 0.155400
H47   H     H_    0.974940 0.756757 0.786548 0.152540
H48   H     H_    0.249921 0.225032 0.788138 0.145520
H49   H     H_    0.808256 0.987579 0.789830 0.122218
H50   H     H_    0.020708 0.898437 0.773510 0.129478
H51   H     H_    0.109045 0.123979 0.774148 0.124206
H52   H     H_    0.678851 0.682149 0.808236 0.147611
H53   H     H_    0.320294 0.005401 0.804736 0.148760
H54   H     H_    0.986528 0.303263 0.802568 0.147777
O1    O     O_R   0.137150 0.468200 0.553200 -0.485244
O2    O     O_R   0.531800 0.668950 0.553200 -0.486708
O3    O     O_R   0.331050 0.862850 0.553200 -0.483225
O4    O     O_R   0.179100 0.982980 0.967000 -0.501267
O5    O     O_R   0.017020 0.196120 0.967000 -0.480999
O6    O     O_R   0.803880 0.820900 0.967000 -0.510219
O7    O     O_R   0.173970 0.688730 0.549930 -0.498108
O8    O     O_R   0.311270 0.485240 0.549930 -0.497724
O9    O     O_R   0.514760 0.826030 0.549930 -0.494928
O10   O     O_R   0.140110 0.470540 0.446010 -0.518696
O11   O     O_R   0.529460 0.669570 0.446010 -0.518238
O12   O     O_R   0.330430 0.859890 0.446010 -0.521236
O13   O     O_R   0.176710 0.690910 0.450560 -0.502156
O14   O     O_R   0.309090 0.485800 0.450560 -0.500903
O15   O     O_R   0.514200 0.823290 0.450560 -0.503703
O16   O     O_3   0.333333 0.666667 0.499990 -0.290012
O17   O     O_R   0.176750 0.985260 0.074180 -0.529401
O18   O     O_R   0.014740 0.191490 0.074180 -0.493669
O19   O     O_R   0.808510 0.823250 0.074180 -0.517825
O20   O     O_R   0.146100 0.172630 0.068980 -0.479731
O21   O     O_R   0.827370 0.973470 0.068980 -0.517921
O22   O     O_R   0.026530 0.853900 0.068980 -0.489747
O23   O     O_3   0.000000 1.000000 0.020040 -0.290399
O24   O     O_R   0.148270 0.170520 0.969620 -0.489822
O25   O     O_R   0.829480 0.977750 0.969620 -0.518925
O26   O     O_R   0.022250 0.851730 0.969620 -0.480679
I1    I     I_    0.574060 0.560583 0.721488 -0.367736
I2    I     I_    0.440774 0.993442 0.723092 -0.402233
I3    I     I_    0.991921 0.427724 0.718702 -0.377000
I4    I     I_    0.816498 0.777904 0.686530 -0.404620
I5    I     I_    0.270786 0.074052 0.677501 -0.375248
I6    I     I_    0.925052 0.175218 0.677323 -0.364619

loop_
_geom_bond_atom_site_label_1
_geom_bond_atom_site_label_2
_ccdc_geom_bond_type
C15   C18   T    
C4    H52   S    
C43   C46   A    
C10   C85   T    
C82   C94   S    
Cr3   O3    S    
C2    C18   S    
C33   C45   A    
C7    I4    S    
C48   C75   A    
Cr2   O14   S    
C9    I6    S    
C92   H8    S    
C25   H16   S    
C6    C9    S    
C53   C59   A    
Cr1   O13   S    
C79   H43   S    
C54   C60   A    
C27   H18   S    
C25   C28   A    
C67   C88   S    
C33   C39   A    
Cr1   O16   S    
C31   C43   A    
C60   C63   A    
C23   O25   A    
C37   C40   A    
C69   C93   S    
C4    C7    S    
C34   C77   S    
C50   H38   S    
C45   C48   A    
C20   O19   A    
Cr3   O15   S    
C10   C94   S    
C11   C86   T    
C45   H15   S    
Cr1   O10   S    
C30   C57   A    
C35   O10   A    
C39   H21   S    
C84   C96   S    
C80   C89   S    
C19   O20   A    
C6    H12   S    
C36   C76   S    
C33   C72   A    
C93   H3    S    
C28   C55   A    
C81   H42   S    
C66   C72   A    
Cr2   O2    S    
C81   H45   S    
Cr4   O20   S    
C3    O2    A    
C64   C73   A    
C26   C29   A    
C68   H5    S    
C32   C38   A    
C39   C42   A    
Cr2   O11   S    
C12   C87   T    
C44   C47   A    
C6    H54   S    
C23   O6    A    
C43   H13   S    
C8    I2    S    
C58   C61   A    
C80   H44   S    
C4    H10   S    
C63   C66   A    
C58   H31   S    
C27   C30   A    
Cr6   O23   S    
C14   C17   T    
C68   H35   S    
C80   C83   S    
C34   O12   A    
C49   C52   A    
C79   C88   S    
C5    C95   S    
C69   H6    S    
C32   C71   A    
C51   H39   S    
C8    I5    S    
C40   H22   S    
C74   H26   S    
C50   C53   A    
C24   O26   A    
C26   C77   A    
C41   H23   S    
C1    O3    A    
C26   H17   S    
C38   C41   A    
C22   O24   A    
C2    O8    A    
C22   O5    A    
C42   H24   S    
C19   C48   S    
Cr3   O16   S    
C59   C62   A    
Cr1   O7    S    
Cr6   O19   S    
C65   C71   A    
C27   C78   A    
C36   O11   A    
C65   C74   A    
C31   C37   A    
Cr6   O26   S    
C61   C64   A    
C64   C70   A    
C14   C89   S    
Cr5   O23   S    
C79   C82   S    
C84   H51   S    
Cr4   O4    S    
C82   H46   S    
C7    C88   S    
Cr6   O6    S    
C80   H41   S    
C83   C95   S    
C67   C91   S    
C68   C89   S    
C32   C44   A    
C49   C76   A    
C63   H30   S    
C60   H33   S    
C1    O7    A    
C38   H20   S    
C34   O13   A    
C52   C58   A    
C61   H28   S    
C93   H9    S    
C37   H19   S    
C81   C90   S    
Cr3   O9    S    
C21   O22   A    
C93   C96   S    
C21   O17   A    
C6    C96   S    
C49   H37   S    
Cr6   O22   S    
C4    C94   S    
C83   H50   S    
C69   C90   S    
Cr4   O24   S    
C50   C77   A    
C81   C84   S    
Cr5   O18   S    
C3    O9    A    
Cr3   O12   S    
C53   C56   A    
C11   C95   S    
C69   H36   S    
C36   O15   A    
C59   H32   S    
C62   C65   A    
C5    H11   S    
C1    C17   S    
C62   H29   S    
C30   C42   A    
C82   H49   S    
C47   C74   A    
C91   H1    S    
C22   C87   S    
C9    C90   S    
C5    C8    S    
Cr2   O8    S    
C52   C55   A    
C67   H4    S    
C20   O21   A    
C29   C56   A    
C35   C78   S    
C9    I3    S    
C7    I1    S    
C51   C54   A    
C31   C70   A    
Cr5   O5    S    
C67   H34   S    
C51   C78   A    
Cr2   O16   S    
C73   H25   S    
C15   C90   S    
C91   H7    S    
C2    O1    A    
C66   C75   A    
C13   C88   S    
C68   C92   S    
C92   C95   S    
C57   C72   A    
C5    H53   S    
Cr5   O25   S    
C21   C47   S    
C19   O18   A    
C55   C70   A    
Cr5   O21   S    
C92   H2    S    
C79   H40   S    
C24   O4    A    
C44   H14   S    
C25   C76   A    
C23   C85   S    
C13   C16   T    
Cr4   O17   S    
C35   O14   A    
C28   C40   A    
C29   C41   A    
C12   C96   S    
C8    C89   S    
C83   H47   S    
Cr4   O23   S    
C24   C86   S    
C46   C73   A    
C20   C46   S    
C3    C16   S    
C75   H27   S    
C56   C71   A    
Cr1   O1    S    
C91   C94   S    
C54   C57   A    
C84   H48   S    
