data_mof_unit_19239.cif
_audit_creation_date              2012-12-11T14:22:56-0500
_audit_creation_method            fapswitch 2.2
_symmetry_space_group_name_H-M    P1
_symmetry_Int_Tables_number       1
_space_group_crystal_system       triclinic
_cell_length_a                    10.798268
_cell_length_b                    11.07967
_cell_length_c                    18.832215
_cell_angle_alpha                 89.914512
_cell_angle_beta                  89.65711
_cell_angle_gamma                 60.082759
_cell_volume                      1952.83752157

loop_
_atom_site_label
_atom_site_type_symbol
_atom_type_description
_atom_site_fract_x
_atom_site_fract_y
_atom_site_fract_z
_atom_type_partial_charge
C1    C     C_R   0.234962 0.645250 0.609534 0.522999
C2    C     C_3   0.704391 0.513858 0.808508 -0.297337
C3    C     C_3   0.687627 0.660439 0.816899 0.070647
C4    C     C_3   0.648274 0.618378 0.684095 0.001179
C5    C     C_3   0.769322 0.654460 0.689090 -0.172264
C6    C     C_3   0.687640 0.487246 0.729598 -0.265084
C7    C     C_R   0.719756 0.090041 0.812683 0.043835
C8    C     C_R   0.819851 0.116455 0.776020 0.029136
C9    C     C_R   0.811473 0.128175 0.700658 0.028451
C10   C     C_R   0.600616 0.103931 0.701771 -0.123274
C11   C     C_R   0.614333 0.081382 0.773539 -0.066847
C12   C     C_R   0.628333 0.589510 0.609160 0.562157
C13   C     C_R   0.925486 0.134966 0.810386 -0.126470
C14   C     C_R   0.028975 0.146907 0.771318 -0.163347
C15   C     C_R   0.030489 0.139802 0.697659 -0.151173
C16   C     C_R   0.923402 0.129854 0.662505 -0.098457
C17   C     C_R   0.690207 0.139587 0.665721 -0.006658
C18   C     C_R   0.178775 0.672287 0.833569 0.006179
C19   C     C_R   0.209561 0.546489 0.800029 0.026307
C20   C     C_R   0.200778 0.542369 0.724818 0.031050
C21   C     C_R   0.161002 0.778593 0.719472 -0.139447
C22   C     C_R   0.162734 0.783788 0.792358 -0.136963
C23   C     C_R   0.633598 0.220504 0.600182 0.540502
C24   C     C_R   0.249148 0.424753 0.839911 -0.087505
C25   C     C_R   0.266523 0.305005 0.807372 -0.132864
C26   C     C_R   0.244428 0.304491 0.734911 -0.144933
C27   C     C_R   0.208848 0.422157 0.694066 -0.090834
C28   C     C_R   0.185065 0.658251 0.684007 0.002216
C29   C     C_R   0.649084 0.673625 0.167641 -0.005961
C30   C     C_R   0.706455 0.538914 0.195211 0.026929
C31   C     C_R   0.738406 0.519065 0.268150 0.029293
C32   C     C_R   0.595899 0.770034 0.286868 -0.143983
C33   C     C_R   0.600057 0.787003 0.214189 -0.149810
C34   C     C_R   0.217336 0.653625 0.402326 0.535031
C35   C     C_R   0.753043 0.422725 0.149730 -0.075973
C36   C     C_R   0.856684 0.291891 0.172124 -0.106154
C37   C     C_R   0.908659 0.274956 0.240611 -0.155810
C38   C     C_R   0.848805 0.384863 0.288839 -0.103858
C39   C     C_R   0.664730 0.636548 0.315159 0.001194
C40   C     C_R   0.665147 0.086416 0.185334 -0.002046
C41   C     C_R   0.521339 0.154966 0.212258 0.035913
C42   C     C_R   0.493621 0.229026 0.276116 0.022872
C43   C     C_R   0.751019 0.128411 0.294579 -0.135798
C44   C     C_R   0.778074 0.065297 0.228917 -0.165071
C45   C     C_R   0.643365 0.617474 0.390525 0.549866
C46   C     C_R   0.403588 0.153007 0.178346 -0.094562
C47   C     C_R   0.265385 0.227264 0.203747 -0.143153
C48   C     C_R   0.239264 0.299649 0.265836 -0.140046
C49   C     C_R   0.349471 0.306065 0.299539 -0.096339
C50   C     C_R   0.610717 0.218223 0.316385 0.018173
C51   C     C_R   0.143185 0.670863 0.185322 0.003265
C52   C     C_R   0.207929 0.740110 0.216260 0.021121
C53   C     C_R   0.179807 0.776385 0.287723 0.040468
C54   C     C_R   0.088928 0.617491 0.302675 -0.179070
C55   C     C_R   0.079375 0.613308 0.228948 -0.141683
C56   C     C_R   0.585975 0.280861 0.386517 0.549282
C57   C     C_R   0.278476 0.793942 0.175188 -0.074203
C58   C     C_R   0.287327 0.906818 0.199694 -0.112393
C59   C     C_R   0.242038 0.957028 0.268011 -0.148077
C60   C     C_R   0.185398 0.894919 0.311294 -0.087401
C61   C     C_R   0.148661 0.691299 0.332489 -0.003465
C62   C     C_R   0.726412 0.050394 0.888140 0.609697
C63   C     C_R   0.718383 0.684583 0.890479 0.579611
C64   C     C_R   0.119294 0.706444 0.905859 0.546540
C65   C     C_R   0.698713 0.042962 0.111577 0.559701
C66   C     C_R   0.692999 0.690484 0.096703 0.516974
C67   C     C_3   0.533927 0.768233 0.793570 -0.231682
C68   C     C_R   0.091998 0.709152 0.113067 0.523930
C69   C     C_3   0.510148 0.741723 0.715948 -0.241464
C70   C     C_3   0.799684 0.668076 0.767246 0.243676
Cr1   Cr    Cr6+3 0.392940 0.397950 0.502230 0.988428
Cr2   Cr    Cr6+3 0.398400 0.708500 0.501260 1.001428
Cr3   Cr    Cr6+3 0.708640 0.393530 0.496460 0.987064
Cr4   Cr    Cr6+3 0.937880 0.938320 0.007620 0.993353
Cr5   Cr    Cr6+3 0.625560 0.937220 0.994510 0.990950
Cr6   Cr    Cr6+3 0.938080 0.625010 0.001190 1.012160
H1    H     H_    0.515174 0.875324 0.798548 0.148145
H2    H     H_    0.789883 0.399781 0.709857 0.163514
H3    H     H_    0.908319 0.580955 0.780235 0.150454
H4    H     H_    0.869500 0.572162 0.663850 0.106122
H5    H     H_    0.512781 0.102240 0.675279 0.127467
H6    H     H_    0.931027 0.142791 0.866943 0.148220
H7    H     H_    0.538690 0.058605 0.798858 0.132467
H8    H     H_    0.110898 0.157019 0.798724 0.111743
H9    H     H_    0.114777 0.140769 0.667068 0.103751
H10   H     H_    0.931873 0.119419 0.605377 0.137313
H11   H     H_    0.152099 0.866587 0.690598 0.152964
H12   H     H_    0.454439 0.761041 0.828577 0.102344
H13   H     H_    0.270274 0.420178 0.896229 0.128899
H14   H     H_    0.147228 0.878324 0.816769 0.148885
H15   H     H_    0.296348 0.212565 0.838649 0.103561
H16   H     H_    0.258330 0.211077 0.709947 0.092915
H17   H     H_    0.183867 0.417471 0.639174 0.142414
H18   H     H_    0.545825 0.860763 0.321110 0.136106
H19   H     H_    0.718432 0.435118 0.094995 0.121831
H20   H     H_    0.567507 0.888856 0.194208 0.123733
H21   H     H_    0.901157 0.204914 0.135607 0.142938
H22   H     H_    0.993017 0.174868 0.257295 0.110801
H23   H     H_    0.423885 0.715848 0.713766 0.136900
H24   H     H_    0.901016 0.362348 0.339510 0.145000
H25   H     H_    0.840607 0.109138 0.327771 0.131768
H26   H     H_    0.412145 0.087565 0.134628 0.142913
H27   H     H_    0.887909 0.003677 0.210974 0.142166
H28   H     H_    0.179507 0.222456 0.176950 0.118051
H29   H     H_    0.132737 0.350614 0.288048 0.106320
H30   H     H_    0.317586 0.370503 0.344762 0.178353
H31   H     H_    0.050880 0.563623 0.336477 0.115002
H32   H     H_    0.314854 0.757333 0.121603 0.121216
H33   H     H_    0.021204 0.566589 0.206205 0.155587
H34   H     H_    0.475767 0.838598 0.684705 0.134336
H35   H     H_    0.327549 0.955216 0.164470 0.101011
H36   H     H_    0.249336 0.044467 0.287871 0.121219
H37   H     H_    0.141740 0.943899 0.362012 0.132151
H38   H     H_    0.737652 0.753481 0.660355 0.169000
H39   H     H_    0.811116 0.432039 0.827270 0.139021
H40   H     H_    0.622668 0.505741 0.841224 0.124199
H41   H     H_    0.604430 0.456439 0.724491 0.126056
O1    O     O_R   0.507340 0.255690 0.581430 -0.516625
O2    O     O_R   0.524510 0.695820 0.424050 -0.484795
O3    O     O_R   0.736370 0.504260 0.414810 -0.544883
O4    O     O_R   0.691220 0.277270 0.422180 -0.508243
O5    O     O_3   0.499990 0.499990 0.499980 -0.266561
O6    O     O_R   0.089570 0.825450 0.930590 -0.536383
O7    O     O_R   0.818700 0.054260 0.929860 -0.516495
O8    O     O_R   0.606310 0.077010 0.915520 -0.532907
O9    O     O_R   0.646730 0.806540 0.917560 -0.500828
O10   O     O_R   0.837290 0.593240 0.915240 -0.527785
O11   O     O_R   0.065320 0.635310 0.931580 -0.491556
O12   O     O_R   0.280360 0.527380 0.578910 -0.512781
O13   O     O_R   0.068470 0.828620 0.091850 -0.539000
O14   O     O_R   0.799150 0.057200 0.079350 -0.502609
O15   O     O_R   0.585220 0.080180 0.076770 -0.534820
O16   O     O_R   0.627170 0.809480 0.067050 -0.539695
O17   O     O_R   0.816200 0.596410 0.076500 -0.518579
O18   O     O_R   0.045770 0.638240 0.081070 -0.503086
O19   O     O_3   0.833840 0.833520 0.001110 -0.264607
O20   O     O_R   0.260600 0.739610 0.584580 -0.535346
O21   O     O_R   0.532370 0.695050 0.573830 -0.502747
O22   O     O_R   0.744850 0.503430 0.576380 -0.527243
O23   O     O_R   0.699080 0.276500 0.571950 -0.523267
O24   O     O_R   0.498860 0.256520 0.419860 -0.531119
O25   O     O_R   0.272490 0.528150 0.429140 -0.534929
O26   O     O_R   0.252110 0.740440 0.423010 -0.523242
F1    F     F_    0.802112 0.790409 0.777325 -0.666844

loop_
_geom_bond_atom_site_label_1
_geom_bond_atom_site_label_2
_ccdc_geom_bond_type
Cr2   O26   S    
Cr4   O7    S    
C21   H11   S    
C8    C13   A    
C5    H38   S    
C41   C42   A    
C54   C55   A    
Cr1   O5    S    
C32   H18   S    
C35   C36   A    
C67   H1    S    
C14   H8    S    
C24   H13   S    
C23   O1    A    
C62   O7    A    
Cr6   O19   S    
C7    C8    A    
C52   C53   A    
C7    C11   A    
C46   H26   S    
C26   C27   A    
C17   C23   S    
C54   H31   S    
C36   C37   A    
C9    C16   A    
C1    O12   A    
C30   C31   A    
C6    H2    S    
C10   C17   A    
C26   H16   S    
C15   C16   A    
C29   C33   A    
Cr6   O18   S    
C18   C19   A    
C2    H39   S    
C32   C39   A    
C37   H22   S    
C66   O17   A    
C53   C61   A    
C44   H27   S    
C34   O25   A    
C19   C20   A    
C8    C9    A    
C64   O11   A    
Cr4   O19   S    
C1    C28   S    
C41   C46   A    
C36   H21   S    
C4    C12   S    
C6    H41   S    
C39   C45   S    
C45   O2    A    
Cr2   O21   S    
Cr4   O6    S    
C59   C60   A    
Cr3   O3    S    
C13   C14   A    
C55   H33   S    
C16   H10   S    
C60   H37   S    
C2    C6    S    
C2    H40   S    
C4    C69   S    
C65   O14   A    
C53   C60   A    
C54   C61   A    
Cr1   O24   S    
Cr4   O14   S    
C34   O26   A    
C25   H15   S    
C58   H35   S    
C23   O23   A    
C3    C70   S    
C24   C25   A    
C4    C6    S    
C10   C11   A    
Cr6   O17   S    
Cr5   O19   S    
C20   C28   A    
C11   H7    S    
C58   C59   A    
C13   H6    S    
C34   C61   S    
C50   C56   S    
C51   C52   A    
Cr5   O8    S    
C37   C38   A    
C43   C44   A    
C43   H25   S    
C7    C62   S    
C29   C30   A    
Cr1   O12   S    
C66   O16   A    
C69   H34   S    
C47   C48   A    
C59   H36   S    
C22   H14   S    
C12   O22   A    
Cr3   O22   S    
C5    H4    S    
C68   O13   A    
C42   C50   A    
Cr1   O25   S    
C56   O24   A    
C69   H23   S    
C45   O3    A    
C9    C17   A    
C40   C41   A    
Cr3   O23   S    
C21   C28   A    
Cr3   O4    S    
C40   C65   S    
Cr4   O13   S    
Cr6   O11   S    
C12   O21   A    
C27   H17   S    
C33   H20   S    
C65   O15   A    
C1    O20   A    
Cr5   O15   S    
C46   C47   A    
Cr2   O20   S    
C47   H28   S    
Cr1   O1    S    
Cr2   O5    S    
C70   H3    S    
C18   C22   A    
C68   O18   A    
C3    C67   S    
C4    C5    S    
C5    C70   S    
C62   O8    A    
Cr5   O16   S    
C43   C50   A    
C67   H12   S    
C49   H30   S    
C48   H29   S    
C20   C27   A    
C3    C63   S    
C64   O6    A    
C30   C35   A    
C10   H5    S    
C70   F1    S    
C31   C38   A    
C15   H9    S    
Cr5   O9    S    
C32   C33   A    
C19   C24   A    
C25   C26   A    
C56   O4    A    
C38   H24   S    
C18   C64   S    
C57   C58   A    
C48   C49   A    
Cr2   O2    S    
C31   C39   A    
C2    C3    S    
C51   C55   A    
C51   C68   S    
C63   O9    A    
C52   C57   A    
C42   C49   A    
C29   C66   S    
C40   C44   A    
C57   H32   S    
Cr3   O5    S    
Cr6   O10   S    
C14   C15   A    
C67   C69   S    
C21   C22   A    
C63   O10   A    
C35   H19   S    
