data_mof_unit_17516.cif
_audit_creation_date              2012-12-11T17:07:50-0500
_audit_creation_method            fapswitch 2.2
_symmetry_space_group_name_H-M    P1
_symmetry_Int_Tables_number       1
_space_group_crystal_system       triclinic
_cell_length_a                    17.1402
_cell_length_b                    17.140356
_cell_length_c                    17.304145
_cell_angle_alpha                 90.000639
_cell_angle_beta                  90.000839
_cell_angle_gamma                 89.999408
_cell_volume                      5083.76970227

loop_
_atom_site_label
_atom_site_type_symbol
_atom_type_description
_atom_site_fract_x
_atom_site_fract_y
_atom_site_fract_z
_atom_type_partial_charge
C1    C     C_R   0.394292 0.301412 0.900531 -0.157337
C2    C     C_R   0.198587 0.894293 0.400527 -0.157322
C3    C     C_R   0.773378 0.863001 0.199066 -0.174358
C4    C     C_R   0.137005 0.226594 0.800950 -0.174220
C5    C     C_R   0.318375 0.770843 0.647284 -0.163177
C6    C     C_R   0.862998 0.773381 0.800932 -0.174378
C7    C     C_R   0.681619 0.229130 0.647300 -0.163196
C8    C     C_R   0.636996 0.273375 0.699069 -0.174389
C9    C     C_R   0.818375 0.729139 0.852703 -0.163205
C10   C     C_R   0.362997 0.726600 0.699056 -0.174338
C11   C     C_R   0.181627 0.270836 0.852724 -0.163275
C12   C     C_R   0.729135 0.818379 0.147293 -0.163209
C13   C     C_R   0.076550 0.169470 0.355866 -0.119246
C14   C     C_R   0.726624 0.363003 0.300934 -0.174317
C15   C     C_R   0.270774 0.181654 0.147241 -0.163195
C16   C     C_R   0.273388 0.637006 0.300934 -0.174401
C17   C     C_2   0.908480 0.403100 0.642304 0.525484
C18   C     C_2   0.668681 0.855503 0.665004 0.585678
C19   C     C_2   0.091417 0.596975 0.642448 0.525386
C20   C     C_2   0.331285 0.144595 0.664937 0.585640
C21   C     C_2   0.855563 0.668672 0.334956 0.585680
C22   C     C_2   0.596894 0.091541 0.357696 0.525574
C23   C     C_2   0.144878 0.331228 0.335279 0.585451
C24   C     C_R   0.801413 0.105710 0.400528 -0.157291
C25   C     C_2   0.403054 0.908540 0.357593 0.525481
C26   C     C_2   0.355484 0.831309 0.164989 0.585645
C27   C     C_2   0.097200 0.408874 0.142880 0.525126
C28   C     C_2   0.644445 0.168680 0.165051 0.585759
C29   C     C_2   0.903116 0.591521 0.142308 0.525544
C30   C     C_2   0.408613 0.096992 0.857500 0.525401
C31   C     C_2   0.168701 0.644545 0.835034 0.585655
C32   C     C_2   0.591482 0.903081 0.857627 0.525522
C33   C     C_2   0.831329 0.355571 0.834957 0.585654
C34   C     C_R   0.894289 0.198586 0.599473 -0.157280
C35   C     C_R   0.169459 0.076546 0.644145 -0.118985
C36   C     C_R   0.105709 0.801413 0.599469 -0.157327
C37   C     C_R   0.830541 0.923452 0.644146 -0.118854
C38   C     C_3   0.864055 0.347621 0.693738 -0.331621
C39   C     C_3   0.682452 0.889810 0.744347 -0.400449
C40   C     C_3   0.135911 0.652452 0.693827 -0.331585
C41   C     C_R   0.669455 0.423453 0.855851 -0.118772
C42   C     C_3   0.317571 0.110254 0.744274 -0.400287
C43   C     C_3   0.889849 0.682468 0.255609 -0.400452
C44   C     C_3   0.652378 0.135952 0.306266 -0.331632
C45   C     C_3   0.110451 0.317654 0.255960 -0.399841
C46   C     C_3   0.347570 0.864077 0.306199 -0.331592
C47   C     C_3   0.389792 0.817551 0.244331 -0.400408
C48   C     C_3   0.152671 0.364194 0.194108 -0.331708
C49   C     C_3   0.610159 0.182476 0.244392 -0.400548
C50   C     C_3   0.847628 0.635943 0.193737 -0.331761
C51   C     C_3   0.364101 0.152474 0.806141 -0.331614
C52   C     C_R   0.605707 0.698586 0.900524 -0.157308
C53   C     C_3   0.182438 0.610226 0.755691 -0.400324
C54   C     C_3   0.635926 0.847591 0.806218 -0.331639
C55   C     C_3   0.817532 0.389849 0.755606 -0.400493
C56   C     C_R   0.419522 0.672019 0.856589 -0.090089
C57   C     C_R   0.302052 0.391796 0.898530 -0.123105
C58   C     C_R   0.580475 0.327981 0.856588 -0.090155
C59   C     C_R   0.697946 0.608200 0.898527 -0.123146
C60   C     C_R   0.391791 0.302055 0.101471 -0.123004
C61   C     C_R   0.327978 0.580479 0.143408 -0.090160
C62   C     C_R   0.608201 0.697946 0.101471 -0.123130
C63   C     C_R   0.330541 0.576546 0.855854 -0.118938
C64   C     C_R   0.672019 0.419526 0.143412 -0.090074
C65   C     C_R   0.891798 0.197947 0.398532 -0.123020
C66   C     C_R   0.827980 0.919524 0.356589 -0.090151
C67   C     C_R   0.108202 0.802054 0.398530 -0.123142
C68   C     C_R   0.172024 0.080485 0.356593 -0.090000
C69   C     C_R   0.919523 0.827978 0.643408 -0.090146
C70   C     C_R   0.802053 0.108200 0.601470 -0.123140
C71   C     C_R   0.080477 0.172020 0.643411 -0.090137
C72   C     C_R   0.197948 0.891797 0.601469 -0.123071
C73   C     C_R   0.316809 0.313559 0.884501 0.096023
C74   C     C_R   0.423450 0.669461 0.144144 -0.118865
C75   C     C_R   0.640127 0.361836 0.813416 0.088153
C76   C     C_R   0.683191 0.686437 0.884494 0.096034
C77   C     C_R   0.359867 0.638162 0.813420 0.088173
C78   C     C_R   0.361833 0.640135 0.186577 0.088173
C79   C     C_R   0.686440 0.683193 0.115500 0.096038
C80   C     C_R   0.638164 0.359873 0.186584 0.088149
C81   C     C_R   0.313556 0.316823 0.115500 0.095957
C82   C     C_R   0.861836 0.859870 0.313417 0.088177
C83   C     C_R   0.186439 0.816809 0.384500 0.096028
C84   C     C_R   0.138170 0.140149 0.313436 0.088177
C85   C     C_R   0.698588 0.605709 0.099473 -0.157286
C86   C     C_R   0.813561 0.183194 0.384503 0.096048
C87   C     C_R   0.816805 0.186437 0.615500 0.096039
C88   C     C_R   0.140133 0.138162 0.686579 0.088166
C89   C     C_R   0.183192 0.813560 0.615498 0.096019
C90   C     C_R   0.859868 0.861833 0.686578 0.088163
C91   C     C_R   0.745181 0.361363 0.714813 0.117942
C92   C     C_R   0.712653 0.820816 0.839746 0.223167
C93   C     C_R   0.254786 0.638652 0.714852 0.117998
C94   C     C_R   0.287374 0.179192 0.839715 0.223227
C95   C     C_R   0.820828 0.712669 0.160229 0.223184
C96   C     C_R   0.576546 0.330544 0.144149 -0.118823
C97   C     C_R   0.638639 0.254821 0.285185 0.117923
C98   C     C_R   0.179241 0.287471 0.160415 0.223426
C99   C     C_R   0.361348 0.745206 0.285154 0.117950
C100  C     C_R   0.320812 0.787353 0.339738 0.223177
C101  C     C_R   0.138715 0.245316 0.214995 0.118275
C102  C     C_R   0.679176 0.212675 0.339769 0.223183
C103  C     C_R   0.861366 0.754816 0.214813 0.117963
C104  C     C_R   0.245225 0.138657 0.785131 0.118023
C105  C     C_R   0.212637 0.679190 0.660271 0.223196
C106  C     C_R   0.754801 0.861352 0.785163 0.117929
C107  C     C_R   0.301412 0.394300 0.099466 -0.157440
C108  C     C_R   0.787327 0.320822 0.660231 0.223195
C109  C     C_R   0.672296 0.334688 0.740298 0.054075
C110  C     C_R   0.739009 0.747317 0.863959 0.015398
C111  C     C_R   0.327688 0.665309 0.740308 0.054033
C112  C     C_R   0.261000 0.252674 0.863960 0.015258
C113  C     C_R   0.747320 0.739015 0.136028 0.015393
C114  C     C_R   0.665313 0.327704 0.259702 0.054082
C115  C     C_R   0.252664 0.261044 0.136071 0.014974
C116  C     C_R   0.334684 0.672311 0.259689 0.054104
C117  C     C_R   0.247319 0.760994 0.363960 0.015379
C118  C     C_R   0.923454 0.830543 0.355852 -0.118785
C119  C     C_R   0.165324 0.172366 0.240351 0.053914
C120  C     C_R   0.752682 0.239018 0.363971 0.015397
C121  C     C_R   0.834689 0.827701 0.240298 0.054074
C122  C     C_R   0.172316 0.165310 0.759688 0.053995
C123  C     C_R   0.239004 0.752677 0.636039 0.015299
C124  C     C_R   0.827694 0.834683 0.759691 0.054094
C125  C     C_R   0.760982 0.247315 0.636033 0.015392
C126  C     C_R   0.229147 0.681627 0.352708 -0.163253
C127  C     C_R   0.226547 0.137034 0.199025 -0.174307
C128  C     C_R   0.770866 0.318379 0.352706 -0.163133
H1    H     H_    0.422502 0.246181 0.910633 0.123126
H2    H     H_    0.253817 0.922504 0.410626 0.123254
H3    H     H_    0.035166 0.213392 0.338762 0.089242
H4    H     H_    0.746183 0.077500 0.410628 0.123346
H5    H     H_    0.922499 0.253816 0.589373 0.123278
H6    H     H_    0.213367 0.035150 0.661258 0.089162
H7    H     H_    0.077499 0.746183 0.589367 0.123180
H8    H     H_    0.786637 0.964849 0.661261 0.089126
H9    H     H_    0.901232 0.299579 0.716408 0.141225
H10   H     H_    0.676876 0.954498 0.745889 0.118097
H11   H     H_    0.098780 0.700534 0.716487 0.141217
H12   H     H_    0.713356 0.464852 0.838733 0.089098
H13   H     H_    0.323185 0.045569 0.745790 0.118165
H14   H     H_    0.954540 0.676907 0.254054 0.118089
H15   H     H_    0.700417 0.098771 0.283605 0.141232
H16   H     H_    0.045774 0.323359 0.254506 0.118296
H17   H     H_    0.299504 0.901227 0.283539 0.141220
H18   H     H_    0.454480 0.823134 0.245870 0.118124
H19   H     H_    0.200863 0.401201 0.216736 0.141183
H20   H     H_    0.545472 0.176917 0.245943 0.118115
H21   H     H_    0.799585 0.598765 0.216403 0.141241
H22   H     H_    0.401220 0.200568 0.783489 0.141230
H23   H     H_    0.577496 0.753816 0.910621 0.123322
H24   H     H_    0.176839 0.545539 0.754157 0.118144
H25   H     H_    0.598762 0.799535 0.783556 0.141231
H26   H     H_    0.823092 0.454538 0.754044 0.118127
H27   H     H_    0.455829 0.721034 0.840914 0.085842
H28   H     H_    0.245374 0.419059 0.902957 0.093996
H29   H     H_    0.544165 0.278967 0.840914 0.085809
H30   H     H_    0.754623 0.580936 0.902957 0.094252
H31   H     H_    0.419047 0.245373 0.097056 0.094163
H32   H     H_    0.278963 0.544172 0.159082 0.085721
H33   H     H_    0.580936 0.754622 0.097039 0.094244
H34   H     H_    0.286634 0.535151 0.838739 0.089152
H35   H     H_    0.721032 0.455836 0.159087 0.085875
H36   H     H_    0.919062 0.254622 0.402967 0.094244
H37   H     H_    0.778966 0.955834 0.340915 0.085853
H38   H     H_    0.080939 0.745378 0.402961 0.094188
H39   H     H_    0.221046 0.044186 0.340916 0.085816
H40   H     H_    0.955831 0.778963 0.659080 0.085814
H41   H     H_    0.745377 0.080936 0.597036 0.094261
H42   H     H_    0.044171 0.221036 0.659086 0.085845
H43   H     H_    0.254624 0.919059 0.597040 0.094215
H44   H     H_    0.176103 0.656570 0.375698 0.142686
H45   H     H_    0.464846 0.713368 0.161257 0.089123
H46   H     H_    0.246261 0.078765 0.213075 0.128112
H47   H     H_    0.823919 0.343430 0.375682 0.142776
H48   H     H_    0.753600 0.921232 0.213192 0.128089
H49   H     H_    0.078761 0.246351 0.786846 0.128077
H50   H     H_    0.343435 0.823883 0.624289 0.142738
H51   H     H_    0.921234 0.753611 0.786813 0.128059
H52   H     H_    0.656567 0.176076 0.624326 0.142760
H53   H     H_    0.578765 0.253600 0.713196 0.128053
H54   H     H_    0.843432 0.676091 0.875688 0.142755
H55   H     H_    0.421237 0.746361 0.713166 0.128081
H56   H     H_    0.753818 0.577498 0.089373 0.123307
H57   H     H_    0.156565 0.323872 0.875727 0.142531
H58   H     H_    0.676081 0.843430 0.124316 0.142745
H59   H     H_    0.746399 0.421233 0.286808 0.128092
H60   H     H_    0.323759 0.156570 0.124162 0.142773
H61   H     H_    0.253622 0.578769 0.286819 0.127972
H62   H     H_    0.957389 0.435363 0.666012 0.006696
H63   H     H_    0.646238 0.892539 0.619296 0.006339
H64   H     H_    0.042406 0.564883 0.666157 0.006578
H65   H     H_    0.353691 0.107578 0.619197 0.006357
H66   H     H_    0.892609 0.646209 0.380646 0.006290
H67   H     H_    0.535147 0.286643 0.161266 0.089118
H68   H     H_    0.564575 0.042690 0.333983 0.006730
H69   H     H_    0.107931 0.353629 0.381074 0.006502
H70   H     H_    0.435236 0.957479 0.333883 0.006631
H71   H     H_    0.392518 0.853747 0.119278 0.006366
H72   H     H_    0.065704 0.458289 0.166553 0.006401
H73   H     H_    0.607397 0.146235 0.119359 0.006266
H74   H     H_    0.935384 0.542635 0.166003 0.007121
H75   H     H_    0.457659 0.064958 0.833795 0.006610
H76   H     H_    0.146273 0.607516 0.880755 0.006229
H77   H     H_    0.542585 0.935331 0.833912 0.006784
H78   H     H_    0.246177 0.422509 0.089368 0.122729
H79   H     H_    0.853770 0.392629 0.880650 0.006381
H80   H     H_    0.964854 0.786642 0.338736 0.089104
N1    N     N_R   0.425360 0.368540 0.922560 -0.042951
N2    N     N_R   0.131460 0.925360 0.422560 -0.042969
N3    N     N_R   0.074640 0.131460 0.422560 -0.044448
N4    N     N_R   0.868540 0.074640 0.422560 -0.042979
N5    N     N_R   0.925360 0.131460 0.577440 -0.042977
N6    N     N_R   0.131460 0.074640 0.577440 -0.044459
N7    N     N_R   0.074640 0.868540 0.577440 -0.042961
N8    N     N_R   0.868540 0.925360 0.577440 -0.044462
N9    N     N_R   0.425340 0.631500 0.922560 -0.044295
N10   N     N_R   0.368500 0.425340 0.922560 -0.043015
N11   N     N_R   0.574660 0.368500 0.922560 -0.044298
N12   N     N_R   0.631460 0.425360 0.922560 -0.044460
N13   N     N_R   0.631500 0.574660 0.922560 -0.043040
N14   N     N_R   0.425340 0.368500 0.077440 -0.043038
N15   N     N_R   0.368500 0.574660 0.077440 -0.044296
N16   N     N_R   0.574660 0.631500 0.077440 -0.043037
N17   N     N_R   0.631500 0.425340 0.077440 -0.044302
N18   N     N_R   0.925340 0.131500 0.422560 -0.043027
N19   N     N_R   0.868500 0.925340 0.422560 -0.044301
N20   N     N_R   0.074660 0.868500 0.422560 -0.043033
N21   N     N_R   0.131500 0.074660 0.422560 -0.044299
N22   N     N_R   0.925340 0.868500 0.577440 -0.044298
N23   N     N_R   0.574640 0.631460 0.922560 -0.042977
N24   N     N_R   0.868500 0.074660 0.577440 -0.043036
N25   N     N_R   0.074660 0.131500 0.577440 -0.044306
N26   N     N_R   0.131500 0.925340 0.577440 -0.043032
N27   N     N_R   0.368540 0.574640 0.922560 -0.044467
N28   N     N_R   0.425360 0.631460 0.077440 -0.044456
N29   N     N_R   0.631460 0.574640 0.077440 -0.042983
N30   N     N_R   0.574640 0.368540 0.077440 -0.044471
N31   N     N_R   0.368540 0.425360 0.077440 -0.042914
N32   N     N_R   0.925360 0.868540 0.422560 -0.044469
Ni1   Ni    Ni4+2 0.500000 0.369720 0.000000 0.225744
Ni2   Ni    Ni4+2 0.630280 0.500000 0.000000 0.225820
Ni3   Ni    Ni4+2 0.500000 0.630280 0.000000 0.225788
Ni4   Ni    Ni4+2 0.369720 0.500000 0.000000 0.225630
Ni5   Ni    Ni4+2 1.000000 0.869720 0.500000 0.225760
Ni6   Ni    Ni4+2 0.130280 0.000000 0.500000 0.225756
Ni7   Ni    Ni4+2 1.000000 0.130280 0.500000 0.225737
Ni8   Ni    Ni4+2 0.869720 0.000000 0.500000 0.225797
O1    O     O_2   0.890930 0.411865 0.574425 -0.579155
O2    O     O_2   0.087567 0.390952 0.075221 -0.578579
O3    O     O_2   0.713291 0.181382 0.151716 -0.554295
O4    O     O_2   0.911889 0.609050 0.074445 -0.579170
O5    O     O_2   0.390974 0.087957 0.925309 -0.579033
O6    O     O_2   0.181434 0.713394 0.848342 -0.554324
O7    O     O_2   0.609004 0.911871 0.925497 -0.579174
O8    O     O_2   0.818632 0.286723 0.848300 -0.554312
O9    O     O_2   0.681402 0.786655 0.651683 -0.554355
O10   O     O_2   0.109032 0.588010 0.574616 -0.579090
O11   O     O_2   0.318554 0.213449 0.651656 -0.554336
O12   O     O_2   0.786719 0.681392 0.348297 -0.554344
O13   O     O_2   0.588177 0.109042 0.425578 -0.579250
O14   O     O_2   0.213724 0.318392 0.348487 -0.554347
O15   O     O_2   0.411921 0.890982 0.425441 -0.579168
O16   O     O_2   0.286637 0.818582 0.151671 -0.554354

loop_
_geom_bond_atom_site_label_1
_geom_bond_atom_site_label_2
_ccdc_geom_bond_type
C44   C49   S    
C33   C55   S    
C55   H26   S    
C30   C51   S    
C81   C107  A    
C67   C83   A    
C23   C45   S    
C6    H51   S    
C39   C106  S    
C13   N3    A    
C118  H80   S    
C66   C82   A    
C60   H31   S    
C6    C124  A    
C4    H49   S    
N4    Ni8   S    
C81   C115  S    
C46   H17   S    
N9    N27   A    
C19   O10   D    
N9    Ni3   S    
N2    N20   A    
C24   N4    A    
C63   N27   A    
C14   C128  A    
C65   C86   A    
C68   N21   A    
C30   H75   S    
C13   C84   A    
C86   C120  S    
C63   H34   S    
N29   Ni2   S    
C28   H73   S    
N2    Ni6   S    
N28   Ni3   S    
C27   O2    D    
C1    H1    S    
C84   C119  S    
C36   N7    A    
C52   N23   A    
C25   O15   D    
C59   H30   S    
C50   C95   S    
C39   C54   S    
C41   C75   A    
C57   N10   A    
C22   O13   D    
C57   C73   A    
C40   H11   S    
N14   N31   A    
C47   C99   S    
C105  C123  A    
C77   C111  S    
C28   C49   S    
N3    Ni7   S    
N5    Ni7   S    
C56   N9    A    
C107  H78   S    
C55   C91   S    
C9    H54   S    
C59   N13   A    
C93   C105  A    
N19   Ni8   S    
C21   C43   S    
C96   H67   S    
C22   C44   S    
C38   C55   S    
C51   H22   S    
C41   H12   S    
N11   N12   A    
C66   N19   A    
C65   N18   A    
C53   H24   S    
N8    N22   A    
C53   C93   S    
N31   Ni4   S    
C25   H70   S    
N10   Ni4   S    
C108  C125  A    
C80   C96   A    
N16   N29   A    
N15   Ni4   S    
C82   C121  S    
C97   C102  A    
C31   O6    D    
C19   H64   S    
N13   Ni2   S    
N4    N18   A    
C127  H46   S    
C71   N25   A    
C3    C12   A    
C47   H18   S    
C94   C104  A    
C15   C127  A    
N17   N30   A    
C64   C80   A    
C22   H68   S    
C2    C83   A    
N7    N26   A    
C90   C124  S    
C6    C9    A    
C56   H27   S    
C70   C87   A    
C16   C116  A    
C35   H6    S    
C32   C54   S    
C64   N17   A    
N14   Ni1   S    
C95   C103  A    
C58   C75   A    
C43   C103  S    
C29   C50   S    
C5    H50   S    
C57   H28   S    
C18   H63   S    
C2    N2    A    
C75   C109  S    
C1    N1    A    
C68   C84   A    
C29   O4    D    
C62   C79   A    
C7    C8    A    
C104  C122  A    
C21   O12   D    
C88   C122  S    
C19   C40   S    
C61   H32   S    
N1    Ni1   S    
C99   C116  A    
C44   C102  S    
C91   C109  A    
N25   Ni7   S    
C54   H25   S    
N20   Ni5   S    
C89   C123  S    
C23   O14   D    
N17   Ni2   S    
C14   C114  A    
C107  N31   A    
C58   H29   S    
C31   C53   S    
C56   C77   A    
N11   Ni1   S    
C49   H20   S    
C42   C104  S    
N24   Ni8   S    
C35   C88   A    
C101  C119  A    
C20   O11   D    
C43   H14   S    
N23   Ni3   S    
C18   C39   S    
C61   N15   A    
C54   C92   S    
C37   N8    A    
C45   H16   S    
C60   C81   A    
C24   H4    S    
C99   C100  A    
N30   Ni1   S    
C79   C85   A    
C61   C78   A    
C12   H58   S    
N13   N23   A    
C42   H13   S    
C13   H3    S    
C71   H42   S    
C4    C122  A    
C10   C111  A    
N6    Ni6   S    
N15   N28   A    
C7    C125  A    
C4    C11   A    
C26   H71   S    
N22   Ni5   S    
C31   H76   S    
N5    N24   A    
C45   C101  S    
C26   C47   S    
C74   H45   S    
C58   N11   A    
N21   Ni6   S    
C37   C90   A    
C67   H38   S    
C92   C106  A    
C93   C111  A    
N7    Ni5   S    
C85   H56   S    
C62   N16   A    
C79   C113  S    
C36   C89   A    
C74   C78   A    
N32   Ni5   S    
C21   H66   S    
C15   C115  A    
N6    N25   A    
C65   H36   S    
N1    N10   A    
C74   N28   A    
C69   C90   A    
C103  C121  A    
C43   C50   S    
C20   H65   S    
C87   C125  S    
C41   N12   A    
C102  C120  A    
C72   H43   S    
C73   C112  S    
C12   C113  A    
C63   C77   A    
C45   C48   S    
C118  N32   A    
C9    C110  A    
C36   H7    S    
C46   C100  S    
C46   C47   S    
C33   H79   S    
C128  H47   S    
C37   H8    S    
C29   H74   S    
N3    N21   A    
C66   H37   S    
C11   C112  A    
C11   H57   S    
C96   N30   A    
C91   C108  A    
C70   H41   S    
C33   O8    D    
C78   C116  S    
C27   H72   S    
C80   C114  S    
C52   C76   A    
C34   N5    A    
C60   N14   A    
C23   H69   S    
C20   C42   S    
C120  C128  A    
N16   Ni3   S    
C42   C51   S    
C30   O5    D    
C17   H62   S    
N8    Ni8   S    
C98   C101  A    
C48   C98   S    
C15   H60   S    
C5    C123  A    
C34   H5    S    
C8    H53   S    
C39   H10   S    
C1    C73   A    
C44   H15   S    
C83   C117  S    
C97   C114  A    
C69   H40   S    
C5    C10   A    
C69   N22   A    
N26   Ni6   S    
N18   Ni7   S    
C14   H59   S    
C50   H21   S    
C92   C110  A    
C98   C115  A    
N12   Ni2   S    
C67   N20   A    
C95   C113  A    
C52   H23   S    
N19   N32   A    
C59   C76   A    
C32   O7    D    
C17   O1    D    
C2    H2    S    
C38   H9    S    
C72   N26   A    
C7    H52   S    
C85   N29   A    
C34   C87   A    
C18   O9    D    
C27   C48   S    
C38   C108  S    
C35   N6    A    
C70   N24   A    
N27   Ni4   S    
C28   O3    D    
C126  H44   S    
C16   H61   S    
C51   C94   S    
C49   C97   S    
C71   C88   A    
C62   H33   S    
C68   H39   S    
C3    H48   S    
C26   O16   D    
C17   C38   S    
C76   C110  S    
C40   C53   S    
C10   H55   S    
C106  C124  A    
C82   C118  A    
C40   C105  S    
C117  C126  A    
C72   C89   A    
C100  C117  A    
C32   H77   S    
C8    C109  A    
C24   C86   A    
C25   C46   S    
C16   C126  A    
C94   C112  A    
C3    C121  A    
C119  C127  A    
C48   H19   S    
C64   H35   S    
