data_mof_unit_39227.cif
_audit_creation_date              2012-12-11T14:08:06-0500
_audit_creation_method            fapswitch 2.2
_symmetry_space_group_name_H-M    P1
_symmetry_Int_Tables_number       1
_space_group_crystal_system       triclinic
_cell_length_a                    11.281159
_cell_length_b                    11.452514
_cell_length_c                    18.818487
_cell_angle_alpha                 89.339222
_cell_angle_beta                  89.309899
_cell_angle_gamma                 60.461459
_cell_volume                      2115.09625264

loop_
_atom_site_label
_atom_site_type_symbol
_atom_type_description
_atom_site_fract_x
_atom_site_fract_y
_atom_site_fract_z
_atom_type_partial_charge
C1    C     C_R   0.242265 0.639254 0.609107 0.572297
C2    C     C_3   0.736386 0.518738 0.801874 0.120926
C3    C     C_3   0.695321 0.669624 0.816678 -0.024615
C4    C     C_3   0.663265 0.638417 0.681381 -0.035205
C5    C     C_3   0.742293 0.715997 0.686017 0.163334
C6    C     C_3   0.755541 0.498148 0.720080 0.450566
C7    C     C_2   0.683350 0.137261 0.663623 0.275571
C8    C     C_2   0.695421 0.158488 0.825246 0.291658
C9    C     C_2   0.803757 0.112128 0.779133 0.311692
C10   C     C_2   0.798037 0.120022 0.698092 0.333595
C11   C     C_2   0.178982 0.642060 0.680166 0.363104
C12   C     C_R   0.645625 0.611356 0.605480 0.627285
C13   C     C_2   0.185794 0.671758 0.838846 0.315299
C14   C     C_2   0.223216 0.553280 0.806153 0.343222
C15   C     C_2   0.240896 0.537130 0.726632 0.397874
C16   C     C_2   0.657055 0.682034 0.330197 0.243139
C17   C     C_2   0.655085 0.668558 0.162520 0.328486
C18   C     C_2   0.735341 0.673688 0.212834 0.246186
C19   C     C_2   0.748101 0.607766 0.280817 0.360562
C20   C     C_2   0.648607 0.167710 0.329745 0.295707
C21   C     C_2   0.634389 0.209433 0.154741 0.190790
C22   C     C_2   0.564956 0.202373 0.210731 0.224574
C23   C     C_R   0.630227 0.222903 0.598717 0.587062
C24   C     C_2   0.579527 0.254474 0.277199 0.282457
C25   C     C_2   0.117006 0.695833 0.349675 0.245697
C26   C     C_2   0.130977 0.685089 0.190129 0.298221
C27   C     C_2   0.109699 0.793455 0.230665 0.346785
C28   C     C_2   0.093711 0.803611 0.309097 0.307005
C29   C     C_R   0.705561 0.098322 0.896892 0.601455
C30   C     C_R   0.722982 0.687490 0.890805 0.638276
C31   C     C_R   0.116552 0.708620 0.908148 0.620452
C32   C     C_R   0.673393 0.112569 0.099111 0.615331
C33   C     C_R   0.693183 0.688003 0.092135 0.538685
C34   C     C_R   0.218174 0.652106 0.405338 0.589641
C35   C     C_R   0.088307 0.713318 0.114479 0.543377
C36   C     C_R   0.641995 0.623578 0.395539 0.588229
C37   C     C_R   0.618708 0.226423 0.398948 0.526128
C38   C     C_3   0.539759 0.759625 0.800677 0.389780
C39   C     C_3   0.519227 0.722782 0.722604 0.356288
C40   C     C_3   0.782135 0.711068 0.766198 0.430187
Cr1   Cr    Cr6+3 0.393010 0.398050 0.501480 1.127319
Cr2   Cr    Cr6+3 0.398820 0.707980 0.501630 1.119854
Cr3   Cr    Cr6+3 0.708140 0.393940 0.496850 1.079430
Cr4   Cr    Cr6+3 0.937950 0.938450 0.008940 1.103976
Cr5   Cr    Cr6+3 0.626180 0.937030 0.994750 1.132344
Cr6   Cr    Cr6+3 0.937790 0.625760 0.001410 1.107386
H1    H     H_    0.672751 0.818806 0.671715 0.101219
H2    H     H_    0.647319 0.507085 0.817454 0.200174
O1    O     O_R   0.507110 0.256280 0.580300 -0.492831
O2    O     O_R   0.524640 0.695370 0.425100 -0.468008
O3    O     O_R   0.735890 0.504390 0.415980 -0.460228
O4    O     O_R   0.690560 0.277820 0.422350 -0.523317
O5    O     O_3   0.499990 0.499990 0.499980 -0.293914
O6    O     O_R   0.089190 0.825870 0.932320 -0.429545
O7    O     O_R   0.819070 0.053960 0.931440 -0.489513
O8    O     O_R   0.607070 0.076440 0.916460 -0.447630
O9    O     O_R   0.647110 0.806550 0.917690 -0.447268
O10   O     O_R   0.837080 0.593860 0.915300 -0.440051
O11   O     O_R   0.064770 0.636080 0.932550 -0.459254
O12   O     O_R   0.280830 0.527190 0.577940 -0.480727
O13   O     O_R   0.068250 0.829200 0.092940 -0.506035
O14   O     O_R   0.799650 0.057040 0.080330 -0.504243
O15   O     O_R   0.586130 0.079760 0.077080 -0.468387
O16   O     O_R   0.627700 0.809630 0.066580 -0.482122
O17   O     O_R   0.816140 0.597180 0.075920 -0.535773
O18   O     O_R   0.045360 0.639170 0.081440 -0.496870
O19   O     O_3   0.833980 0.833750 0.001700 -0.296234
O20   O     O_R   0.261360 0.738990 0.584270 -0.482227
O21   O     O_R   0.532590 0.694780 0.574370 -0.470708
O22   O     O_R   0.744470 0.503750 0.577000 -0.444673
O23   O     O_R   0.698520 0.277230 0.571620 -0.484197
O24   O     O_R   0.498530 0.256920 0.419280 -0.498366
O25   O     O_R   0.272880 0.527780 0.428680 -0.443907
O26   O     O_R   0.252780 0.739630 0.423250 -0.478977
O27   O     O_3   0.508272 0.896880 0.802866 -0.539268
C41   C     C_3   0.378408 0.988502 0.830730 0.060712
H3    H     H_    0.354834 0.091521 0.815380 0.187984
H4    H     H_    0.379007 0.983805 0.889698 0.168109
H5    H     H_    0.296206 0.973093 0.809317 0.241179
O28   O     O_3   0.891987 0.445889 0.692755 -0.453249
C42   C     C_3   0.992798 0.317844 0.715652 0.116585
H6    H     H_    0.068879 0.326583 0.748460 0.216525
H7    H     H_    0.047464 0.257200 0.668503 0.155748
H8    H     H_    0.952039 0.265166 0.746765 0.241958
Cl1   Cl    Cl    0.954032 0.594332 0.781616 -0.412638
O29   O     O_3   0.859086 0.662274 0.640038 -0.440370
C43   C     C_3   0.832976 0.726289 0.572285 -0.058775
H9    H     H_    0.931651 0.689448 0.543933 0.157129
H10   H     H_    0.784429 0.836781 0.575714 0.033640
H11   H     H_    0.770701 0.701279 0.537630 0.123463
Cl2   Cl    Cl    0.959006 0.075321 0.817260 -0.560737
O30   O     O_3   0.902801 0.137680 0.666383 -0.566361
C44   C     C_3   0.945524 0.095179 0.595328 -0.097734
H12   H     H_    0.890896 0.049443 0.568981 0.027954
H13   H     H_    0.056531 0.023226 0.594224 0.149274
H14   H     H_    0.936487 0.181080 0.563261 0.174976
Cl3   Cl    Cl    0.540063 0.300210 0.806384 -0.451959
O31   O     O_3   0.595326 0.108282 0.702340 -0.518428
C45   C     C_3   0.524667 0.062526 0.660368 -0.005110
H15   H     H_    0.501127 0.002775 0.695912 0.231441
H16   H     H_    0.581974 0.005754 0.612634 0.046331
H17   H     H_    0.422740 0.141359 0.644417 0.215900
Cl4   Cl    Cl    0.241068 0.412880 0.857185 -0.472253
Cl5   Cl    Cl    0.295371 0.375727 0.694940 -0.486386
Cl6   Cl    Cl    0.183754 0.807149 0.794132 -0.449692
Cl7   Cl    Cl    0.449872 0.720328 0.871443 -0.598240
O32   O     O_3   0.043130 0.724374 0.693920 -0.512028
C46   C     C_3   0.990798 0.840230 0.654396 -0.034383
H18   H     H_    0.035343 0.898707 0.675792 0.240240
H19   H     H_    0.880537 0.890196 0.662355 0.171644
H20   H     H_    0.006983 0.823601 0.596305 0.047892
Cl8   Cl    Cl    0.810439 0.777026 0.204108 -0.535945
O33   O     O_3   0.835453 0.470308 0.292017 -0.515241
C47   C     C_3   0.937456 0.411668 0.239190 -0.042014
H21   H     H_    0.994865 0.466482 0.232889 0.204197
H22   H     H_    0.893540 0.406885 0.187629 0.170462
H23   H     H_    0.010845 0.307497 0.255705 0.154807
O34   O     O_3   0.574066 0.610443 0.176489 -0.511425
C48   C     C_3   0.470898 0.650108 0.125158 -0.011615
H24   H     H_    0.411967 0.761283 0.118997 0.157088
H25   H     H_    0.514122 0.601041 0.073304 0.127406
H26   H     H_    0.398680 0.616889 0.143343 0.165362
Cl9   Cl    Cl    0.524805 0.848534 0.310958 -0.475978
Cl10  Cl    Cl    0.483263 0.103891 0.213698 -0.479380
Cl11  Cl    Cl    0.493055 0.431750 0.287711 -0.516336
Cl12  Cl    Cl    0.716013 0.307475 0.154804 -0.652140
O35   O     O_3   0.714835 0.029116 0.318264 -0.552715
C49   C     C_3   0.718537 0.956941 0.380500 -0.049653
H27   H     H_    0.614004 0.988245 0.400453 0.175240
H28   H     H_    0.778849 0.968486 0.423154 0.027783
H29   H     H_    0.767269 0.849290 0.367627 0.214908
O36   O     O_3   0.128907 0.894024 0.199086 -0.541871
C50   C     C_3   0.008711 0.020599 0.202723 -0.000909
H30   H     H_    0.019575 0.083601 0.243537 0.165552
H31   H     H_    0.914192 0.014832 0.213160 0.159433
H32   H     H_    0.996468 0.073063 0.151180 0.178695
Cl13  Cl    Cl    0.442038 0.623994 0.724513 -0.499892
O37   O     O_3   0.118075 0.902773 0.336131 -0.515667
C51   C     C_3   0.014497 0.984677 0.384458 -0.086703
H33   H     H_    0.998978 0.925795 0.427281 0.082949
H34   H     H_    0.918980 0.049318 0.355754 0.143210
H35   H     H_    0.044996 0.052079 0.410559 0.149745
O38   O     O_3   0.155906 0.565831 0.222527 -0.556933
C52   C     C_3   0.238716 0.452896 0.180603 -0.060043
H36   H     H_    0.321158 0.461005 0.151910 0.117173
H37   H     H_    0.176747 0.431005 0.143477 0.138736
H38   H     H_    0.286600 0.365931 0.217011 0.214726
Cl14  Cl    Cl    0.012068 0.622186 0.348090 -0.614569
Cl15  Cl    Cl    0.389698 0.868756 0.677129 -0.576011
Cl16  Cl    Cl    0.772374 0.863986 0.789747 -0.537281
O39   O     O_3   0.853159 0.420573 0.839009 -0.521833
C53   C     C_3   0.817000 0.367314 0.898630 -0.020796
H39   H     H_    0.746585 0.446124 0.935977 0.133465
H40   H     H_    0.766292 0.311787 0.881833 0.143480
H41   H     H_    0.910785 0.297568 0.927834 0.175897
Cl17  Cl    Cl    0.695794 0.391154 0.699580 -0.524239

loop_
_geom_bond_atom_site_label_1
_geom_bond_atom_site_label_2
_ccdc_geom_bond_type
C7    C10   D    
C12   O21   A    
C39   Cl13  S    
C44   H12   S    
C7    O31   S    
Cr6   O11   S    
C1    C11   S    
C41   H5    S    
C43   H9    S    
C49   H27   S    
C9    Cl2   S    
C47   H21   S    
C33   O17   A    
C25   C28   D    
C5    H1    S    
Cr5   O9    S    
C26   C27   D    
C8    C29   S    
C41   H4    S    
C16   Cl9   S    
C18   Cl8   S    
Cr6   O18   S    
C16   C19   D    
Cr2   O5    S    
C38   C39   S    
C51   H35   S    
Cr3   O4    S    
C23   O1    A    
C19   O33   S    
Cr3   O22   S    
O38   C52   S    
C30   O9    A    
C1    O20   A    
C46   H18   S    
C18   C19   S    
C31   O11   A    
O34   C48   S    
O33   C47   S    
C11   C15   D    
Cr3   O5    S    
C20   C24   D    
Cr5   O8    S    
O36   C50   S    
Cr5   O19   S    
C50   H32   S    
O32   C46   S    
C53   H41   S    
C13   C14   D    
C15   Cl5   S    
C4    C12   S    
C9    C10   S    
C25   C34   S    
C10   O30   S    
C44   H13   S    
C21   C22   D    
Cr6   O10   S    
Cr2   O20   S    
C27   O36   S    
C2    C6    S    
C17   C33   S    
C52   H38   S    
Cr1   O1    S    
C42   H7    S    
C42   H6    S    
C38   O27   S    
C48   H25   S    
C21   C32   S    
Cr2   O26   S    
C23   O23   A    
C8    Cl3   S    
C28   O37   S    
C41   H3    S    
C3    C38   S    
Cr6   O17   S    
C13   Cl6   S    
C1    O12   A    
C37   O4    A    
O29   C43   S    
C8    C9    D    
C29   O7    A    
C35   O18   A    
Cr4   O14   S    
Cr5   O15   S    
Cr2   O21   S    
C40   Cl1   S    
C38   Cl7   S    
C3    C30   S    
O27   C41   S    
C6    O28   S    
C45   H15   S    
C4    C39   S    
O39   C53   S    
C17   C18   D    
C40   Cl16  S    
C35   O13   A    
Cr1   O5    S    
C36   O3    A    
C17   O34   S    
C34   O26   A    
Cr1   O24   S    
C5    O29   S    
C52   H37   S    
C45   H16   S    
Cr2   O2    S    
C3    C40   S    
C44   H14   S    
C43   H10   S    
C11   O32   S    
C50   H30   S    
C22   C24   S    
C37   O24   A    
C4    C6    S    
O35   C49   S    
C49   H29   S    
C42   H8    S    
C36   O2    A    
C51   H33   S    
C20   O35   S    
C48   H26   S    
C2    O39   S    
C12   O22   A    
Cr3   O23   S    
C13   C31   S    
Cr1   O12   S    
C53   H40   S    
O28   C42   S    
C49   H28   S    
C47   H22   S    
C48   H24   S    
C22   Cl10  S    
C29   O8    A    
Cr4   O13   S    
C32   O15   A    
C39   Cl15  S    
Cr5   O16   S    
C46   H20   S    
C52   H36   S    
C2    H2    S    
C2    C3    S    
C32   O14   A    
Cr6   O19   S    
C16   C36   S    
C20   C37   S    
C51   H34   S    
Cr4   O7    S    
Cr3   O3    S    
C14   Cl4   S    
C24   Cl11  S    
C33   O16   A    
C7    C23   S    
C30   O10   A    
O30   C44   S    
C46   H19   S    
C25   Cl14  S    
C31   O6    A    
C47   H23   S    
O37   C51   S    
C34   O25   A    
Cr1   O25   S    
Cr4   O6    S    
C26   C35   S    
C4    C5    S    
C45   H17   S    
C53   H39   S    
O31   C45   S    
C43   H11   S    
C27   C28   S    
C50   H31   S    
C14   C15   S    
Cr4   O19   S    
C21   Cl12  S    
C5    C40   S    
C6    Cl17  S    
C26   O38   S    
