data_mof_unit_43208.cif
_audit_creation_date              2012-12-10T18:05:44-0500
_audit_creation_method            fapswitch 2.2
_symmetry_space_group_name_H-M    P1
_symmetry_Int_Tables_number       1
_space_group_crystal_system       triclinic
_cell_length_a                    10.863082
_cell_length_b                    10.817047
_cell_length_c                    9.523438
_cell_angle_alpha                 90.066029
_cell_angle_beta                  90.229617
_cell_angle_gamma                 90.411319
_cell_volume                      1119.02696495

loop_
_atom_site_label
_atom_site_type_symbol
_atom_type_description
_atom_site_fract_x
_atom_site_fract_y
_atom_site_fract_z
_atom_type_partial_charge
C1    C     C_R   0.500173 0.262114 0.499920 0.783311
C2    C     C_R   0.500087 0.737892 0.500086 0.788326
C3    C     C_R   0.871831 0.497074 0.502261 -0.100113
C4    C     C_R   0.128434 0.503795 0.498038 -0.107877
C5    C     C_R   0.939261 0.455031 0.619958 0.056012
C6    C     C_R   0.061200 0.547245 0.380936 0.051186
C7    C     C_R   0.496222 0.063711 0.372393 -0.197559
C8    C     C_R   0.504843 0.936307 0.627638 -0.193570
C9    C     C_R   0.496274 0.935912 0.372484 -0.198580
C10   C     C_R   0.505074 0.064120 0.627553 -0.195520
C11   C     C_R   0.500334 0.871748 0.500097 -0.010825
C12   C     C_R   0.500513 0.128271 0.499934 -0.009914
C13   C     C_R   0.459151 0.399329 0.073894 -0.056901
C14   C     C_R   0.540082 0.600944 0.926018 -0.045821
C15   C     C_R   0.458721 0.399502 0.925372 -0.028241
C16   C     C_R   0.540680 0.600737 0.074585 -0.031919
C17   C     C_R   0.262269 0.502127 0.499398 0.795073
C18   C     C_R   0.737830 0.498153 0.500669 0.800573
C19   C     C_R   0.238038 0.764857 0.144226 -0.148508
C20   C     C_R   0.770954 0.245745 0.872607 -0.165415
C21   C     C_R   0.177992 0.716387 0.261574 -0.182645
C22   C     C_R   0.829775 0.289365 0.752383 -0.205712
C23   C     C_R   0.121039 0.599563 0.254636 0.022719
C24   C     C_R   0.880202 0.409125 0.749751 0.049217
C25   C     C_R   0.126035 0.530398 0.129358 0.459699
C26   C     C_R   0.870657 0.487441 0.867783 0.510698
C27   C     C_R   0.185667 0.580811 0.011541 -0.140188
C28   C     C_R   0.811180 0.440905 0.989297 -0.143790
C29   C     C_R   0.241777 0.697205 0.019397 -0.177064
C30   C     C_R   0.762285 0.321110 0.990949 -0.138644
C31   C     C_R   0.933560 0.542607 0.384304 -0.185675
C32   C     C_R   0.066806 0.458381 0.616025 -0.193030
Cu1   Cu    Cu3+1 0.500000 0.500020 0.640660 0.943476
Cu2   Cu    Cu3+1 0.500000 0.499980 0.359340 0.933473
H1    H     H_    0.287529 0.735334 0.928268 0.146136
H2    H     H_    0.717393 0.286659 0.084491 0.147899
H3    H     H_    0.424786 0.318941 0.869885 0.111261
H4    H     H_    0.574458 0.681379 0.130039 0.109583
H5    H     H_    0.281414 0.855104 0.149923 0.128521
H6    H     H_    0.732284 0.153257 0.874163 0.132507
H7    H     H_    0.176171 0.769487 0.358039 0.134822
H8    H     H_    0.835702 0.230162 0.660876 0.136505
H9    H     H_    0.187312 0.530514 0.913449 0.149146
H10   H     H_    0.802783 0.495275 0.083746 0.121849
H11   H     H_    0.882202 0.578309 0.295735 0.133798
H12   H     H_    0.118050 0.423428 0.705277 0.145288
H13   H     H_    0.492720 0.111620 0.272648 0.135463
H14   H     H_    0.508329 0.888388 0.727376 0.136220
H15   H     H_    0.493076 0.887673 0.272801 0.138187
H16   H     H_    0.508832 0.112371 0.727238 0.139275
H17   H     H_    0.426573 0.318265 0.128800 0.101407
H18   H     H_    0.572326 0.682030 0.870849 0.113700
N1    N     N_R   0.500030 0.500030 0.852070 -0.147298
N2    N     N_R   0.499970 0.499970 0.147930 -0.145646
O1    O     O_R   0.499990 0.319660 0.618740 -0.590460
O2    O     O_R   0.500010 0.680340 0.381260 -0.589585
O3    O     O_R   0.499990 0.319630 0.381170 -0.600383
O4    O     O_R   0.500010 0.680370 0.618830 -0.596192
O5    O     O_R   0.319650 0.500020 0.618780 -0.586387
O6    O     O_R   0.680350 0.499980 0.381220 -0.589227
O7    O     O_R   0.319640 0.500000 0.381210 -0.578978
O8    O     O_R   0.680360 0.500000 0.618790 -0.566125
O9    O     O_3   0.062757 0.419260 0.119662 -0.596727
C33   C     C_3   0.147386 0.321347 0.112007 0.058036
H19   H     H_    0.210357 0.322343 0.204637 0.156361
H20   H     H_    0.201701 0.326241 0.013370 0.121782
C34   C     C_3   0.077124 0.199261 0.112131 -0.790990
H21   H     H_    0.016089 0.193492 0.018502 0.257052
H22   H     H_    0.142911 0.121176 0.109262 0.190023
H23   H     H_    0.020378 0.191660 0.208550 0.251607
O10   O     O_3   0.925497 0.604450 0.858357 -0.592681
C35   C     C_3   0.879383 0.691341 0.955185 0.063511
H24   H     H_    0.916557 0.673185 0.061815 0.146858
H25   H     H_    0.777339 0.690340 0.957222 0.114766
C36   C     C_3   0.920713 0.820267 0.911537 -0.779432
H26   H     H_    0.883484 0.842363 0.805774 0.243510
H27   H     H_    0.886390 0.889460 0.987935 0.191655
H28   H     H_    0.022767 0.825663 0.908628 0.257134

loop_
_geom_bond_atom_site_label_1
_geom_bond_atom_site_label_2
_ccdc_geom_bond_type
Cu1   O1    S    
Cu2   O2    S    
Cu1   O4    S    
C27   C29   A    
C35   H25   S    
C20   C30   A    
C15   N1    A    
C19   C21   A    
C24   C26   A    
C20   H6    S    
C19   H5    S    
C3    C18   S    
C25   O9    S    
C15   H3    S    
C17   O7    A    
C13   H17   S    
C14   H18   S    
Cu1   O8    S    
Cu2   O3    S    
C5    C32   A    
C6    C31   A    
Cu1   O5    S    
Cu2   O6    S    
C26   O10   S    
C1    C12   S    
C35   C36   S    
C2    C11   S    
C21   C23   A    
Cu1   N1    S    
C7    C12   A    
C34   H21   S    
C33   C34   S    
C9    H15   S    
C4    C6    A    
C18   O8    A    
C28   H10   S    
Cu2   O7    S    
C34   H22   S    
C33   H20   S    
C36   H26   S    
C8    H14   S    
C1    O3    A    
C36   H27   S    
Cu1   Cu2   S    
C3    C31   A    
C9    C11   A    
C4    C32   A    
C10   C12   A    
C17   O5    A    
C21   H7    S    
C4    C17   S    
C18   O6    A    
C20   C22   A    
Cu2   N2    S    
C13   C15   A    
C22   C24   A    
C10   H16   S    
C13   N2    A    
C7    C9    A    
C32   H12   S    
C35   H24   S    
C3    C5    A    
C2    O4    A    
C25   C27   A    
C29   H1    S    
C26   C28   A    
C30   H2    S    
C34   H23   S    
C33   H19   S    
C28   C30   A    
C1    O1    A    
O10   C35   S    
C2    O2    A    
C22   H8    S    
C5    C24   S    
C8    C11   A    
C6    C23   S    
C14   C16   A    
C23   C25   A    
C36   H28   S    
C16   N2    A    
O9    C33   S    
C27   H9    S    
C14   N1    A    
C8    C10   A    
C31   H11   S    
C16   H4    S    
C7    H13   S    
C19   C29   A    
