data_mof_unit_63828.cif
_audit_creation_date              2012-12-10T20:17:15-0500
_audit_creation_method            fapswitch 2.2
_symmetry_space_group_name_H-M    P1
_symmetry_Int_Tables_number       1
_space_group_crystal_system       triclinic
_cell_length_a                    35.565375
_cell_length_b                    35.555472
_cell_length_c                    23.514572
_cell_angle_alpha                 89.979856
_cell_angle_beta                  90.175862
_cell_angle_gamma                 90.004107
_cell_volume                      29735.0617828

loop_
_atom_site_label
_atom_site_type_symbol
_atom_type_description
_atom_site_fract_x
_atom_site_fract_y
_atom_site_fract_z
_atom_type_partial_charge
Br1   Br    Br    0.923308 0.298689 0.459279 -0.472612
Br2   Br    Br    0.798719 0.576850 0.959630 -0.473215
Br3   Br    Br    0.576566 0.201281 0.959109 -0.472446
Br4   Br    Br    0.198157 0.430539 0.927307 -0.445486
Br5   Br    Br    0.560935 0.799962 0.082136 -0.449443
Br6   Br    Br    0.202951 0.570258 0.053224 -0.477764
Br7   Br    Br    0.423459 0.201263 0.040930 -0.473351
Br8   Br    Br    0.798748 0.423242 0.040259 -0.472669
Br9   Br    Br    0.298632 0.076698 0.459643 -0.472303
Br10  Br    Br    0.076754 0.701290 0.459897 -0.471939
Br11  Br    Br    0.701150 0.923309 0.458938 -0.471136
Br12  Br    Br    0.076770 0.298768 0.541001 -0.471224
Br13  Br    Br    0.701372 0.076707 0.540308 -0.472373
Br14  Br    Br    0.923277 0.701278 0.540121 -0.472489
Br15  Br    Br    0.298848 0.923284 0.541104 -0.471132
Br16  Br    Br    0.439067 0.800008 0.917788 -0.449741
C1    C     C_R   0.999999 0.426503 0.500032 0.968433
C2    C     C_1   0.266280 0.000017 0.500566 0.174894
C3    C     C_R   0.826539 0.999607 0.447966 -0.129476
C4    C     C_R   0.000479 0.173415 0.551608 -0.129656
C5    C     C_R   0.826605 0.000448 0.551169 -0.130067
C6    C     C_R   0.999598 0.826565 0.551639 -0.129949
C7    C     C_R   0.173461 0.999595 0.552035 -0.129419
C8    C     C_R   0.499353 0.673728 0.948379 -0.129346
C9    C     C_R   0.673361 0.500539 0.948711 -0.130088
C10   C     C_R   0.500449 0.326574 0.948439 -0.129735
C11   C     C_R   0.327087 0.497761 0.945210 -0.130706
C12   C     C_R   0.500663 0.673719 0.051530 -0.129234
C13   C     C_1   0.000024 0.733728 0.500035 0.174929
C14   C     C_R   0.325724 0.498950 0.048343 -0.128153
C15   C     C_R   0.499578 0.326562 0.051643 -0.130047
C16   C     C_R   0.673489 0.499710 0.051916 -0.129651
C17   C     C_R   0.999633 0.134343 0.448314 -0.183395
C18   C     C_R   0.134298 0.000419 0.448632 -0.183229
C19   C     C_R   0.000423 0.865684 0.448353 -0.183309
C20   C     C_R   0.865642 0.999605 0.448020 -0.183274
C21   C     C_R   0.000444 0.134310 0.551671 -0.183254
C22   C     C_R   0.865702 0.000428 0.551368 -0.183226
C23   C     C_R   0.999599 0.865670 0.551703 -0.183372
C24   C     C_1   0.733720 0.000036 0.499432 0.174867
C25   C     C_R   0.134358 0.999599 0.551980 -0.183242
C26   C     C_R   0.499366 0.634570 0.948323 -0.183375
C27   C     C_R   0.634267 0.500480 0.948568 -0.183307
C28   C     C_R   0.500433 0.365679 0.948356 -0.183255
C29   C     C_R   0.366168 0.498400 0.946553 -0.181572
C30   C     C_R   0.500646 0.634562 0.051611 -0.183231
C31   C     C_R   0.364882 0.499559 0.049829 -0.184668
C32   C     C_R   0.499581 0.365668 0.051705 -0.183571
C33   C     C_R   0.634385 0.499669 0.051917 -0.183231
C34   C     C_R   0.000024 0.114515 0.499988 -0.049800
C35   C     C_1   0.500006 0.766864 0.999945 0.168813
C36   C     C_R   0.114516 0.000006 0.500240 -0.049858
C37   C     C_R   0.000007 0.885487 0.500023 -0.049773
C38   C     C_R   0.885484 0.000011 0.499760 -0.049859
C39   C     C_R   0.500004 0.614691 0.999974 -0.051102
C40   C     C_R   0.614515 0.500048 0.000203 -0.050009
C41   C     C_R   0.500004 0.385485 0.000025 -0.049828
C42   C     C_R   0.385373 0.499338 0.998880 -0.050746
C43   C     C_R   0.000077 0.192815 0.500008 0.136899
C44   C     C_R   0.192813 0.000017 0.500492 0.136804
C45   C     C_R   0.000023 0.807191 0.500040 0.136918
C46   C     C_1   0.766274 0.500137 0.000283 0.175040
C47   C     C_R   0.807187 0.000033 0.499508 0.136804
C48   C     C_R   0.500009 0.693186 0.999949 0.130656
C49   C     C_R   0.692809 0.500148 0.000344 0.136728
C50   C     C_R   0.500017 0.307186 0.000046 0.136759
C51   C     C_R   0.306975 0.498060 0.996041 0.133792
C52   C     C_1   0.000082 0.232710 0.500029 -0.006123
C53   C     C_1   0.232711 0.000018 0.500582 -0.006143
C54   C     C_1   0.000026 0.767297 0.500042 -0.006078
C55   C     C_1   0.767290 0.000037 0.499417 -0.006171
C56   C     C_1   0.500008 0.733215 0.999941 -0.006356
C57   C     C_1   0.500020 0.233720 0.000045 0.175007
C58   C     C_1   0.732705 0.500156 0.000364 -0.006191
C59   C     C_1   0.500020 0.267291 0.000051 -0.006116
C60   C     C_1   0.267004 0.498068 0.994411 -0.006490
C61   C     C_3   0.938241 0.379589 0.393625 0.162171
C62   C     C_3   0.951327 0.415398 0.364455 -0.843602
C63   C     C_3   0.379356 0.061540 0.393805 0.161996
C64   C     C_3   0.415128 0.048430 0.364703 -0.843494
C65   C     C_3   0.061757 0.620423 0.394104 0.162714
C66   C     C_3   0.048721 0.584598 0.364841 -0.842319
C67   C     C_3   0.620166 0.938218 0.393480 0.164700
C68   C     C_1   0.233391 0.498489 0.993356 0.171911
C69   C     C_3   0.584268 0.951078 0.364152 -0.842397
C70   C     C_3   0.061719 0.379595 0.606663 0.164340
C71   C     C_3   0.048702 0.415400 0.635876 -0.843420
C72   C     C_3   0.620651 0.061527 0.606158 0.162039
C73   C     C_3   0.584878 0.048414 0.635273 -0.843397
C74   C     C_3   0.938256 0.620391 0.605922 0.161914
C75   C     C_3   0.951333 0.584579 0.635209 -0.842788
C76   C     C_3   0.379835 0.938186 0.606550 0.164687
C77   C     C_3   0.415736 0.951041 0.635867 -0.842405
C78   C     C_3   0.469404 0.892713 0.876333 0.143955
C79   C     C_R   0.968240 0.325707 0.480760 0.148742
C80   C     C_3   0.442380 0.912683 0.836183 -0.753049
C81   C     C_3   0.879506 0.561718 0.893870 0.160825
C82   C     C_3   0.915351 0.548738 0.864835 -0.840444
C83   C     C_3   0.561271 0.120413 0.893485 0.161106
C84   C     C_3   0.548205 0.084553 0.864352 -0.841274
C85   C     C_3   0.105200 0.458872 0.881889 0.148133
C86   C     C_3   0.083363 0.429274 0.848803 -0.745156
C87   C     C_3   0.530579 0.892642 0.123643 0.143917
C88   C     C_3   0.557590 0.912612 0.163795 -0.753028
C89   C     C_3   0.122805 0.550391 0.116438 0.163693
C90   C     C_R   0.325669 0.031779 0.481085 0.149075
C91   C     C_3   0.086954 0.536255 0.144107 -0.852924
C92   C     C_3   0.438715 0.120365 0.106526 0.161003
C93   C     C_3   0.451776 0.084499 0.135677 -0.841355
C94   C     C_3   0.879743 0.437933 0.105929 0.162394
C95   C     C_3   0.915540 0.451035 0.135284 -0.843857
C96   C     C_R   0.031806 0.674293 0.480967 0.148798
C97   C     C_R   0.426499 0.999997 0.500054 0.968379
C98   C     C_R   0.674217 0.968245 0.480322 0.148302
C99   C     C_R   0.031816 0.325739 0.519484 0.148622
C100  C     C_R   0.674333 0.031789 0.518893 0.149037
C101  C     C_R   0.968222 0.674286 0.519061 0.148769
C102  C     C_R   0.325782 0.968227 0.519693 0.148327
C103  C     C_R   0.474653 0.826554 0.964901 0.186607
C104  C     C_R   0.825701 0.531870 0.980935 0.149304
C105  C     C_R   0.531719 0.174283 0.980654 0.148981
C106  C     C_R   0.172870 0.470957 0.966076 0.185807
C107  C     C_R   0.525348 0.826534 0.035036 0.186633
C108  C     C_R   0.000001 0.573500 0.500002 0.967923
C109  C     C_R   0.174770 0.528786 0.021623 0.148507
C110  C     C_R   0.468304 0.174274 0.019393 0.148963
C111  C     C_R   0.825733 0.468225 0.019181 0.148425
C112  C     C_R   0.969076 0.365089 0.477094 0.393620
C113  C     C_R   0.365029 0.030910 0.477308 0.393630
C114  C     C_R   0.030944 0.634913 0.477293 0.393385
C115  C     C_R   0.634825 0.969093 0.476790 0.392669
C116  C     C_R   0.030933 0.365120 0.523146 0.392984
C117  C     C_R   0.634973 0.030916 0.522672 0.393588
C118  C     C_R   0.969074 0.634904 0.522729 0.393772
C119  C     C_R   0.573501 0.999999 0.499945 0.968348
C120  C     C_R   0.365175 0.969078 0.523224 0.392677
C121  C     C_R   0.475329 0.865903 0.963622 0.369180
C122  C     C_R   0.865063 0.530979 0.977231 0.393712
C123  C     C_R   0.530843 0.134903 0.976996 0.393588
C124  C     C_R   0.133545 0.472036 0.966215 0.359872
C125  C     C_R   0.524665 0.865881 0.036345 0.369173
C126  C     C_R   0.135426 0.528082 0.026525 0.401288
C127  C     C_R   0.469170 0.134890 0.023032 0.393716
C128  C     C_R   0.865122 0.469032 0.022786 0.393723
C129  C     C_R   0.000002 0.385048 0.500091 -0.348522
C130  C     C_R   0.499999 0.926712 0.999998 0.952863
C131  C     C_R   0.385045 0.999990 0.500189 -0.348465
C132  C     C_R   0.000006 0.614960 0.500007 -0.348779
C133  C     C_R   0.614956 0.999998 0.499809 -0.348468
C134  C     C_R   0.499997 0.885608 0.999990 -0.378843
C135  C     C_R   0.885039 0.499998 0.000007 -0.348789
C136  C     C_R   0.500004 0.114953 0.000009 -0.348994
C137  C     C_R   0.114677 0.500027 0.997816 -0.363681
C138  C     C_R   0.000044 0.306324 0.500104 -0.147486
C139  C     C_R   0.306325 0.000013 0.500472 -0.147385
C140  C     C_R   0.000018 0.693686 0.500021 -0.147530
C141  C     C_R   0.926497 0.499997 0.000002 0.968359
C142  C     C_R   0.693675 0.000030 0.499525 -0.147382
C143  C     C_R   0.500003 0.807026 0.999959 -0.167175
C144  C     C_R   0.806317 0.500082 0.000143 -0.147343
C145  C     C_R   0.500015 0.193677 0.000032 -0.147421
C146  C     C_R   0.193281 0.499486 0.993326 -0.156199
C147  C     C_R   0.926599 0.000001 0.499921 0.882950
C148  C     C_R   0.000004 0.073400 0.499993 0.883095
C149  C     C_R   0.073401 0.000001 0.500079 0.882941
C150  C     C_R   0.000001 0.926600 0.500009 0.883126
C151  C     C_R   0.426559 0.499890 0.999824 0.881881
C152  C     C_R   0.500001 0.073497 0.000002 0.969586
C153  C     C_R   0.500001 0.573460 0.999991 0.881808
C154  C     C_R   0.573401 0.500007 0.000075 0.882845
C155  C     C_R   0.500000 0.426600 0.000009 0.882730
C156  C     C_R   0.000057 0.499997 0.609421 0.869104
C157  C     C_R   0.500016 0.999990 0.609425 0.869234
C158  C     C_R   0.999945 0.500000 0.390582 0.869279
C159  C     C_R   0.499984 0.000001 0.390574 0.869237
C160  C     C_R   0.500058 0.999695 0.109418 0.871913
C161  C     C_R   0.999803 0.499989 0.109421 0.871490
C162  C     C_R   0.499942 0.999698 0.890582 0.871910
C163  C     C_R   0.073409 0.500019 0.000081 0.963006
C164  C     C_R   0.000329 0.499993 0.890580 0.869235
C165  C     C_1   0.000204 0.499980 0.669617 -0.176388
C166  C     C_1   0.499956 0.999940 0.669622 -0.176695
C167  C     C_1   0.999808 0.499979 0.330390 -0.176651
C168  C     C_1   0.500044 0.999973 0.330378 -0.176715
C169  C     C_1   0.500165 0.999662 0.169603 -0.184906
C170  C     C_1   0.999628 0.499953 0.169620 -0.178909
C171  C     C_1   0.499836 0.999652 0.830397 -0.184872
C172  C     C_1   0.000466 0.499973 0.830398 -0.182937
C173  C     C_1   0.000344 0.499966 0.720387 0.012127
C174  C     C_1   0.000072 0.266281 0.500063 0.174826
C175  C     C_1   0.499887 0.999835 0.720391 0.011569
C176  C     C_1   0.999691 0.499957 0.279622 0.012630
C177  C     C_1   0.500114 0.999870 0.279610 0.011563
C178  C     C_1   0.500171 0.999734 0.220372 0.004546
C179  C     C_1   0.999604 0.499942 0.220387 0.013736
C180  C     C_1   0.499830 0.999710 0.779628 0.004521
C181  C     C_1   0.000461 0.499962 0.779628 0.005093
C182  C     C_R   0.999650 0.173450 0.448396 -0.129971
C183  C     C_R   0.173395 0.000433 0.448830 -0.130077
C184  C     C_R   0.000440 0.826579 0.448433 -0.129672
H1    H     H_    0.999328 0.188558 0.408360 0.149382
H2    H     H_    0.688398 0.500880 0.908696 0.149545
H3    H     H_    0.079713 0.508092 0.126940 0.235358
H4    H     H_    0.091072 0.533909 0.190806 0.218780
H5    H     H_    0.063600 0.556203 0.135581 0.279089
H6    H     H_    0.409301 0.126020 0.119739 0.194534
H7    H     H_    0.456070 0.144301 0.122625 0.138244
H8    H     H_    0.481439 0.078618 0.124193 0.233954
H9    H     H_    0.449906 0.087795 0.182543 0.215087
H10   H     H_    0.433670 0.060606 0.122474 0.281653
H11   H     H_    0.874301 0.408380 0.118806 0.194485
H12   H     H_    0.855716 0.455011 0.122180 0.138636
H13   H     H_    0.500795 0.311484 0.908406 0.149725
H14   H     H_    0.921190 0.480833 0.124156 0.233025
H15   H     H_    0.912316 0.448794 0.182120 0.215199
H16   H     H_    0.939536 0.433195 0.121900 0.281934
H17   H     H_    0.312571 0.497147 0.904628 0.152533
H18   H     H_    0.501183 0.688792 0.091575 0.154881
H19   H     H_    0.310093 0.499276 0.087827 0.151101
H20   H     H_    0.499236 0.311462 0.091683 0.149571
H21   H     H_    0.688630 0.499394 0.091981 0.149599
H22   H     H_    0.999297 0.119690 0.407945 0.163814
H23   H     H_    0.119617 0.000747 0.408216 0.163831
H24   H     H_    0.000751 0.880353 0.407985 0.163932
H25   H     H_    0.188457 0.000766 0.408837 0.149315
H26   H     H_    0.880281 0.999270 0.407706 0.163871
H27   H     H_    0.000761 0.119635 0.592036 0.163960
H28   H     H_    0.880383 0.000755 0.591783 0.163843
H29   H     H_    0.999265 0.880329 0.592063 0.163833
H30   H     H_    0.119719 0.999267 0.592295 0.163883
H31   H     H_    0.498850 0.619911 0.907965 0.164238
H32   H     H_    0.619564 0.500789 0.908169 0.164013
H33   H     H_    0.500774 0.380348 0.907988 0.164037
H34   H     H_    0.381298 0.498169 0.906656 0.164812
H35   H     H_    0.501160 0.619896 0.091979 0.164307
H36   H     H_    0.000775 0.811490 0.408400 0.149649
H37   H     H_    0.379055 0.500261 0.090643 0.163210
H38   H     H_    0.499236 0.380328 0.092063 0.163907
H39   H     H_    0.619767 0.499325 0.092249 0.163946
H40   H     H_    0.908750 0.374048 0.380420 0.194636
H41   H     H_    0.955428 0.355579 0.377537 0.138091
H42   H     H_    0.981069 0.421151 0.375899 0.233044
H43   H     H_    0.949226 0.412109 0.317592 0.214932
H44   H     H_    0.933389 0.439370 0.377680 0.282148
H45   H     H_    0.373752 0.090995 0.380534 0.194601
H46   H     H_    0.355343 0.044273 0.377727 0.137666
H47   H     H_    0.811424 0.999278 0.407879 0.149729
H48   H     H_    0.420941 0.018713 0.376178 0.232764
H49   H     H_    0.411763 0.050425 0.317833 0.214904
H50   H     H_    0.439093 0.066434 0.377949 0.282175
H51   H     H_    0.091239 0.626009 0.381162 0.194949
H52   H     H_    0.044534 0.644411 0.377843 0.138424
H53   H     H_    0.018987 0.578802 0.376016 0.233102
H54   H     H_    0.050816 0.587895 0.317995 0.215953
H55   H     H_    0.066693 0.560650 0.378250 0.281734
H56   H     H_    0.625840 0.908729 0.380531 0.196541
H57   H     H_    0.644050 0.955524 0.377268 0.138318
H58   H     H_    0.000814 0.188495 0.591653 0.149674
H59   H     H_    0.578426 0.980829 0.375295 0.233086
H60   H     H_    0.587485 0.948880 0.317308 0.216086
H61   H     H_    0.560393 0.933070 0.377556 0.281990
H62   H     H_    0.091200 0.373990 0.619862 0.196039
H63   H     H_    0.044484 0.355603 0.622730 0.138091
H64   H     H_    0.018965 0.421201 0.624460 0.233062
H65   H     H_    0.050820 0.412072 0.682738 0.214545
H66   H     H_    0.066667 0.439360 0.622651 0.282080
H67   H     H_    0.626261 0.090979 0.619410 0.194657
H68   H     H_    0.644661 0.044255 0.622244 0.137682
H69   H     H_    0.811543 0.000784 0.591162 0.149333
H70   H     H_    0.579058 0.018699 0.623817 0.232742
H71   H     H_    0.588245 0.050399 0.682141 0.214929
H72   H     H_    0.560916 0.066421 0.622019 0.282189
H73   H     H_    0.908768 0.625939 0.618863 0.194563
H74   H     H_    0.955454 0.644397 0.622167 0.137988
H75   H     H_    0.981067 0.578812 0.624018 0.233007
H76   H     H_    0.949250 0.587872 0.682054 0.214895
H77   H     H_    0.933376 0.560615 0.621836 0.282199
H78   H     H_    0.374158 0.908694 0.619516 0.196524
H79   H     H_    0.355954 0.955488 0.622754 0.138326
H80   H     H_    0.999268 0.811464 0.591679 0.149402
H81   H     H_    0.421579 0.980796 0.624708 0.233102
H82   H     H_    0.412521 0.948832 0.682713 0.216078
H83   H     H_    0.439609 0.933039 0.622469 0.281975
H84   H     H_    0.478863 0.866239 0.855442 0.162881
H85   H     H_    0.494172 0.911337 0.883277 0.106021
H86   H     H_    0.432557 0.939379 0.855615 0.262254
H87   H     H_    0.456782 0.919161 0.795496 0.197204
H88   H     H_    0.417714 0.894432 0.827273 0.271000
H89   H     H_    0.873851 0.591180 0.880683 0.194453
H90   H     H_    0.855556 0.544418 0.877657 0.137966
H91   H     H_    0.188576 0.999265 0.592121 0.149750
H92   H     H_    0.921227 0.519020 0.876232 0.233818
H93   H     H_    0.912043 0.550789 0.817962 0.214740
H94   H     H_    0.939254 0.566783 0.878209 0.281796
H95   H     H_    0.590680 0.126079 0.880249 0.194617
H96   H     H_    0.543910 0.144352 0.877394 0.138256
H97   H     H_    0.518545 0.078661 0.875852 0.233926
H98   H     H_    0.550065 0.087865 0.817484 0.215129
H99   H     H_    0.566316 0.060660 0.877553 0.281631
H100  H     H_    0.131412 0.465392 0.857992 0.161275
H101  H     H_    0.087559 0.484704 0.884346 0.103273
H102  H     H_    0.498834 0.688809 0.908325 0.154817
H103  H     H_    0.056992 0.422134 0.871543 0.264521
H104  H     H_    0.076130 0.440223 0.805898 0.193782
H105  H     H_    0.100641 0.403453 0.844074 0.268401
H106  H     H_    0.521129 0.866154 0.144536 0.162923
H107  H     H_    0.505803 0.911256 0.116692 0.106009
H108  H     H_    0.567404 0.939321 0.144360 0.262228
H109  H     H_    0.543181 0.919068 0.204476 0.197209
H110  H     H_    0.582263 0.894372 0.172716 0.271031
H111  H     H_    0.130008 0.578056 0.135488 0.196200
H112  H     H_    0.146174 0.530720 0.127627 0.138038
O1    O     O_R   0.031300 0.444560 0.499980 -0.571340
O2    O     O_R   0.944560 0.468700 0.999980 -0.571316
O3    O     O_R   0.468700 0.055440 0.999980 -0.570999
O4    O     O_R   0.055440 0.531300 0.999980 -0.574337
O5    O     O_R   0.468700 0.944560 0.000020 -0.584216
O6    O     O_R   0.055440 0.468700 0.000020 -0.581302
O7    O     O_R   0.531300 0.055440 0.000020 -0.571010
O8    O     O_R   0.944560 0.531300 0.000020 -0.571364
O9    O     O_R   0.031300 0.500000 0.582760 -0.618925
O10   O     O_R   0.500000 0.968700 0.582760 -0.619127
O11   O     O_R   0.968700 0.500000 0.582760 -0.618513
O12   O     O_R   0.444560 0.968700 0.499980 -0.571417
O13   O     O_R   0.500000 0.031300 0.582760 -0.618402
O14   O     O_R   0.968700 0.500000 0.417240 -0.618629
O15   O     O_R   0.500000 0.968700 0.417240 -0.619087
O16   O     O_R   0.031300 0.500000 0.417240 -0.619035
O17   O     O_R   0.500000 0.031300 0.417240 -0.618460
O18   O     O_R   0.531300 1.000000 0.082760 -0.613368
O19   O     O_R   0.000000 0.468700 0.082760 -0.620200
O20   O     O_R   0.468700 1.000000 0.082760 -0.622510
O21   O     O_R   0.000000 0.531300 0.082760 -0.613075
O22   O     O_R   0.468700 1.000000 0.917240 -0.613343
O23   O     O_R   0.968700 0.555440 0.499980 -0.571170
O24   O     O_R   0.000000 0.468700 0.917240 -0.618370
O25   O     O_R   0.531300 1.000000 0.917240 -0.622522
O26   O     O_R   0.000000 0.531300 0.917240 -0.621493
O27   O     O_R   0.944690 0.999980 0.546690 -0.620721
O28   O     O_R   0.999980 0.055310 0.546690 -0.620711
O29   O     O_R   0.055310 0.000020 0.546690 -0.620648
O30   O     O_R   0.000020 0.944690 0.546690 -0.620745
O31   O     O_R   0.055310 0.999980 0.453310 -0.620733
O32   O     O_R   0.000020 0.055310 0.453310 -0.620734
O33   O     O_R   0.944690 0.000020 0.453310 -0.620655
O34   O     O_R   0.555440 0.031300 0.499980 -0.571346
O35   O     O_R   0.999980 0.944690 0.453310 -0.620718
O36   O     O_R   0.444690 0.499980 0.046690 -0.619365
O37   O     O_R   0.499980 0.555310 0.046690 -0.619832
O38   O     O_R   0.555310 0.500020 0.046690 -0.620531
O39   O     O_R   0.500020 0.444690 0.046690 -0.620760
O40   O     O_R   0.555310 0.499980 0.953310 -0.620674
O41   O     O_R   0.500020 0.555310 0.953310 -0.619936
O42   O     O_R   0.444690 0.500020 0.953310 -0.620968
O43   O     O_R   0.499980 0.444690 0.953310 -0.620743
O44   O     O_3   0.938872 0.384295 0.453563 -0.556731
O45   O     O_R   0.968700 0.444560 0.500020 -0.571357
O46   O     O_3   0.384163 0.061079 0.453749 -0.556587
O47   O     O_3   0.061139 0.615707 0.454040 -0.556844
O48   O     O_3   0.615524 0.938915 0.453409 -0.557208
O49   O     O_3   0.061095 0.384359 0.546728 -0.557098
O50   O     O_3   0.615840 0.061077 0.546215 -0.556623
O51   O     O_3   0.938878 0.615687 0.545989 -0.556568
O52   O     O_3   0.384475 0.938896 0.546620 -0.557206
O53   O     O_3   0.450838 0.885063 0.928110 -0.547372
O54   O     O_3   0.884233 0.561177 0.953827 -0.556613
O55   O     O_3   0.560925 0.115690 0.953426 -0.556773
O56   O     O_R   0.555440 0.968700 0.500020 -0.571405
O57   O     O_3   0.113623 0.444847 0.936716 -0.544506
O58   O     O_3   0.549153 0.885021 0.071873 -0.547360
O59   O     O_3   0.116926 0.555686 0.057255 -0.559863
O60   O     O_3   0.439081 0.115663 0.046586 -0.556744
O61   O     O_3   0.884366 0.438757 0.046003 -0.556855
O62   O     O_R   0.031300 0.555440 0.500020 -0.571282
O63   O     O_R   0.444560 0.031300 0.500020 -0.571328
O64   O     O_R   0.531300 0.944560 0.999980 -0.584202
Zn1   Zn    Zn3+2 0.041800 0.500000 0.500000 1.027016
Zn2   Zn    Zn3+2 0.000000 0.000000 0.437610 0.973859
Zn3   Zn    Zn3+2 0.500000 0.500000 0.062390 0.975061
Zn4   Zn    Zn3+2 0.500000 0.500000 0.937610 0.974475
Zn5   Zn    Zn3+2 0.500000 0.958200 0.500000 1.027408
Zn6   Zn    Zn3+2 0.958200 0.500000 0.500000 1.027292
Zn7   Zn    Zn3+2 0.500000 0.041800 0.500000 1.027425
Zn8   Zn    Zn3+2 0.541800 0.000000 0.000000 1.025745
Zn9   Zn    Zn3+2 0.000000 0.458200 0.000000 1.023999
Zn10  Zn    Zn3+2 0.458200 0.000000 0.000000 1.025749
Zn11  Zn    Zn3+2 0.000000 0.541800 0.000000 1.029129
Zn12  Zn    Zn3+2 0.000000 1.000000 0.562390 0.973895

loop_
_geom_bond_atom_site_label_1
_geom_bond_atom_site_label_2
_ccdc_geom_bond_type
C130  O5    A    
C66   H54   S    
C24   C55   T    
C160  O18   A    
C19   C37   A    
C94   H11   S    
C83   O55   S    
C95   H15   S    
C23   H29   S    
C128  C135  A    
C89   H112  S    
C112  C129  A    
C158  O14   A    
C168  C177  T    
C110  C127  A    
C8    C26   A    
C141  O2    A    
C65   O47   S    
C94   C95   S    
C57   C145  S    
C130  C134  S    
C89   O59   S    
O18   Zn8   S    
C3    C47   A    
C30   C39   A    
Br12  C99   S    
C17   H22   S    
C148  O32   A    
C57   C59   T    
O6    Zn9   S    
C150  O30   A    
C93   H9    S    
O4    Zn11  S    
C155  O43   A    
C108  O23   A    
O40   Zn4   S    
C34   C148  S    
C63   H46   S    
C29   H34   S    
C92   H6    S    
C83   H96   S    
O11   Zn6   S    
C27   H32   S    
C72   H68   S    
C100  C117  A    
C17   C34   A    
C161  C170  S    
C1    O1    A    
C93   H8    S    
C26   C39   A    
C170  C179  T    
C28   C41   A    
C105  C145  A    
C107  C125  A    
C22   H28   S    
Br4   C106  S    
C63   O46   S    
C4    C43   A    
C78   C80   S    
C156  O9    A    
O23   Zn6   S    
C47   C55   S    
C157  C166  S    
C15   C32   A    
C66   H55   S    
C115  C133  A    
C104  C122  A    
C63   H45   S    
C102  C120  A    
C15   H20   S    
C173  C181  S    
C86   H105  S    
C1    O45   A    
C151  O42   A    
C97   O63   A    
Br6   C109  S    
O64   Zn8   S    
C122  C135  A    
C62   H43   S    
C7    C25   A    
Br15  C102  S    
C67   H56   S    
C119  C133  S    
C21   C34   A    
C159  O15   A    
C107  C143  A    
C81   H89   S    
Br7   C110  S    
C76   H78   S    
C97   O12   A    
C113  C131  A    
C71   H66   S    
O1    Zn1   S    
C37   C150  S    
C72   C73   S    
O13   Zn7   S    
C103  C143  A    
C177  C178  S    
C104  C144  A    
C84   H97   S    
C70   H62   S    
Br3   C105  S    
O27   Zn12  S    
C16   C49   A    
O3    Zn10  S    
C123  C136  A    
C109  C146  A    
C33   H39   S    
C9    C27   A    
C81   C82   S    
C10   C28   A    
C32   C41   A    
C92   C93   S    
C100  C142  A    
C89   C91   S    
C12   C30   A    
C10   H13   S    
C61   H41   S    
C116  C129  A    
C75   H76   S    
O41   Zn4   S    
C7    H91   S    
O29   Zn12  S    
C6    H80   S    
C70   O49   S    
C80   H87   S    
C156  O11   A    
C175  C180  S    
C79   C112  A    
C5    C22   A    
C162  O25   A    
O35   Zn2   S    
C61   H40   S    
C88   H110  S    
C66   H53   S    
C38   C147  S    
C160  O20   A    
C26   H31   S    
C14   C51   A    
C156  C165  S    
C92   O60   S    
C2    C53   T    
C164  O24   A    
C182  H1    S    
C117  C133  A    
C77   H82   S    
C125  C134  A    
C78   H85   S    
C99   C116  A    
C91   H5    S    
C73   H70   S    
C10   C50   A    
C119  O56   A    
O32   Zn2   S    
Br2   C104  S    
C49   C58   S    
O62   Zn1   S    
C82   H92   S    
C161  O19   A    
C91   H3    S    
C36   C149  S    
C85   O57   S    
C125  O58   S    
O8    Zn11  S    
Br1   C79   S    
Br14  C101  S    
O45   Zn6   S    
C74   H74   S    
C69   H59   S    
C84   H99   S    
O56   Zn5   S    
C163  O6    A    
O5    Zn10  S    
C65   H51   S    
C117  O50   S    
O25   Zn8   S    
C46   C144  S    
C121  C134  A    
C82   H93   S    
C123  O55   S    
C18   H23   S    
C61   O44   S    
C147  O27   A    
C40   C154  S    
C119  O34   A    
C150  O35   A    
C94   H12   S    
O31   Zn2   S    
C32   H38   S    
C106  C146  A    
C105  C123  A    
C106  C124  A    
C154  O38   A    
C28   H33   S    
O38   Zn3   S    
C6    C45   A    
C4    C21   A    
O14   Zn6   S    
C17   C182  A    
C6    C23   A    
C149  O31   A    
C153  O41   A    
C16   C33   A    
C11   C51   A    
C67   O48   S    
C25   H30   S    
C96   C140  A    
C159  C168  S    
C96   C114  A    
O26   Zn11  S    
C111  C144  A    
O19   Zn9   S    
C14   H19   S    
C45   C54   S    
C137  C163  S    
C85   C86   S    
C171  C180  T    
C90   C113  A    
C73   H72   S    
C72   O50   S    
C98   C115  A    
C169  C178  T    
C167  C176  T    
C60   C68   T    
C16   H21   S    
C5    H69   S    
C160  C169  S    
C61   C62   S    
O42   Zn4   S    
C108  C132  S    
C114  O47   S    
C135  C141  S    
C24   C142  S    
C161  O21   A    
C122  O54   S    
C83   H95   S    
O33   Zn2   S    
C43   C182  A    
C75   H77   S    
C98   C142  A    
C163  O4    A    
C164  C172  S    
C86   H103  S    
C31   H37   S    
C165  C173  T    
C115  O48   S    
C80   H86   S    
C64   H48   S    
Br10  C96   S    
C110  C145  A    
C78   O53   S    
C124  C137  A    
C112  O44   S    
C8    H102  S    
C11   C29   A    
C138  C174  S    
C8    C48   A    
C81   O54   S    
C152  O7    A    
C154  O40   A    
C101  C118  A    
C149  O29   A    
C136  C152  S    
C29   C42   A    
C126  O59   S    
C95   H16   S    
O36   Zn3   S    
O10   Zn5   S    
C70   C71   S    
C62   H44   S    
C155  O39   A    
C118  O51   S    
C176  C179  S    
C22   C38   A    
C52   C174  T    
C87   H106  S    
C62   H42   S    
C71   H65   S    
C13   C140  S    
C162  C171  S    
C12   C48   A    
C127  C136  A    
C67   C69   S    
C74   O51   S    
C11   H17   S    
C99   C138  A    
C121  O53   S    
C166  C175  T    
C65   H52   S    
C84   H98   S    
C93   H10   S    
C70   H63   S    
C68   C146  S    
C159  O17   A    
C13   C54   T    
C20   H26   S    
O24   Zn9   S    
C76   O52   S    
O37   Zn3   S    
C158  C167  S    
C72   H67   S    
C18   C36   A    
C79   C138  A    
C30   H35   S    
C97   C131  S    
C75   H75   S    
C164  O26   A    
O30   Zn12  S    
C74   C75   S    
C23   C37   A    
C172  C181  T    
C50   C59   S    
C76   C77   S    
C80   H88   S    
C67   H57   S    
C111  C128  A    
C153  O37   A    
C5    C47   A    
Br13  C100  S    
C151  O36   A    
C21   H27   S    
C87   O58   S    
C124  O57   S    
C87   C88   S    
C9    C49   A    
C46   C58   T    
C19   H24   S    
C39   C153  S    
C89   H111  S    
C2    C139  S    
C4    H58   S    
O43   Zn4   S    
C15   C50   A    
O16   Zn1   S    
C116  O49   S    
C1    C129  S    
C95   H14   S    
C77   H81   S    
C65   C66   S    
C3    H47   S    
C128  O61   S    
C88   H108  S    
C148  O28   A    
C44   C53   S    
C3    C20   A    
O2    Zn9   S    
C81   H90   S    
O21   Zn11  S    
C157  O10   A    
Br11  C98   S    
C127  O60   S    
C44   C183  A    
O20   Zn10  S    
C113  O46   S    
O34   Zn7   S    
O9    Zn1   S    
C25   C36   A    
C85   H101  S    
O7    Zn8   S    
C126  C137  A    
C82   H94   S    
C92   H7    S    
C18   C183  A    
C45   C184  A    
C19   C184  A    
C7    C44   A    
C114  C132  A    
C103  C121  A    
C14   C31   A    
C20   C38   A    
C85   H100  S    
C9    H2    S    
Br16  C103  S    
Br9   C90   S    
O17   Zn7   S    
O28   Zn12  S    
C43   C52   S    
Br8   C111  S    
C158  O16   A    
C83   C84   S    
C109  C126  A    
C101  C140  A    
C88   H109  S    
C141  O8    A    
C102  C139  A    
C152  O3    A    
C42   C151  S    
C183  H25   S    
C120  O52   S    
C87   H107  S    
C64   H49   S    
C71   H64   S    
C157  O13   A    
C162  O22   A    
C77   H83   S    
C78   H84   S    
O39   Zn3   S    
C12   H18   S    
C73   H71   S    
C184  H36   S    
C69   H61   S    
C33   C40   A    
C118  C132  A    
Br5   C107  S    
C76   H79   S    
O22   Zn10  S    
C91   H4    S    
C31   C42   A    
C108  O62   A    
C147  O33   A    
C94   O61   S    
C35   C143  S    
C74   H73   S    
C48   C56   S    
C69   H60   S    
C120  C131  A    
C86   H104  S    
C63   C64   S    
C130  O64   A    
C27   C40   A    
C90   C139  A    
C35   C56   T    
O15   Zn5   S    
C64   H50   S    
C51   C60   S    
O12   Zn5   S    
C41   C155  S    
O63   Zn7   S    
