data_mof_unit_51490.cif
_audit_creation_date              2012-12-11T14:33:49-0500
_audit_creation_method            fapswitch 2.2
_symmetry_space_group_name_H-M    P1
_symmetry_Int_Tables_number       1
_space_group_crystal_system       triclinic
_cell_length_a                    13.841214
_cell_length_b                    13.968662
_cell_length_c                    27.31711
_cell_angle_alpha                 90.015159
_cell_angle_beta                  90.058133
_cell_angle_gamma                 119.555393
_cell_volume                      4594.33128743

loop_
_atom_site_label
_atom_site_type_symbol
_atom_type_description
_atom_site_fract_x
_atom_site_fract_y
_atom_site_fract_z
_atom_type_partial_charge
Br1   Br    Br    0.544015 0.606262 0.824659 -0.578392
Br2   Br    Br    0.362700 0.953290 0.823045 -0.567146
Br3   Br    Br    0.919137 0.258440 0.804212 -0.571091
C1    C     C_R   0.233672 0.787435 0.568662 0.539492
C2    C     C_1   0.702622 0.858196 0.860909 -0.006033
C3    C     C_1   0.110780 0.885513 0.851786 -0.023655
C4    C     C_1   0.119197 0.236305 0.852869 -0.017190
C5    C     C_1   0.625364 0.811474 0.659599 -0.072566
C6    C     C_1   0.174718 0.821903 0.655472 -0.072943
C7    C     C_1   0.181566 0.360731 0.656678 -0.073488
C8    C     C_1   0.599199 0.794753 0.617118 -0.010386
C9    C     C_1   0.197666 0.807684 0.614627 -0.012342
C10   C     C_1   0.194317 0.394399 0.615392 -0.010826
C11   C     C_R   0.064816 0.150259 0.095967 0.573749
C12   C     C_R   0.212750 0.446632 0.568809 0.543159
C13   C     C_R   0.777441 0.884099 0.088368 0.551308
C14   C     C_R   0.116484 0.893672 0.088147 0.564445
C15   C     C_R   0.070220 0.161572 0.943081 0.532850
C16   C     C_R   0.779231 0.886841 0.950940 0.550373
C17   C     C_R   0.090052 0.930635 0.943561 0.532250
C18   C     C_R   0.618730 0.895760 0.361609 -0.132711
C19   C     C_R   0.097182 0.732621 0.362854 -0.134341
C20   C     C_R   0.264360 0.357343 0.363800 -0.135078
C21   C     C_R   0.644951 0.911348 0.311966 0.014257
C22   C     C_R   0.080596 0.744116 0.313189 0.014324
C23   C     C_R   0.552493 0.765074 0.569110 0.539813
C24   C     C_R   0.241356 0.306398 0.317707 0.014102
C25   C     C_R   0.681148 0.929302 0.210449 0.016886
C26   C     C_R   0.060614 0.760084 0.211538 0.016731
C27   C     C_R   0.200693 0.225548 0.220974 0.017187
C28   C     C_R   0.232505 0.788326 0.431816 0.547143
C29   C     C_R   0.211715 0.444447 0.431381 0.549517
C30   C     C_R   0.555629 0.767181 0.431910 0.548620
C31   C     C_R   0.653828 0.001195 0.234671 -0.137256
C32   C     C_R   0.977403 0.671123 0.237602 -0.126987
C33   C     C_R   0.303055 0.256281 0.243545 -0.123194
C34   C     C_3   0.663096 0.731195 0.790023 0.059789
C35   C     C_R   0.635547 0.992132 0.285174 -0.130859
C36   C     C_R   0.987964 0.662474 0.288091 -0.128604
C37   C     C_R   0.323382 0.296737 0.291530 -0.128390
C38   C     C_R   0.704155 0.939793 0.160185 -0.148347
C39   C     C_R   0.050703 0.771225 0.161167 -0.133799
C40   C     C_R   0.182868 0.194823 0.171493 -0.127480
C41   C     C_R   0.728672 0.864833 0.137070 -0.001537
C42   C     C_R   0.135393 0.861318 0.136238 -0.003209
C43   C     C_R   0.082766 0.172426 0.148629 -0.009413
C44   C     C_R   0.658578 0.744509 0.364026 -0.131224
C45   C     C_3   0.245734 0.954050 0.783043 0.061160
C46   C     C_R   0.266077 0.910756 0.361932 -0.128214
C47   C     C_R   0.076196 0.327870 0.368089 -0.129947
C48   C     C_R   0.682605 0.757316 0.314468 0.013487
C49   C     C_R   0.254352 0.920382 0.312220 0.013840
C50   C     C_R   0.052694 0.278879 0.322020 0.011784
C51   C     C_R   0.673320 0.839360 0.288010 0.064161
C52   C     C_R   0.162377 0.835935 0.287427 0.063553
C53   C     C_R   0.136163 0.270141 0.296172 0.062762
C54   C     C_R   0.707436 0.683789 0.290356 -0.126780
C55   C     C_R   0.337677 0.009424 0.286472 -0.127159
C56   C     C_3   0.023622 0.219917 0.773970 0.048127
C57   C     C_R   0.949229 0.245169 0.300138 -0.128916
C58   C     C_R   0.719252 0.688914 0.239867 -0.126706
C59   C     C_R   0.331843 0.013145 0.235873 -0.129170
C60   C     C_R   0.930280 0.208017 0.251930 -0.121854
C61   C     C_R   0.709570 0.769616 0.213415 0.010747
C62   C     C_R   0.240714 0.929923 0.210932 0.013826
C63   C     C_R   0.013389 0.201608 0.225425 0.017014
C64   C     C_3   0.555041 0.840386 0.738490 -0.214163
C65   C     C_3   0.129049 0.733689 0.737275 -0.216819
C66   C     C_3   0.212096 0.431534 0.741648 -0.217665
C67   C     C_3   0.641801 0.719195 0.733897 -0.181375
C68   C     C_R   0.688476 0.846523 0.237310 0.065224
C69   C     C_R   0.154342 0.841954 0.236632 0.063794
C70   C     C_R   0.116147 0.230594 0.247778 0.062206
C71   C     C_R   0.724078 0.776272 0.163415 -0.121194
C72   C     C_R   0.232777 0.935946 0.160762 -0.130596
C73   C     C_R   0.997205 0.171843 0.176211 -0.128655
C74   C     C_R   0.618704 0.807810 0.386734 -0.003148
C75   C     C_R   0.193480 0.813123 0.386408 -0.003470
C76   C     C_R   0.183287 0.372357 0.388164 -0.004698
C77   C     C_3   0.760792 0.924044 0.724242 -0.233370
C78   C     C_3   0.262330 0.936370 0.728316 -0.181307
C79   C     C_3   0.058575 0.862180 0.712649 -0.227422
C80   C     C_3   0.227527 0.263836 0.721137 -0.226202
C81   C     C_3   0.779332 0.936194 0.780349 -0.258765
C82   C     C_3   0.040491 0.877733 0.767510 -0.255701
C83   C     C_3   0.210760 0.231084 0.775994 -0.248241
C84   C     C_1   0.731921 0.871219 0.903044 0.025852
C85   C     C_1   0.100630 0.904540 0.893881 0.011954
C86   C     C_1   0.099084 0.203529 0.894369 0.018238
C87   C     C_3   0.645869 0.824005 0.712626 0.035424
C88   C     C_3   0.155835 0.838032 0.707005 0.040259
C89   C     C_3   0.041108 0.253923 0.719290 -0.179546
C90   C     C_3   0.166186 0.327962 0.708312 0.039008
C91   C     C_3   0.574909 0.852903 0.794644 -0.186676
C92   C     C_3   0.110476 0.750168 0.791968 -0.194713
C93   C     C_3   0.196387 0.398266 0.796497 -0.192104
C94   C     C_3   0.678886 0.843866 0.808084 0.059336
C95   C     C_3   0.126860 0.867134 0.800113 0.071599
C96   C     C_3   0.137017 0.271293 0.801371 0.068934
Cr1   Cr    Cr6+3 0.164410 0.584450 0.499910 1.021094
Cr2   Cr    Cr6+3 0.415550 0.579960 0.499910 1.021131
Cr3   Cr    Cr6+3 0.420040 0.835590 0.499910 1.018507
Cr4   Cr    Cr6+3 0.155170 0.075460 0.019960 1.043716
Cr5   Cr    Cr6+3 0.924540 0.079710 0.019960 1.034569
Cr6   Cr    Cr6+3 0.920290 0.844830 0.019960 1.029681
H1    H     H_    0.586771 0.934204 0.806568 0.173006
H2    H     H_    0.740356 0.727868 0.797803 0.133290
H3    H     H_    0.256321 0.037662 0.787449 0.130066
H4    H     H_    0.984872 0.129018 0.775944 0.108080
H5    H     H_    0.589254 0.945952 0.379366 0.127617
H6    H     H_    0.039745 0.658032 0.382008 0.123404
H7    H     H_    0.346860 0.390525 0.379313 0.124712
H8    H     H_    0.646624 0.064282 0.214596 0.100488
H9    H     H_    0.905199 0.607543 0.218843 0.100469
H10   H     H_    0.368672 0.252577 0.223542 0.102324
H11   H     H_    0.612859 0.047359 0.303162 0.099844
H12   H     H_    0.024934 0.687198 0.802944 0.129219
H13   H     H_    0.924359 0.591642 0.307397 0.101127
H14   H     H_    0.404318 0.323475 0.307629 0.102295
H15   H     H_    0.741065 0.716615 0.145684 0.132072
H16   H     H_    0.298825 0.005083 0.141419 0.127103
H17   H     H_    0.919043 0.151834 0.158758 0.118352
H18   H     H_    0.736144 0.630002 0.221493 0.099806
H19   H     H_    0.397956 0.081518 0.216294 0.096446
H20   H     H_    0.852265 0.188386 0.234755 0.111211
H21   H     H_    0.714198 0.620278 0.310311 0.101386
H22   H     H_    0.409007 0.074211 0.305280 0.097359
H23   H     H_    0.278875 0.435538 0.814842 0.167679
H24   H     H_    0.884621 0.251912 0.319580 0.103399
H25   H     H_    0.555467 0.914900 0.723782 0.140217
H26   H     H_    0.053304 0.661304 0.722445 0.129843
H27   H     H_    0.301944 0.487044 0.734088 0.135406
H28   H     H_    0.660637 0.678066 0.383684 0.128183
H29   H     H_    0.339030 0.974807 0.380195 0.131399
H30   H     H_    0.012498 0.337338 0.386938 0.130440
H31   H     H_    0.827562 0.913374 0.706823 0.112824
H32   H     H_    0.076743 0.937874 0.691955 0.112592
H33   H     H_    0.195514 0.188482 0.698094 0.113010
H34   H     H_    0.471416 0.768827 0.730921 0.126655
H35   H     H_    0.766299 0.000506 0.709041 0.141344
H36   H     H_    0.981093 0.793111 0.697139 0.125273
H37   H     H_    0.317809 0.315524 0.713348 0.140863
H38   H     H_    0.791172 0.017432 0.792064 0.179205
H39   H     H_    0.954891 0.814709 0.778389 0.117609
H40   H     H_    0.292936 0.266555 0.794555 0.157067
H41   H     H_    0.856357 0.933894 0.789763 0.093535
H42   H     H_    0.046509 0.959216 0.772863 0.091261
H43   H     H_    0.170793 0.140514 0.779087 0.091236
H44   H     H_    0.559676 0.646272 0.725594 0.159130
H45   H     H_    0.198546 0.715408 0.734234 0.124031
H46   H     H_    0.333583 0.921216 0.723830 0.158239
H47   H     H_    0.995686 0.298479 0.709648 0.168512
H48   H     H_    0.705840 0.705111 0.715874 0.102656
H49   H     H_    0.283038 0.012571 0.707441 0.102475
H50   H     H_    0.006215 0.178732 0.695988 0.091785
H51   H     H_    0.706607 0.007326 0.139626 0.108870
H52   H     H_    0.975596 0.713583 0.142010 0.117202
H53   H     H_    0.248098 0.192614 0.150440 0.123985
H54   H     H_    0.168421 0.478635 0.733539 0.127912
H55   H     H_    0.500378 0.788899 0.814046 0.188344
H56   H     H_    0.168745 0.736818 0.815219 0.175753
H57   H     H_    0.147976 0.431864 0.815015 0.176427
O1    O     O_R   0.137150 0.468200 0.553200 -0.509199
O2    O     O_R   0.140110 0.470540 0.446010 -0.521388
O3    O     O_R   0.529460 0.669570 0.446010 -0.521366
O4    O     O_R   0.330430 0.859890 0.446010 -0.523853
O5    O     O_R   0.176710 0.690910 0.450560 -0.502193
O6    O     O_R   0.309090 0.485800 0.450560 -0.501332
O7    O     O_R   0.514200 0.823290 0.450560 -0.503882
O8    O     O_3   0.333333 0.666667 0.499990 -0.264490
O9    O     O_R   0.176750 0.985260 0.074180 -0.528374
O10   O     O_R   0.014740 0.191490 0.074180 -0.488959
O11   O     O_R   0.808510 0.823250 0.074180 -0.515302
O12   O     O_R   0.531800 0.668950 0.553200 -0.510126
O13   O     O_R   0.146100 0.172630 0.068980 -0.476032
O14   O     O_R   0.827370 0.973470 0.068980 -0.518444
O15   O     O_R   0.026530 0.853900 0.068980 -0.489811
O16   O     O_3   1.000000 1.000000 0.020040 -0.300824
O17   O     O_R   0.148270 0.170520 0.969620 -0.487708
O18   O     O_R   0.829480 0.977750 0.969620 -0.517504
O19   O     O_R   0.022250 0.851730 0.969620 -0.478647
O20   O     O_R   0.331050 0.862850 0.553200 -0.507927
O21   O     O_R   0.179100 0.982980 0.967000 -0.475595
O22   O     O_R   0.017020 0.196120 0.967000 -0.458407
O23   O     O_R   0.803880 0.820900 0.967000 -0.499902
O24   O     O_R   0.173970 0.688730 0.549930 -0.499561
O25   O     O_R   0.311270 0.485240 0.549930 -0.499568
O26   O     O_R   0.514760 0.826030 0.549930 -0.497559

loop_
_geom_bond_atom_site_label_1
_geom_bond_atom_site_label_2
_ccdc_geom_bond_type
C13   O11   A    
C55   C59   A    
C46   H29   S    
C26   C69   A    
Cr3   O8    S    
C26   C39   A    
C58   C61   A    
C67   H48   S    
C56   C96   S    
C32   C36   A    
Cr6   O16   S    
C77   C81   S    
C66   C93   S    
C30   O7    A    
C47   C76   A    
C6    C88   S    
C43   C73   A    
C18   H5    S    
C92   C95   S    
Cr5   O14   S    
Cr5   O18   S    
C92   H12   S    
C31   H8    S    
C20   H7    S    
Cr2   O6    S    
C4    C96   S    
C25   C68   A    
C57   C60   A    
Cr4   O21   S    
C81   C94   S    
C3    C95   S    
C12   O1    A    
C14   C42   S    
C34   H2    S    
C79   H32   S    
C66   C90   S    
C47   H30   S    
C92   H56   S    
C23   O12   A    
C40   H53   S    
C21   C51   A    
C80   C90   S    
C93   C96   S    
C29   O2    A    
C25   C38   A    
C65   C88   S    
C3    C85   T    
C45   C78   S    
C93   H23   S    
C32   H9    S    
C8    C23   S    
C61   C68   A    
C1    O24   A    
C82   C95   S    
C4    C86   T    
C56   H4    S    
C28   O5    A    
C23   O26   A    
Cr5   O16   S    
C51   C68   A    
Cr2   O3    S    
C19   C22   A    
C89   H47   S    
C64   C91   S    
C21   C35   A    
C48   C54   A    
C20   C24   A    
C1    C9    S    
C64   H34   S    
C13   C41   S    
C52   C69   A    
C49   C52   A    
Br1   C34   S    
Cr5   O10   S    
C38   H51   S    
C13   O14   A    
Cr3   O7    S    
C60   C63   A    
C25   C31   A    
C55   H22   S    
Cr3   O4    S    
Cr6   O11   S    
C34   C67   S    
C44   H28   S    
Cr4   O9    S    
Cr2   O12   S    
C67   C87   S    
C67   H44   S    
C79   H36   S    
C82   H39   S    
C34   C94   S    
C6    C9    T    
C50   C57   A    
C47   C50   A    
C46   C75   A    
Cr1   O8    S    
C65   C92   S    
C22   C52   A    
C33   C37   A    
C62   C72   A    
C19   C75   A    
C11   C43   S    
C54   H21   S    
C27   C70   A    
C24   C53   A    
C31   C35   A    
C44   C48   A    
C91   C94   S    
Br2   C45   S    
C78   H46   S    
C63   C70   A    
C12   O25   A    
C64   C87   S    
Cr3   O26   S    
C79   C88   S    
C79   C82   S    
C39   C42   A    
Cr3   O20   S    
C65   H26   S    
Cr1   O24   S    
C11   O13   A    
C35   H11   S    
C28   O4    A    
C15   O22   A    
C24   C37   A    
C46   C49   A    
C7    C90   S    
C80   C83   S    
Cr4   O13   S    
Cr2   O8    S    
Cr1   O2    S    
C78   C88   S    
C41   C71   A    
C83   C96   S    
C42   C72   A    
C60   H20   S    
C49   C55   A    
C17   O21   A    
C11   O10   A    
Cr5   O22   S    
C2    C94   S    
C15   O17   A    
C19   H6    S    
C29   O6    A    
C38   C41   A    
C27   C40   A    
C64   H25   S    
C5    C87   S    
C44   C74   A    
C62   C69   A    
C83   H40   S    
C66   H27   S    
C2    C84   T    
C45   C95   S    
C28   C75   S    
C81   H38   S    
C50   C53   A    
C14   O15   A    
Cr6   O19   S    
C91   H1    S    
C91   H55   S    
C53   C70   A    
C59   C62   A    
C72   H16   S    
C15   C86   S    
C30   O3    A    
C59   H19   S    
C82   H42   S    
Cr6   O15   S    
C7    C10   T    
C83   H43   S    
C57   H24   S    
C80   H37   S    
C14   O9    A    
C54   C58   A    
C81   H41   S    
C36   H13   S    
C71   H15   S    
C26   C32   A    
Cr6   O23   S    
C77   H31   S    
C27   C33   A    
C58   H18   S    
C48   C51   A    
C1    O20   A    
Cr4   O16   S    
C10   C12   S    
C16   C84   S    
C73   H17   S    
C77   H35   S    
C16   O23   A    
C29   C76   S    
C30   C74   S    
C45   H3    S    
C5    C8    T    
C17   C85   S    
Cr1   O5    S    
C89   C90   S    
C66   H54   S    
C93   H57   S    
Cr1   O1    S    
Cr4   O17   S    
C56   C89   S    
C77   C87   S    
C40   C43   A    
C65   H45   S    
C78   H49   S    
C39   H52   S    
C37   H14   S    
C89   H50   S    
C18   C21   A    
C18   C74   A    
C61   C71   A    
C20   C76   A    
Cr2   O25   S    
C33   H10   S    
C16   O18   A    
C80   H33   S    
C22   C36   A    
C63   C73   A    
C17   O19   A    
Br3   C56   S    
