data_mof_unit_44152.cif
_audit_creation_date              2012-12-10T17:17:24-0500
_audit_creation_method            fapswitch 2.2
_symmetry_space_group_name_H-M    P1
_symmetry_Int_Tables_number       1
_space_group_crystal_system       triclinic
_cell_length_a                    10.23802
_cell_length_b                    10.630538
_cell_length_c                    12.493949
_cell_angle_alpha                 91.400166
_cell_angle_beta                  110.402237
_cell_angle_gamma                 95.259057
_cell_volume                      1266.80216194

loop_
_atom_site_label
_atom_site_type_symbol
_atom_type_description
_atom_site_fract_x
_atom_site_fract_y
_atom_site_fract_z
_atom_type_partial_charge
C1    C     C_R   0.047307 0.732893 0.487245 0.895252
C2    C     C_R   0.443162 0.585637 0.986148 0.064478
C3    C     C_R   0.368745 0.589447 0.868830 0.096810
C4    C     C_R   0.583084 0.556550 0.020232 0.080477
C5    C     C_R   0.652908 0.554727 0.940193 0.173807
C6    C     C_R   0.585155 0.588892 0.829320 -0.231425
C7    C     C_R   0.444607 0.608163 0.794505 -0.178035
C8    C     C_R   0.652041 0.521675 0.130115 -0.231184
C9    C     C_R   0.858547 0.489940 0.085013 -0.122292
C10   C     C_R   0.221126 0.574246 0.830244 -0.139710
C11   C     C_2   0.058749 0.863932 0.458903 -0.329579
C12   C     C_R   0.138511 0.527744 0.711771 0.871352
C13   C     C_2   0.943821 0.925028 0.432196 -0.175099
C14   C     C_2   0.907179 0.131300 0.485895 -0.410637
C15   C     C_2   0.952730 0.059262 0.419111 0.317683
C16   C     C_2   0.431142 0.518683 0.499827 -0.146235
C17   C     C_2   0.566848 0.487098 0.489004 0.300673
C18   C     C_R   0.945131 0.266540 0.500036 0.992853
C19   C     C_R   0.864274 0.487499 0.286392 0.906239
C20   C     C_R   0.789198 0.519227 0.972575 -0.132151
C21   C     C_R   0.790831 0.495294 0.164578 -0.067058
C22   C     C_R   0.153769 0.600679 0.907499 -0.247653
C23   C     C_R   0.231838 0.627367 0.023897 0.027514
C24   C     C_R   0.374804 0.611655 0.063805 -0.220654
H1    H     H_    0.965318 0.466255 0.110228 0.173285
H2    H     H_    0.844641 0.879633 0.433200 0.175668
H3    H     H_    0.851154 0.088575 0.537860 0.142928
H4    H     H_    0.158265 0.909973 0.459466 0.188981
H5    H     H_    0.431793 0.605651 0.546757 0.127215
H6    H     H_    0.682871 0.630079 0.595766 0.121148
H7    H     H_    0.314720 0.363016 0.412161 0.242462
H8    H     H_    0.639474 0.597275 0.769054 0.134440
H9    H     H_    0.841942 0.515231 0.911314 0.134697
H10   H     H_    0.597994 0.513789 0.190219 0.193362
H11   H     H_    0.041194 0.601381 0.877108 0.177220
H12   H     H_    0.432650 0.628314 0.154373 0.180990
H13   H     H_    0.396142 0.640099 0.710012 0.162668
N1    N     N_2   0.313640 0.446500 0.454900 -0.158473
N2    N     N_2   0.686360 0.553430 0.545150 -0.214665
O1    O     O_R   0.936910 0.692950 0.509080 -0.609106
O2    O     O_R   0.138320 0.658600 0.480130 -0.620707
O3    O     O_R   0.002900 0.525670 0.675280 -0.612255
O4    O     O_R   0.204310 0.491320 0.646330 -0.610491
O5    O     O_R   0.861680 0.341400 0.519870 -0.561915
O6    O     O_R   0.063090 0.307050 0.490920 -0.568371
O7    O     O_R   0.795690 0.508680 0.353670 -0.586553
O8    O     O_R   0.997100 0.474330 0.324720 -0.593063
Zn1   Zn    Zn3+2 0.865520 0.522940 0.519330 0.982598
Zn2   Zn    Zn3+2 0.134480 0.477060 0.480670 0.995772
Br1   Br    Br    0.560202 0.345960 0.387053 -0.478643
C25   C     C_2   0.165108 0.671019 0.103923 0.896364
O9    O     O_2   0.054700 0.718386 0.067336 -0.619800
O10   O     O_R   0.229789 0.660938 0.221707 -0.799545
H14   H     H_    0.174152 0.694517 0.267189 0.361365
Br2   Br    Br    0.033975 0.122247 0.309673 -0.453002

loop_
_geom_bond_atom_site_label_1
_geom_bond_atom_site_label_2
_ccdc_geom_bond_type
C17   Br1   S    
O3    Zn1   S    
C2    C4    A    
C23   C24   A    
C18   O6    A    
C6    C7    A    
C18   O5    A    
C14   H3    S    
C14   C18   S    
C9    C20   A    
C6    H8    S    
C1    C11   S    
H7    N1    S    
O6    Zn2   S    
C4    C8    A    
N2    Zn1   S    
C2    C3    A    
C7    H13   S    
C19   O7    A    
C9    H1    S    
O8    Zn2   S    
N1    Zn2   S    
C8    H10   S    
O10   H14   S    
C10   C22   A    
C22   H11   S    
C11   C13   D    
C9    C21   A    
C24   H12   S    
C10   C12   S    
C11   H4    S    
C20   H9    S    
O2    Zn2   S    
C19   C21   S    
H6    N2    S    
C8    C21   A    
C12   O4    A    
C3    C7    A    
C13   C15   S    
C2    C24   A    
C5    C6    A    
C5    C20   A    
C13   H2    S    
C16   C17   S    
C25   O9    D    
O7    Zn1   S    
O1    Zn1   S    
C17   N2    D    
C19   O8    A    
C1    O2    A    
C3    C10   A    
C14   C15   D    
O4    Zn2   S    
C12   O3    A    
C1    O1    A    
C16   H5    S    
C22   C23   A    
C23   C25   S    
O5    Zn1   S    
C16   N1    D    
C4    C5    A    
C25   O10   S    
C15   Br2   S    
