data_mof_unit_43712.cif
_audit_creation_date              2013-03-05T15:56:42-0500
_audit_creation_method            fapswitch 2.2
_symmetry_space_group_name_H-M    P1
_symmetry_Int_Tables_number       1
_space_group_crystal_system       triclinic
_cell_length_a                    8.436557
_cell_length_b                    16.473554
_cell_length_c                    18.965607
_cell_angle_alpha                 100.055418
_cell_angle_beta                  92.08524
_cell_angle_gamma                 94.476449
_cell_volume                      2584.0756565

loop_
_atom_site_label
_atom_site_type_symbol
_atom_site_description
_atom_site_fract_x
_atom_site_fract_y
_atom_site_fract_z
_atom_type_partial_charge
P1    P     P_3+3 0.056550 0.421630 0.336220 0.581287
O1    O     O_2   0.884010 0.444810 0.325060 -0.401487
O2    O     O_3   0.132090 0.451130 0.414310 -0.308274
O3    O     O_3   0.640770 0.594650 0.368950 -0.363416
O4    O     O_2   0.736891 0.531588 0.243624 -0.389721
O5    O     O_3   0.084286 0.316430 0.294539 -0.508054
O6    O     O_3   0.686554 0.687559 0.258379 -0.573174
H1    H     H_    0.465137 0.720966 0.298940 -0.142107
C1    C     C_3   0.657024 0.809693 0.342848 -0.921019
H2    H     H_    0.683544 0.777348 0.387844 0.249038
H3    H     H_    0.769452 0.839277 0.326609 0.275012
P2    P     P_3+3 0.635450 0.689180 0.556380 0.514930
P3    P     P_3+3 0.093030 0.744187 0.406185 0.501510
O7    O     O_2   0.808690 0.699720 0.534830 -0.336227
O8    O     O_3   0.053760 0.638480 0.405010 -0.364370
O9    O     O_2   0.959639 0.780972 0.450803 -0.351368
O10   O     O_3   0.656931 0.714399 0.650192 -0.534418
O11   O     O_3   0.050490 0.767393 0.321252 -0.523281
C2    C     C_3   0.077901 0.698917 0.269108 0.444020
H4    H     H_    0.992510 0.645220 0.272913 0.145011
H5    H     H_    0.201263 0.681480 0.275191 -0.002394
C3    C     C_3   0.054157 0.720948 0.195039 -0.826485
H6    H     H_    0.070916 0.666735 0.153161 0.195878
H7    H     H_    0.932167 0.739814 0.187582 0.297597
C4    C     C_3   0.081342 0.737926 0.677036 0.606816
H8    H     H_    0.960875 0.707674 0.674808 -0.018670
C5    C     C_3   0.098504 0.809298 0.741921 -0.187313
H9    H     H_    0.222296 0.839189 0.746725 0.174924
H10   H     H_    0.078037 0.783925 0.791738 0.090939
Ba1   Ba    Ba6+2 0.845660 0.536000 0.465120 1.671245
C6    C     C_3   0.981481 0.247454 0.304953 0.397919
H11   H     H_    0.025040 0.229383 0.355119 0.080946
C7    C     C_3   0.978872 0.166977 0.243316 0.104817
H12   H     H_    0.853998 0.144863 0.224637 0.127598
C8    C     C_3   0.670188 0.642476 0.679347 0.478994
H13   H     H_    0.773822 0.610806 0.658749 0.013006
H14   H     H_    0.565071 0.598613 0.664525 0.161551
C9    C     C_3   0.685575 0.665372 0.760819 -0.940536
H15   H     H_    0.798383 0.703960 0.778226 0.251860
H16   H     H_    0.685512 0.608963 0.785116 0.224741
H17   H     H_    0.583749 0.700102 0.780798 0.275914
P4    P     P_3+3 0.133150 0.578440 0.663790 0.512189
O12   O     O_2   0.305690 0.555220 0.674980 -0.352052
O13   O     O_3   0.057610 0.548940 0.585700 -0.303724
O14   O     O_3   0.548930 0.405410 0.631060 -0.374621
O15   O     O_3   0.197978 0.684382 0.685678 -0.607648
P5    P     P_3+3 0.102375 0.255422 0.597159 0.578558
O16   O     O_3   0.631040 0.400420 0.463490 -0.294115
O17   O     O_3   0.135930 0.361590 0.595000 -0.301999
O18   O     O_2   0.224536 0.212310 0.547883 -0.363914
O19   O     O_3   0.159350 0.240071 0.682995 -0.484075
Ba2   Ba    Ba6+2 0.344160 0.464070 0.534880 1.689323
P6    P     P_3+3 0.617360 0.590943 0.277351 0.461087
C10   C     C_3   0.578485 0.747255 0.280568 0.887069
H18   H     H_    0.576557 0.858506 0.360854 0.212203
O20   O     O_3   0.558660 0.599640 0.536520 -0.399858
C11   C     C_3   0.414560 0.201739 0.323426 0.805035
H19   H     H_    0.308062 0.203877 0.355912 0.004051
C12   C     C_3   0.493622 0.120600 0.326489 -1.105792
H20   H     H_    0.401955 0.067797 0.322828 0.264680
H21   H     H_    0.572667 0.106277 0.281324 0.283164
H22   H     H_    0.567312 0.123235 0.375740 0.235454
P7    P     P_3+3 0.553034 0.296048 0.440110 0.477751
O21   O     O_2   0.381010 0.300300 0.465220 -0.323926
O22   O     O_3   0.518461 0.273153 0.347463 -0.589877
H23   H     H_    0.141416 0.772742 0.188571 0.285538
C13   C     C_3   0.086115 0.296320 0.733255 0.451422
H24   H     H_    0.139605 0.360364 0.734081 0.110779
H25   H     H_    0.955589 0.293001 0.721189 0.003209
C14   C     C_3   0.112818 0.274913 0.807369 -0.851586
H26   H     H_    0.241944 0.280138 0.822529 0.276852
H27   H     H_    0.054345 0.318110 0.847650 0.209106
H28   H     H_    0.061855 0.210788 0.807844 0.285325
P8    P     P_3+3 0.574764 0.414608 0.724134 0.435872
C15   C     C_3   0.547141 0.255705 0.702947 0.381830
H29   H     H_    0.678466 0.263051 0.698940 0.016348
O23   O     O_2   0.464025 0.480177 0.756749 -0.381832
O24   O     O_3   0.491743 0.323335 0.748043 -0.527765
H30   H     H_    0.487922 0.248400 0.648668 0.152640
H31   H     H_    0.577408 0.180030 0.784419 0.245122
C16   C     C_3   0.505912 0.177713 0.733656 -0.752653
H32   H     H_    0.531120 0.122354 0.694889 0.247825
H33   H     H_    0.377813 0.171590 0.744621 0.286287
C17   C     C_R   0.000617 0.466662 0.048279 -0.097175
C18   C     C_R   0.901161 0.437321 0.099175 0.303607
C19   C     C_R   0.827736 0.400390 0.941172 -0.082056
C20   C     C_R   0.955200 0.456740 0.973348 0.071746
C21   C     C_R   0.767054 0.400940 0.872242 -0.177895
C22   C     C_R   0.843530 0.449832 0.828307 -0.021241
C23   C     C_R   0.989016 0.496538 0.854439 0.011249
C24   C     C_R   0.043755 0.501079 0.927835 0.040019
C25   C     C_R   0.784229 0.449425 0.757543 0.138907
C26   C     C_R   0.880682 0.484928 0.710985 -0.476360
C27   C     C_R   0.026099 0.530125 0.733753 0.152499
C28   C     C_R   0.078497 0.538921 0.807514 -0.024670
C29   C     C_R   0.150199 0.508785 0.074075 0.026882
C30   C     C_R   0.205126 0.511877 0.147587 0.021859
C31   C     C_R   0.109506 0.475139 0.196026 -0.071056
C32   C     C_R   0.961251 0.437023 0.168883 -0.119361
H34   H     H_    0.836263 0.481523 0.656590 0.203482
H35   H     H_    0.664504 0.358899 0.852925 0.190225
H36   H     H_    0.882199 0.413162 0.203600 0.190391
C33   C     C_R   0.216341 0.588337 0.836143 -0.089580
C34   C     C_R   0.269519 0.593065 0.907629 -0.163758
C35   C     C_R   0.187464 0.548414 0.954728 0.056900
C36   C     C_R   0.244414 0.549083 0.027212 0.044505
C37   C     C_R   0.393944 0.588297 0.054604 -0.081732
C38   C     C_R   0.356850 0.550802 0.172156 -0.031564
C39   C     C_R   0.448884 0.588139 0.124639 -0.026830
C40   C     C_R   0.412731 0.551294 0.243531 0.162711
C41   C     C_R   0.314130 0.518575 0.291617 -0.436832
C42   C     C_R   0.162297 0.480422 0.270378 0.278678
H37   H     H_    0.285003 0.624491 0.803782 0.165948
H38   H     H_    0.567239 0.616556 0.140139 0.187947
H39   H     H_    0.359445 0.519286 0.345843 0.171369
H40   H     H_    0.773586 0.353729 0.968226 0.178712
H41   H     H_    0.375511 0.633580 0.924586 0.133401
H42   H     H_    0.475451 0.617409 0.022321 0.141779
C43   C     C_R   0.390996 0.735637 0.473662 -0.370566
C44   C     C_R   0.530022 0.765972 0.515220 0.228933
C45   C     C_R   0.577194 0.853104 0.528736 -0.055397
C46   C     C_R   0.473385 0.907979 0.503227 0.188966
C47   C     C_R   0.330623 0.874311 0.464229 -0.268469
C48   C     C_R   0.288669 0.788768 0.449990 0.295393
C49   C     C_R   0.580507 0.160712 0.511454 -0.344112
C50   C     C_R   0.658402 0.231047 0.492846 0.047669
C51   C     C_R   0.658629 0.113492 0.554619 0.042127
N1    N     N_2   0.518767 0.994166 0.504802 -0.061465
N2    N     N_2   0.590955 0.032713 0.561175 -0.029332
C52   C     C_R   0.814994 0.256192 0.518479 0.018714
H43   H     H_    0.460159 0.140974 0.490348 0.208557
H44   H     H_    0.252193 0.915200 0.444373 0.152800
C53   C     C_R   0.895120 0.213083 0.564229 -0.003251
C54   C     C_R   0.814645 0.142682 0.584967 0.095551
H45   H     H_    0.356822 0.669750 0.463064 0.163622
N3    N     N_R   0.985536 0.870872 0.735815 0.270264
O25   O     O_R   0.037247 0.946935 0.734014 -0.259651
O26   O     O_R   0.833808 0.852354 0.739558 -0.366952
C55   C     C_3   0.812991 0.267778 0.312951 -0.457824
C56   C     C_3   0.730337 0.282643 0.242991 -0.509226
H46   H     H_    0.663898 0.338758 0.252791 0.280064
H47   H     H_    0.814115 0.287756 0.200809 0.233594
H48   H     H_    0.647815 0.228536 0.219749 0.247191
H49   H     H_    0.754725 0.213151 0.330420 0.162070
H50   H     H_    0.804828 0.319290 0.357608 0.256428
C57   C     C_3   0.034924 0.089651 0.270501 -0.349893
C58   C     C_3   0.920878 0.055863 0.321677 -0.971363
H51   H     H_    0.906143 0.102928 0.370032 0.246142
H52   H     H_    0.802918 0.034981 0.293885 0.292112
H53   H     H_    0.969498 0.001632 0.339576 0.287070
H54   H     H_    0.045007 0.038625 0.224526 0.276534
H55   H     H_    0.152445 0.102847 0.297976 0.185307
N4    N     N_R   0.054785 0.180438 0.177000 0.300274
O27   O     O_R   0.069699 0.253561 0.159692 -0.318759
O28   O     O_R   0.063752 0.117184 0.125915 -0.301474
N5    N     N_R   0.539833 0.790145 0.221611 0.216878
O29   O     O_R   0.616598 0.778948 0.162881 -0.391431
O30   O     O_R   0.433301 0.843607 0.229166 -0.412155
N6    N     N_R   0.364210 0.204096 0.248989 0.218511
O31   O     O_R   0.365010 0.138802 0.199086 -0.352679
O32   O     O_R   0.356332 0.275682 0.229470 -0.317016
N7    N     N_R   0.732133 0.419847 0.085524 0.230791
O33   O     O_R   0.651414 0.469517 0.055133 -0.417167
O34   O     O_R   0.655861 0.359570 0.109703 -0.376919
C59   C     C_3   0.738377 0.886842 0.566186 -0.197326
C60   C     C_3   0.851014 0.925539 0.516592 -0.667674
H56   H     H_    0.821323 0.899587 0.459570 0.241537
H57   H     H_    0.845228 0.992031 0.519982 0.222672
H58   H     H_    0.976581 0.917430 0.531007 0.295380
H59   H     H_    0.721537 0.931701 0.615443 0.241872
H60   H     H_    0.800920 0.839256 0.587043 0.236581
N8    N     N_R   0.891613 0.099541 0.634360 0.251754
O35   O     O_R   0.035557 0.078129 0.624717 -0.320786
O36   O     O_R   0.815257 0.077861 0.687373 -0.375232
N9    N     N_R   0.892218 0.328917 0.500403 0.234120
O37   O     O_R   0.875611 0.399095 0.541515 -0.360756
O38   O     O_R   0.016375 0.322067 0.462277 -0.394072
N10   N     N_R   0.108160 0.766526 0.609915 0.227468
O39   O     O_R   0.157753 0.842873 0.607920 -0.420555
O40   O     O_R   0.119702 0.710159 0.553909 -0.354665

loop_
_geom_bond_atom_site_label_1
_geom_bond_atom_site_label_2
_geom_bond_distance
_ccdc_geom_bond_type
P6    C40   1.848100 S    
C59   H60   1.098664 S    
P7    O22   1.740357 S    
C59   C60   1.540762 S    
C20   C24   1.420808 A    
C47   H44   1.083226 S    
C5    H10   1.111627 S    
C24   C35   1.416572 A    
C58   H51   1.110269 S    
C56   H48   1.103202 S    
P4    C27   1.885103 S    
N1    N2    1.253936 D    
C16   H32   1.106790 S    
C23   C24   1.438050 A    
C47   C48   1.402253 A    
N9    O38   1.295305 A    
C43   C48   1.392799 A    
N8    O35   1.301195 A    
C26   C27   1.397319 A    
P3    O11   1.750429 S    
C5    N3    1.461000 S    
C51   C54   1.429837 A    
Ba1   O16   2.758335 S    
N5    O29   1.301352 A    
C33   H37   1.080097 S    
C56   H47   1.096381 S    
O11   C2    1.404202 S    
P1    C42   1.913579 S    
C10   N5    1.463247 S    
C9    H15   1.108267 S    
O3    P6    1.731129 S    
C7    N4    1.474805 S    
O12   Ba2   2.857570 S    
C11   C12   1.548677 S    
C36   C37   1.409448 A    
C50   C52   1.396691 A    
C38   C39   1.401164 A    
C19   H40   1.078319 S    
P1    O1    1.549865 D    
P4    O15   1.760339 S    
P8    C25   1.867271 S    
C40   C41   1.403964 A    
C3    H23   1.109079 S    
C29   C36   1.427413 A    
P2    C44   1.863009 S    
C30   C38   1.410998 A    
C2    H4    1.110540 S    
C28   C33   1.400649 A    
P8    O23   1.545467 D    
P2    O10   1.754323 S    
C6    C7    1.605298 S    
C14   H26   1.109384 S    
C1    H18   1.109182 S    
N4    O28   1.302041 A    
C1    H2    1.107124 S    
C37   H42   1.076758 S    
O13   Ba2   2.992420 S    
O5    C6    1.421057 S    
C11   N6    1.467325 S    
C12   H20   1.108835 S    
C54   N8    1.436852 S    
P5    C53   1.874008 S    
C60   H57   1.091019 S    
C18   N7    1.437514 S    
C37   C39   1.391293 A    
Ba1   O13   2.818744 S    
C60   H56   1.103253 S    
P4    O13   1.570789 S    
O7    Ba1   2.834687 S    
P5    O17   1.757626 S    
C34   C35   1.418855 A    
C16   H33   1.108168 S    
N8    O36   1.299993 A    
C30   C31   1.425788 A    
P5    O18   1.546779 D    
N7    O34   1.300431 A    
C12   H21   1.108904 S    
C31   C42   1.449069 A    
C13   H24   1.111933 S    
N10   O39   1.301512 A    
C23   C28   1.425839 A    
C8    C9    1.523445 S    
C17   C18   1.424068 A    
C9    H17   1.110683 S    
N3    O26   1.299948 A    
Ba2   O21   2.834918 S    
H1    C10   1.111627 S    
P3    C48   1.857879 S    
C19   C20   1.410357 A    
C15   C16   1.522235 S    
O16   P7    1.766882 S    
P5    O19   1.746704 S    
O14   Ba2   2.809350 S    
C4    H8    1.092489 S    
P7    O21   1.546761 D    
Ba1   O20   2.989073 S    
C43   H45   1.082746 S    
P1    O5    1.811453 S    
O14   P8    1.749249 S    
P1    O2    1.570789 S    
C8    H13   1.101864 S    
O2    Ba1   2.991501 S    
C15   H29   1.111903 S    
C51   N2    1.434078 S    
C18   C32   1.399555 A    
C41   H39   1.081863 S    
C55   H49   1.099156 S    
C49   H43   1.081789 S    
N6    O31   1.303397 A    
C55   C56   1.542564 S    
O17   Ba2   2.755230 S    
C29   C30   1.444172 A    
C2    C3    1.521220 S    
C14   H28   1.110646 S    
N6    O32   1.301925 A    
C7    H12   1.111732 S    
C43   C44   1.396538 A    
O19   C13   1.404547 S    
C56   H46   1.109832 S    
C22   C25   1.413849 A    
C1    H3    1.110646 S    
C26   H34   1.075290 S    
C45   C46   1.436571 A    
P2    O20   1.541552 S    
C39   H38   1.077122 S    
C57   H55   1.091325 S    
P2    O7    1.536866 D    
P3    O8    1.743121 S    
C49   C50   1.392742 A    
C3    H7    1.109266 S    
C52   C53   1.400554 A    
C4    C5    1.540423 S    
P4    O12   1.550175 D    
O6    P6    1.753204 S    
C6    C55   1.492631 S    
C17   C29   1.418879 A    
C58   H53   1.111109 S    
C33   C34   1.399594 A    
C45   C59   1.528535 S    
C44   C45   1.435016 A    
C8    H14   1.094763 S    
O8    Ba1   2.754465 S    
C57   C58   1.533166 S    
O4    P6    1.537725 D    
C59   H59   1.106337 S    
Ba1   Ba2   4.665000 S    
C55   H50   1.097507 S    
C12   H22   1.095555 S    
C41   C42   1.395172 A    
P2    Ba1   3.450394 S    
C4    N10   1.451690 S    
C6    H11   1.104280 S    
C21   H35   1.075722 S    
C11   O22   1.408142 S    
H31   C16   1.110620 S    
N10   O40   1.295064 A    
O2    Ba2   2.819204 S    
C46   C47   1.411714 A    
C17   C20   1.436162 A    
C52   N9    1.419551 S    
N7    O33   1.299447 A    
C58   H52   1.109771 S    
C35   C36   1.437561 A    
C34   H41   1.076775 S    
O1    Ba1   2.856988 S    
C13   C14   1.520964 S    
N5    O30   1.301087 A    
C22   C23   1.421011 A    
N9    O37   1.297140 A    
C9    H16   1.106948 S    
C11   H19   1.107145 S    
C53   C54   1.420020 A    
C25   C26   1.393649 A    
C38   C40   1.415577 A    
P1    Ba1   3.452975 S    
C19   C21   1.388310 A    
C46   N1    1.436254 S    
C27   C28   1.430942 A    
C15   O24   1.403141 S    
P7    C50   1.842578 S    
C7    C57   1.554912 S    
C57   H54   1.111165 S    
O16   Ba2   2.988184 S    
C32   H36   1.055581 S    
C21   C22   1.397021 A    
C60   H58   1.108417 S    
C31   C32   1.393314 A    
P8    O24   1.747495 S    
P3    O9    1.531790 D    
C5    H9    1.112941 S    
C49   C51   1.404565 A    
C3    H6    1.108407 S    
N3    O25   1.300863 A    
C14   H27   1.107142 S    
C1    C10   1.518097 S    
O10   C8    1.402515 S    
O6    C10   1.413778 S    
C13   H25   1.111697 S    
N4    O27   1.300800 A    
C15   H30   1.110751 S    
C4    O15   1.395496 S    
O3    Ba1   2.809762 S    
Ba2   O20   2.757581 S    
P4    Ba2   3.453687 S    
C2    H5    1.108368 S    
