data_mof_unit_11222.cif
_audit_creation_date              2012-10-26T21:21:05-0400
_audit_creation_method            fapswitch 2.2
_symmetry_space_group_name_H-M    P1
_symmetry_Int_Tables_number       1
_space_group_crystal_system       triclinic
_cell_length_a                    10.849143
_cell_length_b                    10.988909
_cell_length_c                    9.729826
_cell_angle_alpha                 90.115177
_cell_angle_beta                  89.980195
_cell_angle_gamma                 88.60191
_cell_volume                      1159.64448219

loop_
_atom_site_label
_atom_site_type_symbol
_atom_type_description
_atom_site_fract_x
_atom_site_fract_y
_atom_site_fract_z
_atom_type_partial_charge
C1    C     C_R   0.498225 0.265997 0.499554 0.575833
C2    C     C_2   0.480814 0.136238 0.496964 0.005733
C3    C     C_2   0.418468 0.444359 0.922901 0.078962
C4    C     C_R   0.262396 0.508793 0.499973 0.587801
C5    C     C_2   0.407951 0.466578 0.075389 -0.008256
C6    C     C_R   0.512068 0.733051 0.499815 0.613270
C7    C     C_R   0.737209 0.504502 0.500448 0.541161
C8    C     C_R   0.115836 0.701456 0.660297 0.229798
C9    C     C_R   0.049435 0.765727 0.762248 0.016592
C10   C     C_R   0.923932 0.748732 0.776380 -0.129966
C11   C     C_R   0.863968 0.670642 0.688118 -0.094059
C12   C     C_R   0.060562 0.605283 0.586083 0.030204
C13   C     C_R   0.930497 0.595504 0.593881 -0.006638
C14   C     C_1   0.386985 0.089787 0.587873 0.236367
C15   C     C_1   0.332147 0.362678 0.862104 0.285477
C16   C     C_1   0.618013 0.475965 0.104481 0.405171
C17   C     C_1   0.106907 0.856458 0.846746 0.299549
C18   C     C_1   0.451514 0.897314 0.270199 0.271298
C19   C     C_R   0.127865 0.523187 0.498234 0.027686
C20   C     C_R   0.065355 0.446829 0.408440 -0.142177
C21   C     C_R   0.938294 0.444776 0.408554 -0.115256
C22   C     C_R   0.870499 0.515400 0.502310 0.017799
C23   C     C_2   0.514311 0.936093 0.393635 -0.010614
C24   C     C_2   0.540669 0.861736 0.500738 0.203153
C25   C     C_2   0.540219 0.065240 0.403501 0.215322
Cl1   Cl    Cl    0.248639 0.770145 0.599229 -0.577135
Cl2   Cl    Cl    0.622983 0.913741 0.646241 -0.570619
Cl3   Cl    Cl    0.654136 0.120370 0.290879 -0.516600
Cu1   Cu    Cu3+1 0.500020 0.500020 0.638630 1.058650
Cu2   Cu    Cu3+1 0.499980 0.499980 0.361370 1.044472
H1    H     H_    0.115516 0.385786 0.339543 0.140207
H2    H     H_    0.543935 0.570237 0.890580 0.224562
H3    H     H_    0.318978 0.452533 0.122909 0.133926
H4    H     H_    0.870509 0.802103 0.850087 0.170439
H5    H     H_    0.765033 0.673197 0.695200 0.188060
H6    H     H_    0.892647 0.383769 0.338374 0.179096
N1    N     N_2   0.498640 0.498660 0.846910 -0.350432
N2    N     N_2   0.498610 0.498630 0.153040 -0.276267
N3    N     N_1   0.312076 0.053142 0.660466 -0.151728
N4    N     N_1   0.262007 0.297193 0.814297 -0.248491
N5    N     N_1   0.717278 0.457046 0.064770 -0.280017
N6    N     N_1   0.152903 0.929064 0.914636 -0.188505
N7    N     N_1   0.401315 0.866670 0.171521 -0.207146
O1    O     O_R   0.500020 0.321960 0.617040 -0.482445
O2    O     O_R   0.499980 0.321920 0.382900 -0.468701
O3    O     O_R   0.319670 0.500020 0.617100 -0.478407
O4    O     O_R   0.319630 0.499980 0.382950 -0.517516
O5    O     O_R   0.500020 0.678080 0.617100 -0.435233
O6    O     O_R   0.499980 0.678040 0.382960 -0.511092
O7    O     O_R   0.680370 0.500020 0.617050 -0.513248
O8    O     O_R   0.680330 0.499980 0.382900 -0.500040

loop_
_geom_bond_atom_site_label_1
_geom_bond_atom_site_label_2
_ccdc_geom_bond_type
C23   C24   D    
Cu1   Cu2   S    
C7    C22   S    
C8    Cl1   S    
C9    C10   A    
C1    O1    A    
C19   C20   A    
C24   Cl2   S    
Cu1   O3    S    
C8    C12   A    
C6    C24   S    
C11   H5    S    
C18   N7    T    
C7    O8    A    
Cu1   O1    S    
C21   H6    S    
C4    O3    A    
C5    N2    D    
C12   C13   A    
C25   Cl3   S    
C11   C13   A    
C1    O2    A    
C6    O5    A    
C12   C19   A    
C9    C17   S    
Cu2   O8    S    
C13   C22   A    
C2    C25   D    
Cu1   O7    S    
C23   C25   S    
C6    O6    A    
C2    C14   S    
C15   N4    T    
H2    N1    S    
C10   C11   A    
Cu1   O5    S    
C18   C23   S    
Cu2   O4    S    
C3    C15   S    
C20   C21   A    
C3    N1    D    
C10   H4    S    
C1    C2    S    
Cu1   N1    S    
C17   N6    T    
C4    O4    A    
Cu2   O2    S    
Cu2   N2    S    
C14   N3    T    
C21   C22   A    
C4    C19   S    
C16   N5    T    
Cu2   O6    S    
C7    O7    A    
C16   N2    S    
C8    C9    A    
C3    C5    S    
C20   H1    S    
C5    H3    S    
