data_mof_unit_25634.cif
_audit_creation_date              2012-12-10T19:23:57-0500
_audit_creation_method            fapswitch 2.2
_symmetry_space_group_name_H-M    P1
_symmetry_Int_Tables_number       1
_space_group_crystal_system       triclinic
_cell_length_a                    17.898939
_cell_length_b                    16.458858
_cell_length_c                    10.789582
_cell_angle_alpha                 90.795333
_cell_angle_beta                  92.401043
_cell_angle_gamma                 91.404091
_cell_volume                      3174.47099069

loop_
_atom_site_label
_atom_site_type_symbol
_atom_type_description
_atom_site_fract_x
_atom_site_fract_y
_atom_site_fract_z
_atom_type_partial_charge
C1    C     C_R   0.354883 0.499157 0.506204 0.830756
C2    C     C_R   0.644855 0.501065 0.497085 0.797867
C3    C     C_R   0.728289 0.505005 0.493080 -0.151475
C4    C     C_R   0.271234 0.499604 0.519861 -0.149584
C5    C     C_R   0.769104 0.440642 0.440327 0.079837
C6    C     C_R   0.223772 0.427783 0.507554 0.081485
C7    C     C_R   0.847311 0.445621 0.444608 -0.217083
C8    C     C_R   0.146121 0.435937 0.508008 -0.220329
C9    C     C_R   0.886082 0.513610 0.494066 0.067891
C10   C     C_R   0.113370 0.510866 0.517093 0.082196
C11   C     C_1   0.966223 0.512647 0.500367 -0.055637
C12   C     C_1   0.033241 0.512270 0.507686 -0.057725
C13   C     C_R   0.547812 0.831044 0.582137 -0.002689
C14   C     C_R   0.447047 0.825444 0.421511 0.015835
C15   C     C_R   0.547013 0.744837 0.579622 0.088424
C16   C     C_R   0.450810 0.739525 0.422612 0.046428
C17   C     C_R   0.497264 0.871901 0.501125 0.051400
C18   C     C_1   0.497073 0.961524 0.500008 -0.053494
C19   C     C_1   0.497650 0.035742 0.499543 -0.015969
C20   C     C_R   0.509867 0.499987 0.262844 0.820267
C21   C     C_R   0.491137 0.500766 0.737631 0.828914
C22   C     C_R   0.532649 0.169791 0.596876 -0.351561
C23   C     C_R   0.466320 0.167047 0.401563 -0.358698
C24   C     C_R   0.535109 0.255730 0.595728 0.183773
C25   C     C_R   0.465579 0.252928 0.403016 0.147842
C26   C     C_R   0.498741 0.124818 0.499416 0.153779
C27   C     C_R   0.547965 0.648950 0.121428 -0.273242
C28   C     C_R   0.474013 0.654224 0.891621 -0.270555
C29   C     C_R   0.533349 0.724897 0.069899 0.015357
C30   C     C_R   0.491895 0.727659 0.955057 -0.002781
C31   C     C_R   0.493256 0.578063 0.940962 0.071165
C32   C     C_R   0.520075 0.575903 0.064636 0.071592
C33   C     C_R   0.519520 0.500804 0.127522 -0.181969
C34   C     C_R   0.482365 0.503781 0.873306 -0.170196
C35   C     C_R   0.509297 0.427503 0.059076 0.086438
C36   C     C_R   0.477292 0.430326 0.938535 0.071152
C37   C     C_R   0.847553 0.580573 0.538763 0.080261
C38   C     C_R   0.157407 0.581682 0.538256 0.057677
C39   C     C_R   0.768624 0.575707 0.540032 -0.026759
C40   C     C_R   0.236278 0.575917 0.543498 -0.045320
Cu1   Cu    Cu3+1 0.500000 0.580420 0.500000 0.962176
Cu2   Cu    Cu3+1 0.500000 0.419580 0.500000 0.994089
H1    H     H_    0.559212 0.137627 0.673316 0.134280
H2    H     H_    0.439643 0.132796 0.324477 0.140047
H3    H     H_    0.581211 0.647375 0.207537 0.162219
H4    H     H_    0.441686 0.657375 0.805358 0.213153
H5    H     H_    0.878598 0.395787 0.407583 0.141043
H6    H     H_    0.109658 0.382269 0.501069 0.139894
H7    H     H_    0.583654 0.711532 0.641070 0.131492
H8    H     H_    0.414001 0.701969 0.362982 0.129156
N1    N     N_R   0.500000 0.701220 0.500000 -0.204523
N2    N     N_R   0.500000 0.298780 0.500000 -0.187220
O1    O     O_R   0.391260 0.567930 0.500000 -0.568703
O2    O     O_R   0.608740 0.567930 0.500000 -0.581266
O3    O     O_R   0.391280 0.432120 0.500000 -0.550623
O4    O     O_R   0.608720 0.432120 0.500000 -0.531641
O5    O     O_R   0.500000 0.567920 0.319650 -0.590855
O6    O     O_R   0.500000 0.567920 0.680350 -0.593011
O7    O     O_R   0.500030 0.432100 0.319660 -0.559654
O8    O     O_R   0.499970 0.432100 0.680340 -0.558983
C41   C     C_3   0.557374 0.354989 0.091071 -0.423617
C42   C     C_3   0.636006 0.368507 0.042071 -0.346880
C43   C     C_3   0.680634 0.290800 0.046226 -0.853031
H9    H     H_    0.683173 0.266727 0.141474 0.257357
H10   H     H_    0.654188 0.243927 0.982462 0.253557
H11   H     H_    0.738449 0.303821 0.017254 0.246206
H12   H     H_    0.632221 0.389315 0.944505 0.256400
H13   H     H_    0.666427 0.416528 0.099047 0.205465
H14   H     H_    0.563072 0.344424 0.191862 0.204008
H15   H     H_    0.532698 0.297994 0.049438 0.187695
C44   C     C_3   0.427331 0.359456 0.890339 -0.399429
C45   C     C_3   0.347837 0.387195 0.856433 -0.315653
C46   C     C_3   0.294943 0.314673 0.827749 -0.869092
H16   H     H_    0.315699 0.277629 0.750146 0.250113
H17   H     H_    0.290359 0.276029 0.910820 0.256970
H18   H     H_    0.238466 0.336693 0.801058 0.243622
H19   H     H_    0.326089 0.422649 0.935075 0.230029
H20   H     H_    0.348425 0.426713 0.773808 0.212555
H21   H     H_    0.450705 0.328769 0.809688 0.202016
H22   H     H_    0.422053 0.312836 0.963052 0.192105
C47   C     C_2   0.576906 0.293136 0.704192 0.359714
H23   H     H_    0.571964 0.265599 0.794396 0.026763
O9    O     O_2   0.621136 0.349792 0.695067 -0.548228
C48   C     C_2   0.426446 0.287641 0.293654 0.377881
H24   H     H_    0.431716 0.259145 0.203212 0.018191
O10   O     O_2   0.383421 0.343165 0.302766 -0.533197
C49   C     C_2   0.560563 0.797114 0.144019 0.406605
H25   H     H_    0.611257 0.793166 0.202271 0.061040
O11   O     O_2   0.525082 0.859258 0.148464 -0.513547
C50   C     C_2   0.467479 0.803340 0.893081 0.369827
H26   H     H_    0.423988 0.799604 0.819818 0.078879
O12   O     O_2   0.496752 0.869579 0.917444 -0.517246
C51   C     C_3   0.890751 0.655896 0.588740 -0.400069
C52   C     C_3   0.907955 0.649526 0.728601 -0.361799
C53   C     C_3   0.943714 0.728224 0.782188 -0.850593
H27   H     H_    0.904720 0.779221 0.769497 0.258462
H28   H     H_    0.956547 0.721160 0.882978 0.244835
H29   H     H_    0.996529 0.743023 0.736081 0.252270
H30   H     H_    0.855472 0.636589 0.777092 0.215101
H31   H     H_    0.946644 0.598779 0.746417 0.225440
H32   H     H_    0.943353 0.664490 0.539508 0.196858
H33   H     H_    0.859588 0.711937 0.568814 0.236794
C54   C     C_3   0.119948 0.662757 0.558548 -0.425478
C55   C     C_3   0.105498 0.705454 0.434769 -0.354707
C56   C     C_3   0.074632 0.790057 0.454406 -0.850276
H34   H     H_    0.021307 0.786284 0.503230 0.253962
H35   H     H_    0.115678 0.828837 0.509844 0.252991
H36   H     H_    0.063927 0.818838 0.363102 0.244811
H37   H     H_    0.158465 0.711425 0.384997 0.211456
H38   H     H_    0.064705 0.668638 0.375616 0.227379
H39   H     H_    0.066715 0.653276 0.605637 0.207425
H40   H     H_    0.153824 0.703127 0.623507 0.199369
C57   C     C_2   0.729048 0.645067 0.592344 0.354585
H41   H     H_    0.704606 0.640193 0.682355 0.040057
O13   O     O_2   0.721411 0.706743 0.532035 -0.576093
C58   C     C_2   0.280427 0.650522 0.580192 0.374025
H42   H     H_    0.275022 0.705356 0.526148 0.053978
O14   O     O_2   0.320395 0.651943 0.674646 -0.578101
C59   C     C_3   0.733431 0.366645 0.373925 -0.395175
C60   C     C_3   0.736576 0.292072 0.457636 -0.307413
C61   C     C_3   0.694471 0.218665 0.398626 -0.839284
H43   H     H_    0.636516 0.234668 0.369316 0.260643
H44   H     H_    0.724247 0.196161 0.317290 0.244512
H45   H     H_    0.691657 0.169019 0.467050 0.246528
H46   H     H_    0.795770 0.275775 0.477171 0.201991
H47   H     H_    0.711997 0.306505 0.547297 0.273371
H48   H     H_    0.675601 0.377653 0.339099 0.207104
H49   H     H_    0.764527 0.353686 0.289038 0.186849
C62   C     C_3   0.248439 0.339859 0.500348 -0.364665
C63   C     C_3   0.223109 0.298270 0.376218 -0.303120
C64   C     C_3   0.244542 0.209037 0.373354 -0.844766
H50   H     H_    0.305410 0.202850 0.392475 0.262251
H51   H     H_    0.213951 0.174774 0.444192 0.244999
H52   H     H_    0.229528 0.182029 0.280492 0.238081
H53   H     H_    0.161454 0.300156 0.361407 0.195791
H54   H     H_    0.247723 0.330672 0.297721 0.260569
H55   H     H_    0.308374 0.330928 0.519018 0.244956
H56   H     H_    0.221287 0.306271 0.575736 0.176746
C65   C     C_3   0.600813 0.881269 0.669146 -0.370591
C66   C     C_3   0.650160 0.833467 0.761100 -0.353380
C67   C     C_3   0.693880 0.890486 0.851987 -0.807316
H57   H     H_    0.730160 0.933143 0.801122 0.244852
H58   H     H_    0.654928 0.925735 0.908054 0.284881
H59   H     H_    0.729757 0.854348 0.915801 0.235066
H60   H     H_    0.615456 0.791225 0.815165 0.224390
H61   H     H_    0.690818 0.797883 0.709843 0.247302
H62   H     H_    0.637940 0.918984 0.611664 0.203987
H63   H     H_    0.566671 0.923424 0.723245 0.237584
C68   C     C_3   0.389642 0.868968 0.339670 -0.372017
C69   C     C_3   0.341384 0.814375 0.249606 -0.358785
C70   C     C_3   0.288888 0.864703 0.168283 -0.816453
H64   H     H_    0.250919 0.899649 0.226649 0.245778
H65   H     H_    0.321546 0.907452 0.111467 0.269387
H66   H     H_    0.254495 0.823708 0.104927 0.240449
H67   H     H_    0.377920 0.779650 0.188248 0.243080
H68   H     H_    0.306931 0.771116 0.302818 0.195195
H69   H     H_    0.352012 0.902125 0.401126 0.188515
H70   H     H_    0.419555 0.914959 0.284389 0.252009

loop_
_geom_bond_atom_site_label_1
_geom_bond_atom_site_label_2
_ccdc_geom_bond_type
C41   H15   S    
C24   N2    A    
C38   C40   A    
C49   H25   S    
C43   H10   S    
C51   C52   S    
C27   C29   A    
C38   C54   S    
Cu1   Cu2   S    
C53   H27   S    
C16   N1    A    
C30   C50   S    
C64   H52   S    
C44   H21   S    
C47   H23   S    
C53   H29   S    
C15   H7    S    
C56   H35   S    
C28   H4    S    
C42   C43   S    
C42   H12   S    
C5    C59   S    
C13   C65   S    
C48   O10   D    
Cu1   O6    S    
C57   H41   S    
C67   H58   S    
C55   H37   S    
C60   H47   S    
C70   H66   S    
C58   H42   S    
C54   H39   S    
C18   C19   T    
C46   H16   S    
C23   C26   A    
C19   C26   S    
C1    O1    A    
C55   C56   S    
C61   H45   S    
C45   H20   S    
C45   H19   S    
Cu2   O4    S    
C62   H56   S    
C4    C40   A    
C39   C57   S    
C25   C48   S    
C70   H64   S    
C14   C16   A    
C15   N1    A    
C68   H70   S    
C36   C44   S    
C59   H49   S    
C27   H3    S    
C23   C25   A    
C43   H11   S    
C3    C39   A    
C69   H68   S    
C46   H17   S    
C14   C17   A    
C52   C53   S    
C6    C62   S    
C44   H22   S    
C47   O9    D    
C56   H36   S    
C65   H63   S    
C29   C49   S    
C66   C67   S    
C21   O8    A    
C4    C6    A    
C2    O2    A    
C67   H59   S    
C51   H32   S    
C5    C7    A    
C60   H46   S    
C6    C8    A    
C21   C34   S    
C3    C5    A    
C23   H2    S    
C54   H40   S    
C35   C36   A    
C7    H5    S    
C51   H33   S    
C24   C47   S    
C8    H6    S    
C29   C30   A    
Cu2   O3    S    
C50   O12   D    
C31   C32   A    
C52   H31   S    
C65   C66   S    
C65   H62   S    
C9    C37   A    
C17   C18   S    
C31   C34   A    
C37   C51   S    
C35   C41   S    
C48   H24   S    
C20   O7    A    
C9    C11   S    
Cu1   O1    S    
C61   H43   S    
C10   C12   S    
C20   C33   S    
C63   H53   S    
C69   H67   S    
C13   C15   A    
C46   H18   S    
C22   C24   A    
C66   H61   S    
C64   H50   S    
Cu2   O8    S    
C60   C61   S    
C62   C63   S    
C41   H14   S    
C7    C9    A    
C27   C32   A    
C28   C31   A    
C63   H54   S    
C16   H8    S    
C45   C46   S    
C64   H51   S    
C66   H60   S    
C59   C60   S    
C53   H28   S    
C42   H13   S    
C56   H34   S    
C13   C17   A    
C10   C38   A    
C1    C4    S    
C32   C33   A    
C28   C30   A    
C2    C3    S    
C1    O3    A    
C25   N2    A    
Cu1   O5    S    
C44   C45   S    
C37   C39   A    
C2    O4    A    
C67   H57   S    
C55   H38   S    
C50   H26   S    
C40   C58   S    
C52   H30   S    
C14   C68   S    
C33   C35   A    
C58   O14   D    
C63   C64   S    
C34   C36   A    
C70   H65   S    
C41   C42   S    
Cu1   O2    S    
C61   H44   S    
C43   H9    S    
C21   O6    A    
C62   H55   S    
C8    C10   A    
C22   C26   A    
Cu2   O7    S    
C54   C55   S    
C49   O11   D    
C69   C70   S    
C20   O5    A    
C68   C69   S    
C68   H69   S    
Cu1   N1    S    
C22   H1    S    
C11   C12   T    
Cu2   N2    S    
C57   O13   D    
C59   H48   S    
