data_mof_unit_67872.cif
_audit_creation_date              2013-03-05T15:41:51-0500
_audit_creation_method            fapswitch 2.2
_symmetry_space_group_name_H-M    P1
_symmetry_Int_Tables_number       1
_space_group_crystal_system       triclinic
_cell_length_a                    7.76272
_cell_length_b                    8.697348
_cell_length_c                    10.567088
_cell_angle_alpha                 90.425522
_cell_angle_beta                  86.960865
_cell_angle_gamma                 94.232647
_cell_volume                      710.486824764

loop_
_atom_site_label
_atom_site_type_symbol
_atom_site_description
_atom_site_fract_x
_atom_site_fract_y
_atom_site_fract_z
_atom_type_partial_charge
O1    O     O_R   0.389250 0.738570 0.508410 -0.608904
O2    O     O_R   0.610750 0.261430 0.491590 -0.608904
O3    O     O_R   0.678390 0.711620 0.486450 -0.607691
O4    O     O_R   0.321610 0.288380 0.513550 -0.607692
C1    C     C_R   0.545518 0.794026 0.497798 0.936557
C2    C     C_R   0.454482 0.205974 0.502202 0.936558
O5    O     O_R   0.355460 0.513510 0.697030 -0.623521
O6    O     O_R   0.644540 0.486490 0.302970 -0.623521
O7    O     O_R   0.644600 0.486560 0.675070 -0.579937
O8    O     O_R   0.355400 0.513440 0.324930 -0.579937
C3    C     C_R   0.504736 0.504454 0.742042 0.970293
C4    C     C_R   0.495264 0.495546 0.257958 0.970293
Zn1   Zn    Zn3+2 0.306940 0.517990 0.514670 1.043184
Zn2   Zn    Zn3+2 0.693060 0.482010 0.485330 1.043184
N1    N     N_2   0.950320 0.457950 0.465730 -0.153352
N2    N     N_2   0.049680 0.542050 0.534270 -0.153352
C5    C     C_3   0.382046 0.592449 0.959124 -0.234598
C6    C     C_3   0.617954 0.407551 0.040876 -0.234598
C7    C     C_3   0.531831 0.642034 0.044381 -0.110198
C8    C     C_3   0.468169 0.357966 0.955619 -0.110198
H1    H     H_    0.287499 0.669919 0.924361 0.202300
H2    H     H_    0.712500 0.330081 0.075639 0.202300
C9    C     C_3   0.489085 0.496357 0.123705 -0.121283
C10   C     C_3   0.510915 0.503642 0.876295 -0.121283
C11   C     C_3   0.340647 0.445358 0.039462 -0.050925
C12   C     C_3   0.659353 0.554642 0.960538 -0.050925
H3    H     H_    0.009456 0.369005 0.421341 0.249808
H4    H     H_    0.990544 0.630995 0.578659 0.249808
C13   C     C_2   0.568445 0.956112 0.508360 -0.320582
C14   C     C_2   0.431555 0.043888 0.491640 -0.320582
C15   C     C_2   0.571186 0.804547 0.088158 1.008208
O9    O     O_2   0.629667 0.901854 0.011515 -0.575144
O10   O     O_R   0.544395 0.843844 0.215344 -0.795560
H5    H     H_    0.578103 0.956747 0.231986 0.352796
C16   C     C_2   0.428814 0.195453 0.911842 1.008209
O11   O     O_2   0.370334 0.098146 0.988486 -0.575144
O12   O     O_R   0.455603 0.156156 0.784656 -0.795560
H6    H     H_    0.421896 0.043254 0.768014 0.352796
C17   C     C_2   0.161515 0.375521 0.072040 1.020904
O13   O     O_2   0.062871 0.347073 0.987162 -0.623355
O14   O     O_R   0.110903 0.335371 0.196543 -0.783628
H7    H     H_    0.989153 0.284185 0.204372 0.341127
C18   C     C_2   0.838485 0.624479 0.927959 1.020904
O15   O     O_2   0.937129 0.652927 0.012837 -0.623355
O16   O     O_R   0.889097 0.664629 0.803457 -0.783629
H8    H     H_    0.010847 0.715815 0.795628 0.341126
C19   C     C_2   0.740971 0.013974 0.550837 1.042165
O17   O     O_2   0.852524 0.063894 0.472708 -0.612000
O18   O     O_R   0.775530 0.007481 0.679090 -0.742191
H9    H     H_    0.896838 0.050850 0.696472 0.375526
C20   C     C_2   0.259029 0.986027 0.449163 1.042166
O19   O     O_2   0.147476 0.936105 0.527292 -0.612000
O20   O     O_R   0.224469 0.992521 0.320910 -0.742192
H10   H     H_    0.103161 0.949152 0.303528 0.375527

loop_
_geom_bond_atom_site_label_1
_geom_bond_atom_site_label_2
_geom_bond_distance
_ccdc_geom_bond_type
N2    H4    1.026347 S    
C7    C9    1.530435 S    
O7    Zn2   2.020926 S    
C15   O10   1.392980 S    
C13   C14   1.372912 D    
C18   O16   1.392454 S    
O14   H7    1.014113 S    
N1    H3    1.026348 S    
C16   O11   1.221780 D    
C6    C12   1.545030 S    
O6    C4    1.283630 A    
C18   O15   1.222131 D    
C7    C15   1.498884 S    
O3    C1    1.298721 A    
O10   H5    1.013908 S    
C5    C11   1.545030 S    
C19   O18   1.397787 S    
C6    H2    1.110335 S    
O20   H10   1.013732 S    
C11   C17   1.499581 S    
O5    C3    1.283631 A    
O7    C3    1.282841 A    
C4    C9    1.422100 S    
O2    C2    1.271518 A    
O3    Zn2   2.008528 S    
O8    C4    1.282840 A    
C13   C19   1.486364 S    
O1    C1    1.271518 A    
N1    N2    1.273804 D    
O4    C2    1.298721 A    
C16   O12   1.392980 S    
O12   H6    1.013909 S    
C10   C12   1.531150 S    
C12   C18   1.499582 S    
C1    C13   1.412146 S    
C9    C11   1.531150 S    
O2    Zn2   1.977267 S    
C5    C10   1.540971 S    
O1    Zn1   1.977267 S    
C8    C11   1.533190 S    
C20   O19   1.222298 D    
C14   C20   1.486364 S    
C19   O17   1.222299 D    
C8    C10   1.530435 S    
C3    C10   1.422100 S    
O5    Zn1   1.984191 S    
C6    C8    1.543013 S    
C17   O14   1.392455 S    
O18   H9    1.013731 S    
Zn1   N2    2.022876 S    
C17   O13   1.222130 D    
C7    C12   1.533190 S    
Zn2   N1    2.022876 S    
O6    Zn2   1.984189 S    
C5    C7    1.543013 S    
O16   H8    1.014113 S    
C8    C16   1.498884 S    
C2    C14   1.412146 S    
C15   O9    1.221781 D    
C5    H1    1.110335 S    
C6    C9    1.540971 S    
O4    Zn1   2.008528 S    
C20   O20   1.397785 S    
O8    Zn1   2.020926 S    
