data_mof_unit_47604.cif
_audit_creation_date              2012-12-10T20:49:08-0500
_audit_creation_method            fapswitch 2.2
_symmetry_space_group_name_H-M    P1
_symmetry_Int_Tables_number       1
_space_group_crystal_system       triclinic
_cell_length_a                    8.923136
_cell_length_b                    8.125248
_cell_length_c                    10.548066
_cell_angle_alpha                 89.745639
_cell_angle_beta                  89.851558
_cell_angle_gamma                 90.070642
_cell_volume                      764.752495303

loop_
_atom_site_label
_atom_site_type_symbol
_atom_type_description
_atom_site_fract_x
_atom_site_fract_y
_atom_site_fract_z
_atom_type_partial_charge
C1    C     C_R   0.218085 0.499925 0.499471 0.976905
C2    C     C_3   0.630469 0.439572 0.039001 0.007087
C3    C     C_3   0.497246 0.498828 0.877545 -0.054081
C4    C     C_3   0.502759 0.501172 0.122455 -0.054082
C5    C     C_1   0.065225 0.499886 0.499777 -0.158510
C6    C     C_1   0.934774 0.500114 0.500223 -0.158523
C7    C     C_2   0.220733 0.627119 0.919870 0.924093
C8    C     C_2   0.779278 0.372907 0.080133 0.924098
C9    C     C_R   0.781914 0.500075 0.500529 0.976893
C10   C     C_R   0.501578 0.500426 0.256857 0.937382
C11   C     C_R   0.498426 0.499574 0.743143 0.937392
C12   C     C_3   0.483959 0.656386 0.040696 -0.203290
C13   C     C_3   0.516047 0.343613 0.959304 -0.203276
C14   C     C_3   0.613318 0.593834 0.955254 -0.228827
C15   C     C_3   0.386687 0.406166 0.044747 -0.228810
C16   C     C_3   0.369537 0.560428 0.960999 0.007072
H1    H     H_    0.470392 0.783705 0.076784 0.173110
H2    H     H_    0.529614 0.216295 0.923216 0.173097
H3    H     H_    0.705924 0.669307 0.915028 0.173619
H4    H     H_    0.294080 0.330694 0.084972 0.173612
H5    H     H_    0.081334 0.683163 0.776000 0.343635
H6    H     H_    0.918701 0.316983 0.224002 0.343647
N1    N     N_1   0.500000 0.073640 0.500000 -0.026496
N2    N     N_1   0.500000 0.926360 0.500000 -0.026498
O1    O     O_R   0.285350 0.636850 0.500000 -0.597717
O2    O     O_R   0.185311 0.637074 0.791218 -0.811288
O3    O     O_2   0.869626 0.328302 0.000131 -0.611961
O4    O     O_R   0.814682 0.362916 0.208782 -0.811324
O5    O     O_R   0.714650 0.363150 0.500000 -0.597707
O6    O     O_R   0.714650 0.636850 0.500000 -0.625631
O7    O     O_R   0.285350 0.363150 0.500000 -0.625630
O8    O     O_R   0.499970 0.636850 0.313950 -0.630310
O9    O     O_R   0.500030 0.363150 0.686050 -0.630309
O10   O     O_R   0.500030 0.636850 0.686050 -0.608941
O11   O     O_R   0.499970 0.363150 0.313950 -0.608925
O12   O     O_2   0.130412 0.671795 0.999877 -0.611965
Zn1   Zn    Zn3+2 0.500000 0.682780 0.500000 1.021224
Zn2   Zn    Zn3+2 0.500000 0.317220 0.500000 1.021235

loop_
_geom_bond_atom_site_label_1
_geom_bond_atom_site_label_2
_ccdc_geom_bond_type
O5    Zn2   S    
C12   H1    S    
C2    C4    S    
H5    O2    S    
C10   O11   A    
C4    C12   S    
O10   Zn1   S    
C7    O12   D    
O9    Zn2   S    
C3    C13   S    
O7    Zn2   S    
C9    O5    A    
N1    N2    T    
C6    C9    S    
N2    Zn1   S    
H6    O4    S    
O8    Zn1   S    
C1    O1    A    
C7    O2    S    
C5    C6    T    
C3    C14   S    
C13   H2    S    
C4    C15   S    
C2    C14   S    
C9    O6    A    
C7    C16   S    
C12   C14   S    
C13   C15   S    
C1    O7    A    
C15   H4    S    
C8    O4    S    
C1    C5    S    
C3    C11   S    
C4    C10   S    
C15   C16   S    
N1    Zn2   S    
C10   O8    A    
C11   O9    A    
O11   Zn2   S    
C8    O3    D    
C2    C13   S    
O1    Zn1   S    
C14   H3    S    
C11   O10   A    
C2    C8    S    
C3    C16   S    
C12   C16   S    
O6    Zn1   S    
