data_mof_unit_22624.cif
_audit_creation_date              2012-12-10T17:21:09-0500
_audit_creation_method            fapswitch 2.2
_symmetry_space_group_name_H-M    P1
_symmetry_Int_Tables_number       1
_space_group_crystal_system       triclinic
_cell_length_a                    10.21524
_cell_length_b                    10.998461
_cell_length_c                    10.990548
_cell_angle_alpha                 92.228787
_cell_angle_beta                  94.502606
_cell_angle_gamma                 81.539264
_cell_volume                      1217.13310905

loop_
_atom_site_label
_atom_site_type_symbol
_atom_type_description
_atom_site_fract_x
_atom_site_fract_y
_atom_site_fract_z
_atom_type_partial_charge
C1    C     C_R   0.446469 0.504917 0.268449 0.986410
C2    C     C_2   0.927945 0.509868 0.511948 0.302912
C3    C     C_R   0.498077 0.257801 0.497178 0.983465
C4    C     C_R   0.553204 0.490608 0.731343 0.861688
C5    C     C_R   0.497878 0.741741 0.495622 0.969658
C6    C     C_3   0.572419 0.057438 0.376597 -0.013985
C7    C     C_3   0.592522 0.908772 0.391468 -0.024460
C8    C     C_3   0.569033 0.067498 0.626816 -0.034986
C9    C     C_3   0.335897 0.093292 0.481063 0.008005
C10   C     C_3   0.494460 0.121004 0.495387 -0.197478
C11   C     C_3   0.709637 0.099303 0.356692 -0.740757
C12   C     C_3   0.492096 0.878463 0.494687 -0.197278
C13   C     C_3   0.213490 0.901733 0.509498 -0.659053
C14   C     C_3   0.522196 0.151845 0.738684 -0.749441
C15   C     C_2   0.442013 0.901763 0.731271 1.030276
C16   C     C_2   0.364614 0.402225 0.893320 0.956800
C17   C     C_2   0.651371 0.384324 0.105079 1.014899
C18   C     C_2   0.683778 0.562095 0.911961 0.896323
C19   C     C_3   0.889863 0.583478 0.624211 -0.811431
C20   C     C_3   0.078027 0.531083 0.336973 -0.779818
C21   C     C_3   0.896566 0.330791 0.395383 -0.574257
C22   C     C_2   0.500350 0.109452 0.254868 0.986576
C23   C     C_3   0.540039 0.924343 0.634653 -0.020944
C24   C     C_3   0.572027 0.838473 0.263824 -0.724077
C25   C     C_2   0.741925 0.852779 0.424185 0.955959
C26   C     C_2   0.719664 0.086428 0.649440 1.017845
C27   C     C_3   0.659589 0.834997 0.695149 -0.763406
C28   C     C_2   0.257852 0.142403 0.596329 0.920974
C29   C     C_3   0.239376 0.168412 0.381417 -0.750070
C30   C     C_2   0.300301 0.902777 0.319574 0.904343
C31   C     C_3   0.337992 0.945504 0.453427 0.004489
C32   C     C_2   0.422756 0.501797 0.137641 -0.344778
C33   C     C_2   0.518750 0.452499 0.064432 -0.102834
C34   C     C_2   0.576063 0.493765 0.862069 -0.243185
C35   C     C_2   0.488119 0.454923 0.934316 -0.116377
C36   C     C_2   0.063363 0.523676 0.471867 0.146807
H1    H     H_    0.325413 0.541891 0.099088 0.168164
H2    H     H_    0.419289 0.161177 0.758015 0.292735
H3    H     H_    0.579616 0.120769 0.825163 0.285234
H4    H     H_    0.374960 0.937947 0.899598 0.382756
H5    H     H_    0.257012 0.264802 0.910880 0.360415
H6    H     H_    0.728580 0.538263 0.161670 0.341810
H7    H     H_    0.733353 0.712417 0.004905 0.351229
H8    H     H_    0.936610 0.668706 0.632937 0.218215
H9    H     H_    0.784773 0.613114 0.621442 0.286448
H10   H     H_    0.922007 0.526802 0.705230 0.271793
H11   H     H_    0.980901 0.533746 0.283530 0.253160
H12   H     H_    0.140560 0.548265 0.641792 0.228880
H13   H     H_    0.115662 0.617580 0.318212 0.260362
H14   H     H_    0.143444 0.449775 0.303053 0.252313
H15   H     H_    0.835811 0.311714 0.312526 0.256362
H16   H     H_    0.997384 0.327387 0.366420 0.188338
H17   H     H_    0.899775 0.258210 0.462711 0.206832
H18   H     H_    0.474443 0.098135 0.070439 0.411101
H19   H     H_    0.653199 0.849290 0.204864 0.268070
H20   H     H_    0.574485 0.738293 0.273273 0.254444
H21   H     H_    0.483861 0.864611 0.203348 0.278772
H22   H     H_    0.897384 0.726646 0.385150 0.339239
H23   H     H_    0.774312 0.108936 0.439081 0.263240
H24   H     H_    0.853655 0.206388 0.671892 0.353249
H25   H     H_    0.747266 0.815908 0.644628 0.280818
H26   H     H_    0.690162 0.869141 0.788307 0.279919
H27   H     H_    0.633727 0.742387 0.710248 0.202365
H28   H     H_    0.149692 0.284420 0.684465 0.348939
H29   H     H_    0.140256 0.137730 0.378053 0.214241
H30   H     H_    0.220595 0.268142 0.399104 0.264434
H31   H     H_    0.263091 0.165738 0.286925 0.290373
H32   H     H_    0.273088 0.758611 0.204375 0.342363
H33   H     H_    0.765255 0.036360 0.290742 0.241522
H34   H     H_    0.699143 0.189419 0.313734 0.253329
H35   H     H_    0.123415 0.970280 0.491259 0.213516
H36   H     H_    0.181239 0.815608 0.469296 0.245236
H37   H     H_    0.220178 0.884035 0.606551 0.295188
H38   H     H_    0.538679 0.248102 0.729487 0.200610
N1    N     N_2   0.157300 0.551950 0.551120 -0.180240
N2    N     N_2   0.842730 0.448000 0.448950 -0.033783
O1    O     O_R   0.568940 0.489540 0.307530 -0.624426
O2    O     O_R   0.433853 0.969474 0.841476 -0.766850
O3    O     O_2   0.271310 0.464835 0.838724 -0.604934
O4    O     O_R   0.347517 0.288395 0.937052 -0.792621
O5    O     O_2   0.672627 0.273047 0.088583 -0.567645
O6    O     O_R   0.755773 0.446480 0.150383 -0.776378
O7    O     O_2   0.799161 0.522567 0.894731 -0.590062
O8    O     O_R   0.652049 0.673020 0.976876 -0.801481
O9    O     O_2   0.457385 0.219343 0.251404 -0.662909
O10   O     O_R   0.517585 0.048079 0.142207 -0.764619
O11   O     O_2   0.818162 0.907941 0.487031 -0.657156
O12   O     O_R   0.348880 0.522880 0.340350 -0.596519
O13   O     O_R   0.797452 0.741096 0.370705 -0.789306
O14   O     O_2   0.804620 0.008174 0.694489 -0.578541
O15   O     O_R   0.756563 0.203736 0.645860 -0.785812
O16   O     O_2   0.237862 0.075469 0.676322 -0.652327
O17   O     O_R   0.200539 0.265958 0.608665 -0.779624
O18   O     O_2   0.263361 0.972336 0.236272 -0.633569
O19   O     O_R   0.302710 0.776892 0.292593 -0.824932
O20   O     O_R   0.610030 0.298130 0.483570 -0.575719
O21   O     O_R   0.389960 0.331470 0.516390 -0.586092
O22   O     O_R   0.651120 0.477120 0.659650 -0.595638
O23   O     O_R   0.431060 0.510460 0.692470 -0.557250
O24   O     O_R   0.610040 0.668530 0.483610 -0.632479
O25   O     O_R   0.389970 0.701870 0.516430 -0.552508
O26   O     O_2   0.395471 0.805305 0.727178 -0.620455
Zn1   Zn    Zn3+2 0.646940 0.477740 0.478080 1.004529
Zn2   Zn    Zn3+2 0.353060 0.522260 0.521920 1.034520

loop_
_geom_bond_atom_site_label_1
_geom_bond_atom_site_label_2
_ccdc_geom_bond_type
C22   O10   S    
C4    O22   A    
C8    C26   S    
H6    O6    S    
H5    O4    S    
C4    O23   A    
C19   H10   S    
C24   H19   S    
C21   N2    S    
C20   H13   S    
C14   H38   S    
C27   H26   S    
H28   O17   S    
C34   C35   D    
C16   C35   S    
C30   C31   S    
C15   O2    S    
C7    C24   S    
C6    C22   S    
C25   O11   D    
C8    C23   S    
C1    O1    A    
C17   O6    S    
C22   O9    D    
C20   H14   S    
C27   H25   S    
C14   H3    S    
C29   H31   S    
C24   H21   S    
C18   O8    S    
C3    O20   A    
C23   C27   S    
C9    C10   S    
C9    C29   S    
N2    Zn1   S    
C15   C23   S    
O23   Zn2   S    
H7    O8    S    
H12   N1    S    
C17   C33   S    
C11   H23   S    
O12   Zn2   S    
C4    C34   S    
C7    C12   S    
C5    O25   A    
C11   H34   S    
H32   O19   S    
O21   Zn2   S    
C5    C12   S    
C6    C11   S    
H18   O10   S    
C13   H35   S    
C26   O15   S    
O24   Zn1   S    
C28   O17   S    
C16   O4    S    
C30   O19   S    
C36   N1    D    
C14   H2    S    
C3    O21   A    
C12   C23   S    
C5    O24   A    
C19   H9    S    
C18   O7    D    
C28   O16   D    
C32   H1    S    
C18   C34   S    
C27   H27   S    
C29   H29   S    
C13   H37   S    
O25   Zn2   S    
C12   C31   S    
N1    Zn2   S    
H4    O2    S    
O1    Zn1   S    
C26   O14   D    
C21   H15   S    
C2    N2    D    
C19   H8    S    
H24   O15   S    
C2    C36   S    
C8    C14   S    
C2    C19   S    
C13   C31   S    
C6    C10   S    
C11   H33   S    
C6    C7    S    
C13   H36   S    
C24   H20   S    
C25   O13   S    
C7    C25   S    
C16   O3    D    
C32   C33   D    
C30   O18   D    
C3    C10   S    
C21   H17   S    
C1    O12   A    
C33   C35   S    
C17   O5    D    
C1    C32   S    
C15   O26   D    
H22   O13   S    
C20   H11   S    
C9    C31   S    
C29   H30   S    
C20   C36   S    
C8    C10   S    
O20   Zn1   S    
C21   H16   S    
O22   Zn1   S    
C9    C28   S    
