data_mof_unit_6717.cif
_audit_creation_date              2012-12-10T19:09:34-0500
_audit_creation_method            fapswitch 2.2
_symmetry_space_group_name_H-M    P1
_symmetry_Int_Tables_number       1
_space_group_crystal_system       triclinic
_cell_length_a                    9.538286
_cell_length_b                    10.868313
_cell_length_c                    17.10271
_cell_angle_alpha                 89.231153
_cell_angle_beta                  93.76202
_cell_angle_gamma                 89.847506
_cell_volume                      1768.96294089

loop_
_atom_site_label
_atom_site_type_symbol
_atom_type_description
_atom_site_fract_x
_atom_site_fract_y
_atom_site_fract_z
_atom_type_partial_charge
C1    C     C_R   0.499920 0.262785 0.499359 0.914624
C2    C     C_R   0.594310 0.393642 0.777805 -0.024584
C3    C     C_R   0.582222 0.472187 0.141385 0.534674
C4    C     C_R   0.584606 0.459410 0.222289 0.490976
C5    C     C_R   0.467367 0.530920 0.099198 0.167948
C6    C     C_R   0.474960 0.507190 0.263381 -0.231479
C7    C     C_R   0.361539 0.566317 0.222392 -0.399483
C8    C     C_R   0.356367 0.579221 0.140671 -0.094374
C9    C     C_R   0.620884 0.061502 0.503981 0.145593
C10   C     C_R   0.498114 0.130392 0.497917 -0.161180
C11   C     C_R   0.369814 0.066028 0.490415 -0.280786
C12   C     C_R   0.517271 0.497201 0.650532 0.842633
C13   C     C_R   0.368553 0.937048 0.490337 0.600724
C14   C     C_R   0.496708 0.870206 0.497858 -0.218533
C15   C     C_R   0.620213 0.937618 0.503874 0.023311
C16   C     C_3   0.776051 0.927697 0.515729 -0.391811
C17   C     C_3   0.776653 0.069397 0.515915 -0.404270
C18   C     C_R   0.069061 0.592763 0.463402 0.349687
C19   C     C_R   0.079693 0.415355 0.542442 -0.073321
C20   C     C_R   0.930742 0.415338 0.542442 -0.055456
C21   C     C_R   0.921628 0.592913 0.463532 0.239695
C22   C     C_3   0.905467 0.627401 0.378758 -0.484976
C23   C     C_R   0.499414 0.737400 0.499471 0.811468
C24   C     C_3   0.064395 0.626422 0.378500 -0.495146
C25   C     C_R   0.482907 0.501710 0.349175 0.884279
C26   C     C_R   0.526259 0.493452 0.736214 -0.125130
C27   C     C_R   0.463295 0.588948 0.777585 -0.110117
C28   C     C_R   0.465242 0.581205 0.859417 -0.106620
C29   C     C_R   0.531012 0.481541 0.900478 0.335029
C30   C     C_R   0.597294 0.390880 0.859504 -0.240603
Cu1   Cu    Cu3+1 0.640670 0.499980 0.500000 0.994702
Cu2   Cu    Cu3+1 0.359330 0.500020 0.500000 0.984933
H1    H     H_    0.810163 0.885327 0.573398 0.211317
H2    H     H_    0.824302 0.887916 0.464328 0.205654
H3    H     H_    0.810936 0.108465 0.573757 0.212428
H4    H     H_    0.825114 0.111471 0.464633 0.208505
H5    H     H_    0.139664 0.345421 0.575588 0.153959
H6    H     H_    0.878975 0.345498 0.575636 0.158489
H7    H     H_    0.855644 0.554060 0.342036 0.275451
H8    H     H_    0.858726 0.720497 0.368870 0.195164
H9    H     H_    0.104118 0.551559 0.342210 0.219548
H10   H     H_    0.109709 0.718844 0.368071 0.234182
H11   H     H_    0.648006 0.314856 0.892048 0.167744
H12   H     H_    0.278373 0.605475 0.254407 0.186111
H13   H     H_    0.416580 0.653690 0.891114 0.221107
H14   H     H_    0.270355 0.114747 0.484896 0.192083
N1    N     N_2   0.533684 0.468035 0.983094 -0.137430
N2    N     N_2   0.462642 0.545482 0.016376 -0.164672
N3    N     N_R   0.147870 0.500930 0.499500 -0.200896
N4    N     N_R   0.851960 0.500890 0.499500 -0.189428
O1    O     O_R   0.618810 0.319640 0.500000 -0.559311
O2    O     O_R   0.381230 0.319680 0.499990 -0.600999
O3    O     O_R   0.631790 0.498830 0.613930 -0.558273
O4    O     O_R   0.394210 0.498870 0.613920 -0.591391
O5    O     O_R   0.618770 0.680320 0.500010 -0.597928
O6    O     O_R   0.381190 0.680360 0.500000 -0.531207
O7    O     O_R   0.605790 0.501130 0.386080 -0.545303
O8    O     O_R   0.368210 0.501170 0.386070 -0.596977
F1    F     F_    0.694518 0.399298 0.260344 -0.627704
F2    F     F_    0.242320 0.879440 0.483148 -0.669795
F3    F     F_    0.694585 0.429447 0.104949 -0.597487
C31   C     C_2   0.659512 0.287352 0.739850 0.362320
H15   H     H_    0.733712 0.228824 0.773945 0.084574
O9    O     O_2   0.628012 0.260247 0.672029 -0.569188
C32   C     C_2   0.232658 0.643710 0.101537 0.489252
H16   H     H_    0.151065 0.679031 0.136630 0.068544
O10   O     O_2   0.219229 0.658380 0.030556 -0.503072
C33   C     C_2   0.398467 0.698935 0.736517 0.413889
H17   H     H_    0.409093 0.714665 0.674471 0.069083
O11   O     O_2   0.332889 0.774569 0.771828 -0.510746

loop_
_geom_bond_atom_site_label_1
_geom_bond_atom_site_label_2
_ccdc_geom_bond_type
C14   C23   S    
C16   C17   S    
C5    C8    A    
C31   O9    D    
C23   O5    A    
C29   C30   A    
C19   H5    S    
C17   H4    S    
C13   C14   A    
C16   H1    S    
C18   C21   A    
C20   H6    S    
C9    C10   A    
C19   N3    A    
Cu1   Cu2   S    
C32   O10   D    
Cu2   O8    S    
C2    C30   A    
C22   H8    S    
Cu1   O7    S    
C19   C20   A    
C9    C15   A    
C8    C32   S    
C2    C26   A    
C13   F2    S    
C21   C22   S    
Cu1   O3    S    
C24   H9    S    
C1    O1    A    
C28   C29   A    
C26   C27   A    
C31   H15   S    
C25   O7    A    
C29   N1    S    
C18   C24   S    
C22   H7    S    
C4    F1    S    
Cu2   O4    S    
C21   N4    A    
C1    O2    A    
C32   H16   S    
C6    C7    A    
C3    F3    S    
Cu1   O5    S    
C28   H13   S    
C5    N2    S    
C22   C24   S    
C30   H11   S    
C11   C13   A    
Cu2   N3    S    
C10   C11   A    
Cu1   N4    S    
C15   C16   S    
C6    C25   S    
N1    N2    D    
C2    C31   S    
C23   O6    A    
C24   H10   S    
C3    C4    A    
C4    C6    A    
C7    C8    A    
C25   O8    A    
C9    C17   S    
C27   C28   A    
Cu1   O1    S    
C33   O11   D    
C14   C15   A    
Cu2   O2    S    
C11   H14   S    
C20   N4    A    
C27   C33   S    
C17   H3    S    
C16   H2    S    
C7    H12   S    
Cu2   O6    S    
C12   O4    A    
C1    C10   S    
C12   O3    A    
C18   N3    A    
C12   C26   S    
C33   H17   S    
C3    C5    A    
