data_mof_unit_6196.cif
_audit_creation_date              2012-10-26T18:28:57-0400
_audit_creation_method            fapswitch 2.2
_symmetry_space_group_name_H-M    P1
_symmetry_Int_Tables_number       1
_space_group_crystal_system       triclinic
_cell_length_a                    11.682867
_cell_length_b                    12.996317
_cell_length_c                    15.7589
_cell_angle_alpha                 92.362363
_cell_angle_beta                  74.277415
_cell_angle_gamma                 99.805532
_cell_volume                      2269.53899323

loop_
_atom_site_label
_atom_site_type_symbol
_atom_type_description
_atom_site_fract_x
_atom_site_fract_y
_atom_site_fract_z
_atom_type_partial_charge
C1    C     C_R   0.520711 0.700822 0.501445 0.550743
C2    C     C_R   0.359712 0.016273 0.471642 -0.142749
C3    C     C_R   0.632204 0.875864 0.523556 -0.138538
C4    C     C_R   0.368472 0.124240 0.475449 -0.138290
C5    C     C_R   0.441679 0.861223 0.485844 -0.132685
C6    C     C_R   0.558870 0.138860 0.513336 -0.132108
C7    C     C_R   0.450161 0.969165 0.488974 0.048227
C8    C     C_R   0.550604 0.030946 0.509917 0.048293
C9    C     C_R   0.950659 0.618270 0.561558 -0.030891
C10   C     C_R   0.050080 0.383272 0.436705 -0.030636
C11   C     C_R   0.829378 0.601921 0.558950 0.048206
C12   C     C_R   0.479372 0.299191 0.498411 0.550035
C13   C     C_R   0.170965 0.398788 0.440163 0.048965
C14   C     C_R   0.853131 0.447435 0.476105 0.027417
C15   C     C_R   0.147037 0.552923 0.523617 0.026436
C16   C     C_R   0.426941 0.491787 0.668280 0.554496
C17   C     C_R   0.572781 0.504277 0.331574 0.554514
C18   C     C_R   0.975388 0.456929 0.477883 0.003124
C19   C     C_R   0.024984 0.543861 0.521425 0.002054
C20   C     C_R   0.383294 0.471138 0.763761 -0.044947
C21   C     C_R   0.615851 0.502625 0.234778 -0.050404
C22   C     C_R   0.223654 0.402881 0.893302 0.269127
C23   C     C_R   0.361017 0.405301 0.082485 -0.138305
C24   C     C_R   0.778805 0.522967 0.100037 0.262148
C25   C     C_R   0.262753 0.431192 0.803334 -0.166778
C26   C     C_R   0.738562 0.523175 0.192033 -0.151994
C27   C     C_R   0.466322 0.483202 0.813759 -0.151906
C28   C     C_R   0.532461 0.479727 0.185066 -0.155076
C29   C     C_R   0.433169 0.450989 0.902254 -0.050324
C30   C     C_R   0.569175 0.472263 0.092629 -0.049166
C31   C     C_R   0.309274 0.414367 0.943800 0.073648
C32   C     C_R   0.694680 0.495298 0.048938 0.064029
C33   C     C_R   0.520909 0.458156 0.950635 -0.016539
C34   C     C_R   0.645491 0.471186 0.908491 -0.145351
C35   C     C_R   0.483046 0.446483 0.042985 -0.018844
C36   C     C_3   0.099417 0.400551 0.141361 0.023599
C37   C     C_3   0.966301 0.353974 0.170292 -0.336004
C38   C     C_3   0.893131 0.537396 0.828801 -0.011012
C39   C     C_3   0.026430 0.583970 0.807519 -0.367970
C40   C     C_3   0.997306 0.718256 0.603123 -0.302231
C41   C     C_3   0.066169 0.799987 0.532794 -0.442898
C42   C     C_3   0.004660 0.286426 0.390881 -0.301556
C43   C     C_3   0.934540 0.200936 0.457512 -0.445001
C44   C     C_3   0.046553 0.293819 0.887788 0.027221
C45   C     C_R   0.274603 0.388944 0.034474 0.273192
C46   C     C_3   0.931289 0.237424 0.949649 -0.344365
C47   C     C_3   0.935470 0.655965 0.054253 0.014160
C48   C     C_3   0.072328 0.683531 0.029422 -0.364818
C49   C     C_R   0.733139 0.490500 0.956016 0.263838
C50   C     C_R   0.468214 0.185857 0.496062 0.001262
C51   C     C_R   0.532175 0.814203 0.503341 0.000598
C52   C     C_R   0.641201 0.983867 0.527051 -0.142947
Cu1   Cu    Cu3+1 0.386820 0.492450 0.493500 0.918264
Cu2   Cu    Cu3+1 0.613180 0.507550 0.506500 0.919281
H1    H     H_    0.228542 0.343187 0.409308 0.122598
H2    H     H_    0.364672 0.814002 0.469647 0.115033
H3    H     H_    0.297855 0.159426 0.461477 0.121239
H4    H     H_    0.702857 0.840688 0.537483 0.120604
H5    H     H_    0.718449 0.030355 0.543438 0.099224
H6    H     H_    0.282759 0.969845 0.454858 0.099663
H7    H     H_    0.187459 0.616532 0.557704 0.128337
H8    H     H_    0.812530 0.383754 0.442195 0.129470
H9    H     H_    0.107507 0.481756 0.117734 0.160084
H10   H     H_    0.135771 0.402378 0.199813 0.099265
H11   H     H_    0.954993 0.271592 0.191528 0.136080
H12   H     H_    0.771988 0.657906 0.589145 0.122195
H13   H     H_    0.919274 0.399388 0.226171 0.086958
H14   H     H_    0.924956 0.356313 0.115011 0.210230
H15   H     H_    0.842860 0.600187 0.820285 0.108654
H16   H     H_    0.881151 0.472927 0.781728 0.129335
H17   H     H_    0.073229 0.540894 0.843097 0.207868
H18   H     H_    0.069178 0.578422 0.735896 0.089633
H19   H     H_    0.037872 0.667038 0.828034 0.117457
H20   H     H_    0.144009 0.770810 0.486972 0.145903
H21   H     H_    0.005658 0.819699 0.494530 0.150778
H22   H     H_    0.100131 0.871980 0.564926 0.136034
H23   H     H_    0.438241 0.470479 0.219971 0.133182
H24   H     H_    0.921229 0.751370 0.647788 0.126259
H25   H     H_    0.055303 0.704077 0.644936 0.132026
H26   H     H_    0.994481 0.176924 0.494343 0.148232
H27   H     H_    0.857116 0.228598 0.505102 0.143833
H28   H     H_    0.899793 0.131935 0.422355 0.140035
H29   H     H_    0.947940 0.304924 0.349472 0.132164
H30   H     H_    0.081313 0.255244 0.345035 0.135211
H31   H     H_    0.106176 0.234985 0.860775 0.115026
H32   H     H_    0.021367 0.328221 0.833370 0.131712
H33   H     H_    0.886913 0.175041 0.913334 0.079713
H34   H     H_    0.557131 0.520620 0.782611 0.129734
H35   H     H_    0.952433 0.201454 0.005110 0.164554
H36   H     H_    0.868230 0.293212 0.976261 0.189676
H37   H     H_    0.899975 0.696190 0.117458 0.103778
H38   H     H_    0.901995 0.685896 0.001862 0.147558
H39   H     H_    0.112594 0.640151 0.969736 0.176043
H40   H     H_    0.100065 0.768616 0.015955 0.089660
H41   H     H_    0.106942 0.663228 0.084501 0.131801
H42   H     H_    0.804130 0.542299 0.229821 0.134581
H43   H     H_    0.199118 0.423039 0.763902 0.114579
H44   H     H_    0.331718 0.378282 0.149891 0.104574
H45   H     H_    0.675353 0.459919 0.838365 0.095493
H46   H     H_    0.635746 0.186067 0.529717 0.114740
N1    N     N_R   0.216750 0.481110 0.483710 -0.244953
N2    N     N_R   0.783250 0.518890 0.516290 -0.245254
O1    O     O_R   0.419950 0.645670 0.495380 -0.511441
O2    O     O_3   0.856147 0.496535 0.915529 -0.513084
O3    O     O_3   0.101552 0.373526 0.934723 -0.493681
O4    O     O_3   0.901610 0.546351 0.061595 -0.508313
O5    O     O_R   0.580050 0.354330 0.504620 -0.512410
O6    O     O_R   0.611110 0.658410 0.506370 -0.511445
O7    O     O_R   0.388890 0.341590 0.493630 -0.512707
O8    O     O_R   0.350820 0.490050 0.621260 -0.500334
O9    O     O_R   0.649180 0.509950 0.378740 -0.499653
O10   O     O_R   0.541970 0.502800 0.632250 -0.502482
O11   O     O_R   0.458030 0.497200 0.367750 -0.501838
O12   O     O_3   0.159120 0.337855 0.074068 -0.521756

loop_
_geom_bond_atom_site_label_1
_geom_bond_atom_site_label_2
_ccdc_geom_bond_type
Cu1   O8    S    
C21   C26   A    
C38   H16   S    
C23   C45   A    
C48   H41   S    
C27   C29   A    
C47   H38   S    
C14   C18   A    
C5    H2    S    
C2    C7    A    
C36   O12   S    
C49   O2    S    
C17   O11   A    
C7    C8    A    
C46   H35   S    
Cu1   Cu2   S    
C15   C19   A    
C48   H40   S    
Cu2   O5    S    
C36   C37   S    
C24   C26   A    
C38   C39   S    
C2    H6    S    
C14   N2    A    
C10   C42   S    
C20   C25   A    
C14   H8    S    
C37   H14   S    
C29   C33   A    
C18   C19   A    
C38   O2    S    
Cu1   O11   S    
C41   H20   S    
C45   O12   S    
C9    C19   A    
Cu1   N1    S    
C22   C25   A    
C37   H11   S    
C4    H3    S    
C39   H18   S    
C36   H9    S    
C1    O1    A    
C11   H12   S    
C38   H15   S    
Cu1   O1    S    
C44   H32   S    
C17   O9    A    
C12   O7    A    
C44   C46   S    
C34   H45   S    
C26   H42   S    
C48   H39   S    
C16   O8    A    
C42   H30   S    
C22   C31   A    
C5    C7    A    
C3    C51   A    
C6    C8    A    
C43   H26   S    
C44   O3    S    
C9    C40   S    
C6    C50   A    
C4    C50   A    
C6    H46   S    
C2    C4    A    
C24   C32   A    
C52   H5    S    
C41   H21   S    
C9    C11   A    
C47   C48   S    
C16   C20   S    
C47   O4    S    
C33   C34   A    
C15   H7    S    
C40   H25   S    
Cu2   O10   S    
C15   N1    A    
C28   H23   S    
C1    C51   S    
C30   C35   A    
C25   H43   S    
C40   C41   S    
C21   C28   A    
C23   C35   A    
C43   H27   S    
C40   H24   S    
C24   O4    S    
C42   C43   S    
C13   N1    A    
C44   H31   S    
C16   O10   A    
C46   H33   S    
Cu1   O7    S    
C8    C52   A    
C34   C49   A    
C47   H37   S    
Cu2   N2    S    
C42   H29   S    
C10   C13   A    
C12   O5    A    
C12   C50   S    
C3    C52   A    
C46   H36   S    
C20   C27   A    
C22   O3    S    
Cu2   O6    S    
C28   C30   A    
C29   C31   A    
C41   H22   S    
C30   C32   A    
C10   C18   A    
C37   H13   S    
C33   C35   A    
Cu2   O9    S    
C11   N2    A    
C39   H19   S    
C27   H34   S    
C17   C21   S    
C32   C49   A    
C1    O6    A    
C3    H4    S    
C23   H44   S    
C31   C45   A    
C43   H28   S    
C39   H17   S    
C5    C51   A    
C36   H10   S    
C13   H1    S    
