data_mof_unit_66092.cif
_audit_creation_date              2012-12-11T14:34:40-0500
_audit_creation_method            fapswitch 2.2
_symmetry_space_group_name_H-M    P1
_symmetry_Int_Tables_number       1
_space_group_crystal_system       triclinic
_cell_length_a                    33.618963
_cell_length_b                    7.233748
_cell_length_c                    27.887159
_cell_angle_alpha                 90.000129
_cell_angle_beta                  140.127751
_cell_angle_gamma                 89.999876
_cell_volume                      4347.73257314

loop_
_atom_site_label
_atom_site_type_symbol
_atom_type_description
_atom_site_fract_x
_atom_site_fract_y
_atom_site_fract_z
_atom_type_partial_charge
O1    O     O_R   0.335930 0.530330 0.836120 -0.504542
O2    O     O_R   0.664070 0.469670 0.163880 -0.504541
O3    O     O_R   0.664070 0.530330 0.663880 -0.504540
O4    O     O_R   0.335930 0.469670 0.336120 -0.504541
O5    O     O_R   0.835930 0.030330 0.836120 -0.504541
O6    O     O_R   0.164070 0.969670 0.163880 -0.504541
O7    O     O_R   0.164070 0.030330 0.663880 -0.504540
O8    O     O_R   0.835930 0.969670 0.336120 -0.504541
O9    O     O_R   0.254100 0.856860 0.685510 -0.535798
O10   O     O_R   0.745900 0.143140 0.314490 -0.535798
O11   O     O_R   0.745900 0.856860 0.814490 -0.535798
O12   O     O_R   0.254100 0.143140 0.185510 -0.535798
O13   O     O_R   0.754100 0.356860 0.685510 -0.535798
O14   O     O_R   0.245900 0.643140 0.314490 -0.535798
O15   O     O_R   0.245900 0.356860 0.814490 -0.535797
O16   O     O_R   0.754100 0.643140 0.185510 -0.535798
C1    C     C_R   0.251338 0.692180 0.663108 0.721871
C2    C     C_R   0.748662 0.307820 0.336892 0.721872
C3    C     C_R   0.748661 0.692181 0.836891 0.721873
C4    C     C_R   0.251339 0.307819 0.163109 0.721873
C5    C     C_R   0.751338 0.192180 0.663108 0.721872
C6    C     C_R   0.248662 0.807820 0.336892 0.721872
C7    C     C_R   0.248661 0.192181 0.836891 0.721874
C8    C     C_R   0.751339 0.807819 0.163108 0.721873
O17   O     O_R   0.341180 0.859830 0.836880 -0.551513
O18   O     O_R   0.658820 0.140170 0.163120 -0.551512
O19   O     O_R   0.658820 0.859830 0.663120 -0.551512
O20   O     O_R   0.341180 0.140170 0.336880 -0.551512
O21   O     O_R   0.841180 0.359830 0.836880 -0.551513
O22   O     O_R   0.158820 0.640170 0.163120 -0.551513
O23   O     O_R   0.158820 0.359830 0.663120 -0.551512
O24   O     O_R   0.841180 0.640170 0.336880 -0.551512
O25   O     O_R   0.251370 0.033430 0.816330 -0.536614
O26   O     O_R   0.748630 0.966570 0.183670 -0.536614
O27   O     O_R   0.748630 0.033430 0.683670 -0.536614
O28   O     O_R   0.251370 0.966570 0.316330 -0.536614
O29   O     O_R   0.751370 0.533430 0.816330 -0.536614
O30   O     O_R   0.248630 0.466570 0.183670 -0.536614
O31   O     O_R   0.248630 0.533430 0.683670 -0.536614
O32   O     O_R   0.751370 0.466570 0.316330 -0.536614
C9    C     C_R   0.365920 0.689354 0.864094 0.762405
C10   C     C_R   0.634080 0.310646 0.135906 0.762402
C11   C     C_R   0.634080 0.689354 0.635906 0.762403
C12   C     C_R   0.365920 0.310646 0.364094 0.762404
C13   C     C_R   0.865920 0.189354 0.864094 0.762404
C14   C     C_R   0.134080 0.810646 0.135906 0.762404
C15   C     C_R   0.134080 0.189354 0.635906 0.762403
C16   C     C_R   0.865920 0.810646 0.364094 0.762404
O33   O     O_3   0.220230 0.697940 0.743080 -0.376179
O34   O     O_3   0.779770 0.302060 0.256920 -0.376180
O35   O     O_3   0.779770 0.697940 0.756920 -0.376181
O36   O     O_3   0.220230 0.302060 0.243080 -0.376181
O37   O     O_3   0.720230 0.197940 0.743080 -0.376180
O38   O     O_3   0.279770 0.802060 0.256920 -0.376180
O39   O     O_3   0.279770 0.197940 0.756920 -0.376182
O40   O     O_3   0.720230 0.802060 0.243080 -0.376180
V1    V     V_3+5 0.255280 0.971510 0.751280 1.447949
V2    V     V_3+5 0.744720 0.028490 0.248720 1.447950
V3    V     V_3+5 0.744720 0.971510 0.748720 1.447950
V4    V     V_3+5 0.255280 0.028490 0.251280 1.447950
V5    V     V_3+5 0.755280 0.471510 0.751280 1.447950
V6    V     V_3+5 0.244720 0.528490 0.248720 1.447949
V7    V     V_3+5 0.244720 0.471510 0.748720 1.447951
V8    V     V_3+5 0.755280 0.528490 0.251280 1.447950
C17   C     C_2   0.065170 0.170609 0.569101 -0.321276
C18   C     C_2   0.934830 0.829390 0.430899 -0.321277
C19   C     C_2   0.934830 0.170609 0.930899 -0.321278
C20   C     C_2   0.065170 0.829391 0.069101 -0.321277
C21   C     C_2   0.565170 0.670609 0.569101 -0.321276
C22   C     C_2   0.434830 0.329390 0.430899 -0.321276
C23   C     C_2   0.434830 0.670610 0.930899 -0.321277
C24   C     C_2   0.565169 0.329391 0.069101 -0.321277
C25   C     C_2   0.034968 0.007249 0.531478 0.178861
C26   C     C_2   0.965031 0.992750 0.468523 0.178863
C27   C     C_2   0.965031 0.007250 0.968523 0.178863
C28   C     C_2   0.034969 0.992750 0.031477 0.178862
C29   C     C_2   0.534968 0.507249 0.531478 0.178861
C30   C     C_2   0.465031 0.492750 0.468523 0.178863
C31   C     C_2   0.465031 0.507252 0.968525 0.178864
C32   C     C_2   0.534968 0.492752 0.031478 0.178861
H1    H     H_    0.961066 0.704725 0.447845 0.086743
H2    H     H_    0.038933 0.295275 0.552155 0.086743
H3    H     H_    0.038934 0.704726 0.052156 0.086743
H4    H     H_    0.961067 0.295274 0.947845 0.086743
H5    H     H_    0.461066 0.204725 0.447845 0.086743
H6    H     H_    0.538933 0.795275 0.552155 0.086743
H7    H     H_    0.538933 0.204726 0.052155 0.086744
H8    H     H_    0.461066 0.795273 0.947842 0.086742
C33   C     C_1   0.248243 0.186558 0.888648 -0.180408
C34   C     C_1   0.751754 0.813442 0.111349 -0.180409
C35   C     C_1   0.751749 0.186557 0.611344 -0.180410
C36   C     C_1   0.248253 0.813443 0.388658 -0.180409
C37   C     C_1   0.748246 0.686558 0.888651 -0.180409
C38   C     C_1   0.251757 0.313442 0.111352 -0.180409
C39   C     C_1   0.251747 0.686557 0.611342 -0.180410
C40   C     C_1   0.748251 0.313443 0.388656 -0.180410
C41   C     C_2   0.247492 0.173890 0.983924 -0.143922
C42   C     C_2   0.752496 0.826115 0.016064 -0.143916
C43   C     C_2   0.752473 0.173878 0.516043 -0.143912
C44   C     C_2   0.247537 0.826125 0.483966 -0.143912
C45   C     C_2   0.747504 0.673885 0.983935 -0.143916
C46   C     C_2   0.252508 0.326110 0.016076 -0.143922
C47   C     C_2   0.252463 0.673875 0.516034 -0.143912
C48   C     C_2   0.747527 0.326122 0.483957 -0.143912
C49   C     C_1   0.252036 0.317097 0.067962 0.008766
C50   C     C_1   0.747970 0.682901 0.932044 0.008765
C51   C     C_1   0.747982 0.317102 0.432055 0.008764
C52   C     C_1   0.252013 0.682897 0.567941 0.008763
C53   C     C_1   0.752030 0.817099 0.067956 0.008765
C54   C     C_1   0.247964 0.182902 0.932038 0.008767
C55   C     C_1   0.247987 0.817103 0.432059 0.008763
C56   C     C_1   0.752018 0.182897 0.567945 0.008764
H9    H     H_    0.257077 0.460934 0.003531 0.135019
H10   H     H_    0.742960 0.539051 0.996503 0.135014
H11   H     H_    0.743033 0.460972 0.496571 0.135011
H12   H     H_    0.256937 0.539020 0.503401 0.135010
H13   H     H_    0.757040 0.960949 0.003497 0.135015
H14   H     H_    0.242923 0.039066 0.996469 0.135019
H15   H     H_    0.243063 0.960980 0.496598 0.135010
H16   H     H_    0.756967 0.039028 0.503429 0.135011
N1    N     N_3   0.929746 0.153920 0.448933 -0.625745
H17   H     H_    0.943847 0.197972 0.495974 0.211861
H18   H     H_    0.938447 0.258475 0.431994 0.222522
N2    N     N_3   0.070254 0.846078 0.551069 -0.625743
H19   H     H_    0.056154 0.802024 0.504030 0.211862
H20   H     H_    0.061552 0.741525 0.568007 0.222522
N3    N     N_3   0.070254 0.153919 0.051067 -0.625745
H21   H     H_    0.061553 0.258475 0.068005 0.222522
H22   H     H_    0.056153 0.197970 0.004026 0.211860
N4    N     N_3   0.929746 0.846079 0.948933 -0.625745
H23   H     H_    0.938447 0.741524 0.931994 0.222522
H24   H     H_    0.943846 0.802028 0.995972 0.211861
N5    N     N_3   0.429746 0.653920 0.448933 -0.625744
H25   H     H_    0.443847 0.697971 0.495974 0.211861
H26   H     H_    0.438447 0.758475 0.431995 0.222522
N6    N     N_3   0.570254 0.346079 0.551069 -0.625744
H27   H     H_    0.556154 0.302025 0.504029 0.211861
H28   H     H_    0.561552 0.241525 0.568007 0.222522
N7    N     N_3   0.570253 0.653922 0.051070 -0.625744
H29   H     H_    0.561551 0.758476 0.068007 0.222522
H30   H     H_    0.556154 0.697974 0.004031 0.211860
N8    N     N_3   0.429746 0.346087 0.948939 -0.625749
H31   H     H_    0.438444 0.241523 0.932000 0.222523
H32   H     H_    0.443848 0.302045 0.995982 0.211862

loop_
_geom_bond_atom_site_label_1
_geom_bond_atom_site_label_2
_ccdc_geom_bond_type
C38   C49   T    
O33   V7    S    
C22   C30   D    
C2    C40   S    
C25   C26   S    
C21   C29   D    
O35   V5    S    
C23   C31   D    
O37   V3    S    
O38   V4    S    
C29   C30   S    
O11   C3    A    
O34   V8    S    
C15   C17   S    
O10   V2    S    
O2    C10   A    
C31   N8    S    
O3    V5    S    
O14   V6    S    
O4    V6    S    
C17   C25   D    
C46   C49   S    
O27   V3    S    
C1    O31   A    
C41   H14   S    
C2    O32   A    
C3    O29   A    
O8    V2    S    
C43   H16   S    
C7    O25   A    
C13   C19   S    
C7    C33   S    
C12   C22   S    
C47   C52   S    
C1    C39   S    
C29   N6    S    
C41   C46   D    
C3    C37   S    
C27   N4    S    
C9    C23   S    
O15   C7    A    
C43   C48   D    
C19   H4    S    
C11   C21   S    
C42   C53   S    
O23   C15   A    
N5    H26   S    
C45   H10   S    
O24   C16   A    
O17   V1    S    
O11   V3    S    
O1    V7    S    
O2    V8    S    
O20   V4    S    
O21   V5    S    
O5    V3    S    
O6    V4    S    
O24   V8    S    
N6    H28   S    
O17   C9    A    
O4    C12   A    
O5    C13   A    
C33   C54   T    
O20   C12   A    
C44   C47   D    
C8    O26   A    
C31   C32   S    
O21   C13   A    
O7    C15   A    
C35   C56   T    
N4    H24   S    
C27   C28   S    
N3    H22   S    
C14   C20   S    
O23   V7    S    
C37   C50   T    
C48   H11   S    
C4    O30   A    
C25   N2    S    
O3    C11   A    
O12   C4    A    
C10   C24   S    
O13   C5    A    
C44   H15   S    
O18   V2    S    
N1    H17   S    
O1    C9    A    
C40   C51   T    
O39   V1    S    
N5    H25   S    
N8    H32   S    
C19   C27   D    
N3    H21   S    
C32   N7    S    
C24   H7    S    
O31   V7    S    
O18   C10   A    
C42   H13   S    
N2    H20   S    
C5    C35   S    
O9    C1    A    
C45   C50   S    
C4    C38   S    
O25   V1    S    
O6    C14   A    
C20   H3    S    
O22   C14   A    
C6    C36   S    
N6    H27   S    
O28   V4    S    
C8    C34   S    
O29   V5    S    
N7    H29   S    
C36   C55   T    
C5    O27   A    
C20   C28   D    
C42   C45   D    
C6    O28   A    
O32   V8    S    
O14   C6    A    
O22   V6    S    
C47   H12   S    
C24   C32   D    
C46   H9    S    
O19   V3    S    
O8    C16   A    
C18   H1    S    
C41   C54   S    
N7    H30   S    
C17   H2    S    
O10   C2    A    
C43   C56   S    
O40   V2    S    
N4    H23   S    
O9    V1    S    
C30   N5    S    
N1    H18   S    
C39   C52   T    
C23   H8    S    
O12   V4    S    
O19   C11   A    
C26   N1    S    
O13   V5    S    
C44   C55   S    
O16   C8    A    
O26   V2    S    
C28   N3    S    
O15   V7    S    
N8    H31   S    
O36   V6    S    
O16   V8    S    
C34   C53   T    
C16   C18   S    
C22   H5    S    
O7    V1    S    
C48   C51   S    
C21   H6    S    
N2    H19   S    
O30   V6    S    
C18   C26   D    
