data_mof_unit_6327.cif
_audit_creation_date              2013-03-05T16:07:48-0500
_audit_creation_method            fapswitch 2.2
_symmetry_space_group_name_H-M    P1
_symmetry_Int_Tables_number       1
_space_group_crystal_system       triclinic
_cell_length_a                    8.371318
_cell_length_b                    15.381455
_cell_length_c                    18.815748
_cell_angle_alpha                 102.809669
_cell_angle_beta                  90.40395
_cell_angle_gamma                 99.910456
_cell_volume                      2324.64304223

loop_
_atom_site_label
_atom_site_type_symbol
_atom_site_description
_atom_site_fract_x
_atom_site_fract_y
_atom_site_fract_z
_atom_type_partial_charge
P1    P     P_3+3 0.039440 0.410950 0.333260 0.481149
O1    O     O_2   0.871970 0.437290 0.322980 -0.308207
O2    O     O_3   0.121420 0.444460 0.412460 -0.402462
O3    O     O_3   0.661430 0.607560 0.372520 -0.381352
O4    O     O_2   0.779017 0.548420 0.245722 -0.331745
O5    O     O_3   0.987630 0.292414 0.315601 -0.568284
O6    O     O_3   0.686816 0.705593 0.261173 -0.576784
C1    C     C_3   0.701147 0.865543 0.312914 -0.675878
H1    H     H_    0.684169 0.861182 0.253597 0.247533
P2    P     P_3+3 0.676740 0.714970 0.563520 0.499692
P3    P     P_3+3 0.133594 0.775650 0.422083 0.471230
O7    O     O_2   0.852280 0.726960 0.542370 -0.342396
O8    O     O_3   0.083990 0.657360 0.410240 -0.364676
O9    O     O_2   0.007435 0.818520 0.470775 -0.364161
O10   O     O_3   0.731012 0.737765 0.656893 -0.569785
O11   O     O_3   0.107790 0.813060 0.341106 -0.569109
C2    C     C_3   0.122292 0.747525 0.277375 0.335870
C3    C     C_3   0.062926 0.780056 0.211849 -0.723165
C4    C     C_3   0.181639 0.753494 0.636834 0.324752
C5    C     C_3   0.135955 0.844300 0.674819 -0.652389
Ba1   Ba    Ba6+2 0.853510 0.540900 0.466480 1.635638
C6    C     C_3   0.948429 0.263927 0.379690 0.437802
C7    C     C_3   0.896206 0.161345 0.361977 -0.943965
H2    H     H_    0.967629 0.128147 0.318143 0.302358
C8    C     C_3   0.600387 0.749754 0.701411 0.315952
C9    C     C_3   0.576520 0.849479 0.719456 -0.811996
H3    H     H_    0.525200 0.865622 0.670523 0.204061
P4    P     P_3+3 0.150270 0.589130 0.666750 0.549419
O12   O     O_2   0.317740 0.562750 0.677070 -0.315328
O13   O     O_3   0.068290 0.555610 0.587550 -0.360203
O14   O     O_3   0.528280 0.392520 0.627490 -0.359425
O15   O     O_3   0.209639 0.707544 0.690425 -0.586167
P5    P     P_3+3 0.059873 0.226691 0.589382 0.476270
O16   O     O_3   0.609300 0.386850 0.459730 -0.387027
O17   O     O_3   0.105720 0.342720 0.589770 -0.368235
O18   O     O_2   0.184775 0.179881 0.542293 -0.416611
O19   O     O_3   0.099453 0.213781 0.677656 -0.512457
Ba2   Ba    Ba6+2 0.336320 0.459170 0.533530 1.618609
P6    P     P_3+3 0.639258 0.596610 0.278278 0.532702
C10   C     C_3   0.707356 0.771564 0.327444 0.391821
H4    H     H_    0.595592 0.892045 0.339485 0.203358
O20   O     O_3   0.580410 0.613230 0.540280 -0.367089
C11   C     C_3   0.542964 0.271898 0.295436 0.389669
C12   C     C_3   0.483564 0.218392 0.215574 -0.480728
P7    P     P_3+3 0.519514 0.269088 0.438074 0.411052
O21   O     O_2   0.337420 0.273080 0.457680 -0.394904
O22   O     O_3   0.503890 0.215290 0.344149 -0.571029
C13   C     C_3   0.017638 0.271650 0.727398 0.331980
C14   C     C_3   0.984318 0.234316 0.795642 -0.769339
P8    P     P_3+3 0.543812 0.409736 0.722920 0.509522
C15   C     C_3   0.510081 0.235331 0.683863 0.478889
O23   O     O_2   0.402688 0.459004 0.751183 -0.369771
O24   O     O_3   0.487567 0.303493 0.744560 -0.518949
H5    H     H_    0.425635 0.233593 0.637705 0.154697
H6    H     H_    0.492232 0.089847 0.654053 0.210578
C16   C     C_3   0.477068 0.142948 0.702824 -0.909945
H7    H     H_    0.564341 0.140536 0.746686 0.284953
C17   C     C_R   0.012307 0.438883 0.037300 0.032816
C18   C     C_R   0.932170 0.374826 0.074493 0.224398
C19   C     C_R   0.790644 0.316717 0.040465 -0.129670
C20   C     C_R   0.721158 0.326160 0.975169 -0.057665
C21   C     C_R   0.793253 0.396748 0.941826 0.080126
C22   C     C_R   0.947538 0.445987 0.968940 0.019388
C23   C     C_R   0.714189 0.423715 0.885126 -0.071875
C24   C     C_R   0.809757 0.465983 0.835599 -0.210194
C25   C     C_R   0.973092 0.507350 0.858475 0.005584
C26   C     C_R   0.035627 0.503239 0.928173 0.004896
C27   C     C_R   0.746959 0.473261 0.766389 0.236580
C28   C     C_R   0.851134 0.517587 0.721748 -0.278657
C29   C     C_R   0.015839 0.552021 0.740723 0.192467
C30   C     C_R   0.069280 0.559165 0.814893 -0.042683
C31   C     C_R   0.161285 0.492597 0.066653 -0.007907
C32   C     C_R   0.218799 0.491737 0.137921 -0.018379
C33   C     C_R   0.121651 0.439638 0.181446 -0.127708
C34   C     C_R   0.999028 0.368674 0.143136 -0.059266
H8    H     H_    0.728634 0.264417 0.065061 0.149091
H9    H     H_    0.804138 0.522382 0.669277 0.180345
C35   C     C_R   0.204222 0.623601 0.850412 -0.060333
C36   C     C_R   0.272602 0.614877 0.917270 0.059871
C37   C     C_R   0.187722 0.554462 0.956318 0.067134
C38   C     C_R   0.250154 0.549667 0.025763 0.099411
C39   C     C_R   0.417886 0.670818 0.948938 -0.233606
C40   C     C_R   0.480871 0.666700 0.016870 -0.067933
C41   C     C_R   0.402474 0.601255 0.053940 0.032881
C42   C     C_R   0.378816 0.536873 0.162923 -0.067931
C43   C     C_R   0.475982 0.581008 0.115005 -0.068702
C44   C     C_R   0.433508 0.537205 0.235139 0.369127
C45   C     C_R   0.318999 0.505019 0.281836 -0.379126
C46   C     C_R   0.166306 0.454084 0.258350 0.139764
H10   H     H_    0.483196 0.719983 0.921660 0.115007
H11   H     H_    0.352060 0.514575 0.338210 0.170644
C47   C     C_R   0.337856 0.823419 0.467952 0.193252
C48   C     C_R   0.580593 0.796496 0.524893 0.133689
C49   C     C_R   0.752447 0.231394 0.528906 -0.462396
C50   C     C_R   0.848470 0.176612 0.552978 0.184152
C51   C     C_R   0.787566 0.084878 0.546739 -0.191140
C52   C     C_R   0.631359 0.044783 0.514300 0.068247
C53   C     C_R   0.541240 0.099393 0.481553 -0.001669
C54   C     C_R   0.564914 0.950554 0.510068 0.047767
C55   C     C_R   0.404952 0.916078 0.479334 -0.040773
C56   C     C_R   0.316037 0.973182 0.455914 -0.150670
C57   C     C_R   0.387327 0.056834 0.446824 -0.110094
C58   C     C_R   0.649085 0.889064 0.535454 -0.195005
C59   C     C_R   0.429611 0.764579 0.488011 -0.499532
C60   C     C_R   0.605687 0.193921 0.488397 0.110354
H12   H     H_    0.822517 0.769999 0.355054 0.156758
H13   H     H_    0.203122 0.870182 0.728580 0.199357
C61   C     C_2   0.178821 0.915107 0.631558 0.622668
H14   H     H_    0.304548 0.936272 0.620443 -0.017273
O25   O     O_2   0.074464 0.951234 0.610626 -0.533651
H15   H     H_    0.004856 0.834606 0.685237 0.250798
H16   H     H_    0.845915 0.294564 0.402985 0.028469
H17   H     H_    0.054307 0.282638 0.419170 0.127161
H18   H     H_    0.766214 0.142410 0.344310 0.289660
H19   H     H_    0.914324 0.134886 0.410903 0.220092
C62   C     C_2   0.637883 0.720666 0.770042 0.413889
H20   H     H_    0.733529 0.761136 0.808728 0.041004
O26   O     O_2   0.565346 0.649881 0.781958 -0.606339
H21   H     H_    0.488822 0.705964 0.674571 0.161918
C63   C     C_2   0.852748 0.932117 0.340924 0.626727
H22   H     H_    0.936957 0.956067 0.302971 0.060702
O27   O     O_2   0.884286 0.958177 0.406364 -0.593728
C64   C     C_2   0.731143 0.915420 0.745320 0.713099
H23   H     H_    0.797435 0.912700 0.794267 -0.015868
O28   O     O_2   0.782122 0.973468 0.712115 -0.591860
H24   H     H_    0.486831 0.859335 0.762372 0.161811
H25   H     H_    0.612865 0.758154 0.366226 0.104600
C65   C     C_2   0.468092 0.354035 0.316810 0.579449
H26   H     H_    0.338039 0.347671 0.318500 -0.015250
O29   O     O_2   0.555614 0.427279 0.336769 -0.536701
H27   H     H_    0.676631 0.291593 0.296626 0.112872
C66   C     C_2   0.307526 0.172367 0.209843 0.585677
H28   H     H_    0.253987 0.132621 0.157385 0.003032
O30   O     O_2   0.223210 0.178328 0.262597 -0.566659
C67   C     C_2   0.501378 0.280105 0.162277 0.223483
H29   H     H_    0.436913 0.257707 0.109280 0.054405
O31   O     O_2   0.589961 0.354171 0.176674 -0.506682
C68   C     C_2   0.580543 0.144165 0.188861 0.625444
H30   H     H_    0.624952 0.133760 0.134138 0.037452
O32   O     O_2   0.599409 0.090251 0.225663 -0.526421
H31   H     H_    0.135061 0.847519 0.210371 0.249458
H32   H     H_    0.091803 0.340952 0.742167 0.119871
H33   H     H_    0.897716 0.276379 0.704863 0.082377
C69   C     C_2   0.136337 0.245724 0.841758 0.718032
H34   H     H_    0.238002 0.215797 0.819158 0.103751
O33   O     O_2   0.145892 0.287672 0.905236 -0.566219
H35   H     H_    0.894688 0.270027 0.827821 0.215437
H36   H     H_    0.929920 0.161221 0.779526 0.235070
H37   H     H_    0.636419 0.246475 0.666872 0.055301
H38   H     H_    0.351062 0.128043 0.720360 0.268513
H39   H     H_    0.046174 0.681150 0.278871 0.126181
C70   C     C_2   0.582743 0.254809 0.940781 0.655457
H40   H     H_    0.514480 0.212124 0.973035 -0.037962
O34   O     O_2   0.547180 0.240401 0.875782 -0.592242
C71   C     C_2   0.547760 0.444323 0.897462 0.630368
H41   H     H_    0.508950 0.495382 0.873669 0.043942
O35   O     O_2   0.457888 0.411779 0.939221 -0.568775
C72   C     C_2   0.996523 0.278771 0.160259 0.519904
H42   H     H_    0.085482 0.273008 0.199428 0.071785
O36   O     O_2   0.912522 0.209167 0.126162 -0.624241
C73   C     C_2   0.230342 0.715334 0.835305 0.655269
H43   H     H_    0.350846 0.753154 0.833193 -0.017744
O37   O     O_2   0.114144 0.751786 0.828678 -0.607766
C74   C     C_2   0.616393 0.740215 0.050397 0.484077
H44   H     H_    0.702665 0.770358 0.016040 0.035915
O38   O     O_2   0.627399 0.771490 0.116149 -0.585625
C75   C     C_2   0.649326 0.574012 0.110440 0.618016
H45   H     H_    0.742278 0.632309 0.111658 0.009305
O39   O     O_2   0.688872 0.500004 0.102240 -0.562813
C76   C     C_2   0.295841 0.738103 0.269412 0.398540
H46   H     H_    0.370265 0.766292 0.230089 0.110990
O40   O     O_2   0.355855 0.700127 0.309800 -0.677624
C77   C     C_2   0.369221 0.667690 0.468317 0.768505
H47   H     H_    0.409147 0.628852 0.420180 0.016870
O41   O     O_2   0.277550 0.630924 0.506845 -0.552871
H48   H     H_    0.191539 0.950225 0.436284 0.213344
H49   H     H_    0.766848 0.910396 0.563034 0.221921
C78   C     C_2   0.804651 0.329712 0.550818 0.679928
H50   H     H_    0.848210 0.370495 0.512908 0.037649
O42   O     O_2   0.817825 0.365385 0.615219 -0.664655
H51   H     H_    0.865196 0.046670 0.567844 0.210808
C79   C     C_2   0.301482 0.083252 0.389018 0.732393
H52   H     H_    0.208444 0.124159 0.401711 0.056090
O43   O     O_2   0.319663 0.048315 0.325390 -0.535490
C80   C     C_2   0.072415 0.713945 0.140909 0.543491
H53   H     H_    0.020466 0.643005 0.134936 0.028224
O44   O     O_2   0.138639 0.739585 0.089778 -0.560446
H54   H     H_    0.935158 0.788717 0.217820 0.234256
H55   H     H_    0.296716 0.767059 0.610187 0.019148
H56   H     H_    0.088063 0.714731 0.595656 0.184114

loop_
_geom_bond_atom_site_label_1
_geom_bond_atom_site_label_2
_geom_bond_distance
_ccdc_geom_bond_type
C54   C58   1.429743 A    
H6    C16   1.109195 S    
C49   C60   1.403851 A    
P1    Ba1   3.406661 S    
C56   C57   1.369553 A    
P2    O20   1.596136 S    
C32   C33   1.431897 A    
C28   H9    1.082479 S    
C50   C51   1.393823 A    
P6    C44   1.889477 S    
C51   H51   1.075501 S    
C40   C74   1.481784 S    
C65   H26   1.077530 S    
C48   C58   1.409775 A    
C73   H43   1.080014 S    
C64   H23   1.084327 S    
C75   O39   1.217295 D    
C77   H47   1.059256 S    
C16   H7    1.109351 S    
C23   C71   1.489764 S    
C1    C63   1.496959 S    
C9    H3    1.107455 S    
C53   C60   1.437945 A    
C33   C46   1.450566 A    
P4    O12   1.547484 D    
C41   C43   1.417909 A    
Ba2   O20   2.828941 S    
P1    O2    1.574988 S    
C28   C29   1.402461 A    
C49   C78   1.463375 S    
C37   C38   1.425590 A    
P3    O9    1.541118 D    
O10   C8    1.394729 S    
C71   O35   1.219462 D    
C76   H46   1.085984 S    
O5    C6    1.394344 S    
C14   C69   1.497756 S    
C8    H21   1.098611 S    
P5    O18   1.544673 D    
C61   H14   1.082976 S    
C14   H35   1.109995 S    
P1    O1    1.547078 D    
C9    H24   1.110051 S    
C79   H52   1.078994 S    
C21   C23   1.424445 A    
C64   O28   1.220511 D    
C52   C54   1.444697 A    
P3    C47   1.863908 S    
C6    H17   1.108311 S    
Ba1   Ba2   4.678474 S    
C4    C5    1.533946 S    
O2    Ba2   2.837345 S    
C63   O27   1.219265 D    
C1    H1    1.109793 S    
O12   Ba2   2.835503 S    
P8    O23   1.546319 D    
C7    H2    1.106259 S    
C45   H11   1.065858 S    
C29   C30   1.437398 A    
C67   H29   1.086444 S    
C31   C38   1.413754 A    
C5    H13   1.110969 S    
C12   C67   1.518026 S    
P7    O22   1.770904 S    
C25   C26   1.427011 A    
C18   C19   1.408375 A    
O16   Ba2   2.936423 S    
C72   O36   1.217464 D    
C2    H39   1.112758 S    
C4    O15   1.393185 S    
P5    C50   1.863909 S    
C48   C59   1.393932 A    
C6    C7    1.522869 S    
C73   O37   1.221934 D    
P7    C60   1.875256 S    
C52   C53   1.447564 A    
C42   C44   1.429448 A    
P2    Ba1   3.453479 S    
C22   C26   1.411261 A    
P8    O24   1.758100 S    
C33   C34   1.421173 A    
C43   C75   1.475160 S    
C13   H32   1.112387 S    
P1    O5    1.754965 S    
C57   C79   1.466307 S    
C78   H50   1.076397 S    
P4    O15   1.757382 S    
O17   Ba2   2.780952 S    
C1    H4    1.112103 S    
C69   O33   1.220007 D    
C8    C62   1.505016 S    
C75   H45   1.077270 S    
C2    C76   1.490006 S    
C27   C28   1.410852 A    
Ba1   O16   2.829414 S    
P2    C48   1.868652 S    
C17   C18   1.412598 A    
C42   C43   1.423749 A    
C10   H25   1.104284 S    
O7    Ba1   2.903045 S    
C19   H8    1.074955 S    
P5    O19   1.751881 S    
C36   C37   1.411061 A    
C14   H36   1.110875 S    
C19   C20   1.402507 A    
C15   O24   1.406813 S    
C11   C12   1.575695 S    
C25   C30   1.426252 A    
C21   C22   1.408790 A    
C5    H15   1.106694 S    
P3    O11   1.768093 S    
C40   C41   1.421596 A    
O3    P6    1.749087 S    
P4    Ba2   3.407303 S    
O6    C10   1.410663 S    
C24   C27   1.435264 A    
C51   C52   1.416717 A    
O1    Ba1   2.834889 S    
C2    C3    1.538823 S    
O8    Ba1   2.780455 S    
C49   C50   1.399489 A    
O16   P7    1.792132 S    
C45   C46   1.391683 A    
O19   C13   1.409539 S    
C32   C42   1.422625 A    
C77   O41   1.214281 D    
P2    O7    1.516349 D    
C11   H27   1.106486 S    
C4    H55   1.098617 S    
C34   C72   1.484643 S    
C66   O30   1.218065 D    
C13   C14   1.527500 S    
C70   O34   1.218784 D    
C39   C40   1.397752 A    
C11   O22   1.401895 S    
C6    H16   1.097074 S    
O4    P6    1.549439 D    
C72   H42   1.072163 S    
O2    Ba1   2.961802 S    
C9    C64   1.503789 S    
O14   P8    1.756467 S    
C16   H38   1.108748 S    
C18   C34   1.432694 A    
C38   C41   1.411484 A    
C63   H22   1.084884 S    
C47   C55   1.407135 A    
C10   H12   1.098322 S    
C17   C22   1.425898 A    
C67   O31   1.220934 D    
C74   H44   1.085676 S    
P1    C46   1.935980 S    
P2    O10   1.754066 S    
C35   C36   1.421038 A    
C3    H31   1.113345 S    
P4    C29   1.919057 S    
C26   C37   1.408023 A    
C15   C16   1.521138 S    
C31   C32   1.425173 A    
C65   O29   1.213039 D    
C11   C65   1.483770 S    
C36   C39   1.405995 A    
C78   O42   1.209964 D    
O14   Ba2   2.844214 S    
C59   C77   1.451548 S    
C68   O32   1.220783 D    
C12   C66   1.513042 S    
Ba1   O13   2.836724 S    
C3    C80   1.499816 S    
C39   H10   1.080732 S    
C54   C55   1.420375 A    
C69   H34   1.081755 S    
C15   H5    1.108729 S    
C23   C24   1.425232 A    
C74   O38   1.220538 D    
C8    C9    1.543885 S    
P4    O13   1.574998 S    
C53   C57   1.422586 A    
C7    H18   1.105620 S    
O3    Ba1   2.844931 S    
P3    O8    1.758242 S    
C17   C31   1.405810 A    
C80   H53   1.083514 S    
O11   C2    1.406042 S    
C61   O25   1.219181 D    
C76   O40   1.209774 D    
C12   C68   1.511823 S    
C3    H54   1.103857 S    
C55   C56   1.382662 A    
P5    O17   1.758090 S    
C62   O26   1.219442 D    
C62   H20   1.085236 S    
C66   H28   1.086614 S    
C20   C21   1.420743 A    
C20   C70   1.484102 S    
C79   O43   1.220943 D    
Ba2   O21   2.903054 S    
C80   O44   1.220223 D    
C68   H30   1.084807 S    
C47   C59   1.392212 A    
C4    H56   1.093293 S    
C7    H19   1.105213 S    
Ba1   O20   2.937337 S    
P7    O21   1.579131 D    
C70   H40   1.085527 S    
C15   H37   1.103099 S    
C44   C45   1.406207 A    
C13   H33   1.107119 S    
C24   C25   1.424960 A    
C71   H41   1.079100 S    
O6    P6    1.755976 S    
C35   C73   1.480559 S    
C56   H48   1.075821 S    
C1    C10   1.538819 S    
O13   Ba2   2.962651 S    
C58   H49   1.074596 S    
P8    C27   1.889393 S    
C30   C35   1.419607 A    
C5    C61   1.496730 S    
