data_mof_unit_52796.cif
_audit_creation_date              2012-12-10T17:21:17-0500
_audit_creation_method            fapswitch 2.2
_symmetry_space_group_name_H-M    P1
_symmetry_Int_Tables_number       1
_space_group_crystal_system       triclinic
_cell_length_a                    9.617228
_cell_length_b                    10.778679
_cell_length_c                    13.882299
_cell_angle_alpha                 91.789815
_cell_angle_beta                  84.926752
_cell_angle_gamma                 89.043448
_cell_volume                      1432.442715

loop_
_atom_site_label
_atom_site_type_symbol
_atom_type_description
_atom_site_fract_x
_atom_site_fract_y
_atom_site_fract_z
_atom_type_partial_charge
C1    C     C_R   0.499184 0.736911 0.492692 0.845342
C2    C     C_1   0.464714 0.500289 0.785916 -0.155556
C3    C     C_R   0.424352 0.878483 0.316960 0.176947
C4    C     C_R   0.425888 0.945990 0.231093 0.273164
C5    C     C_R   0.455232 0.072086 0.233059 -0.254911
C6    C     C_R   0.480548 0.132363 0.319128 -0.258316
C7    C     C_R   0.484005 0.066702 0.405121 0.064318
C8    C     C_R   0.466621 0.936366 0.403465 0.008827
C9    C     C_R   0.494592 0.871379 0.488270 -0.075227
C10   C     C_R   0.526950 0.935976 0.572010 -0.182815
C11   C     C_R   0.529009 0.064052 0.575165 -0.189304
C12   C     C_R   0.477453 0.500262 0.682773 0.823244
C13   C     C_R   0.505946 0.129119 0.492976 -0.048907
C14   C     C_R   0.874979 0.335175 0.372826 -0.094595
C15   C     C_R   0.956150 0.254701 0.310369 -0.215326
C16   C     C_R   0.099412 0.255054 0.309779 -0.199138
C17   C     C_R   0.162305 0.335780 0.371737 -0.086039
C18   C     C_R   0.083960 0.419146 0.437237 0.080703
C19   C     C_R   0.934525 0.419020 0.437481 0.178557
C20   C     C_R   0.917106 0.577243 0.559305 -0.147202
C21   C     C_R   0.064817 0.577302 0.559379 0.668773
C22   C     C_R   0.501310 0.262876 0.500872 0.758881
C23   C     C_R   0.522805 0.496997 0.317263 0.790848
C24   C     C_1   0.537332 0.492441 0.214166 -0.222185
C25   C     C_2   0.568391 0.489365 0.023164 0.291691
C26   C     C_2   0.452378 0.500922 0.976445 -0.250131
C27   C     C_1   0.457065 0.500429 0.872735 0.007508
C28   C     C_1   0.551130 0.489984 0.127365 -0.038856
Cu1   Cu    Cu3+1 0.359340 0.500010 0.500010 0.994440
Cu2   Cu    Cu3+1 0.640660 0.499990 0.499990 0.939984
H1    H     H_    0.350594 0.511483 0.016945 0.146725
H2    H     H_    0.766339 0.327355 0.366919 0.191525
H3    H     H_    0.907200 0.191742 0.261889 0.152683
H4    H     H_    0.162628 0.192375 0.260790 0.154280
H5    H     H_    0.272550 0.328533 0.364720 0.194500
H6    H     H_    0.548029 0.886645 0.636212 0.142402
H7    H     H_    0.455089 0.124555 0.167773 0.155666
H8    H     H_    0.500637 0.230665 0.317191 0.129385
H9    H     H_    0.548728 0.112763 0.641948 0.141719
H10   H     H_    0.854583 0.640629 0.607965 0.168605
N1    N     N_R   0.852210 0.498790 0.499090 -0.228594
N2    N     N_R   0.148080 0.498710 0.499060 -0.250840
O1    O     O_R   0.381190 0.680360 0.500010 -0.504300
O2    O     O_R   0.618760 0.680340 0.500000 -0.587883
O3    O     O_R   0.364420 0.499990 0.637850 -0.516622
O4    O     O_R   0.601990 0.499960 0.637840 -0.580157
O5    O     O_R   0.381240 0.319660 0.500000 -0.593894
O6    O     O_R   0.618810 0.319640 0.499990 -0.595923
O7    O     O_R   0.398010 0.500040 0.362160 -0.593459
O8    O     O_R   0.635580 0.500010 0.362150 -0.590746
F1    F     F_    0.123909 0.657098 0.620381 -0.654347
N3    N     N_2   0.704477 0.474387 0.972097 -0.413437
H11   H     H_    0.715729 0.506092 0.902590 0.263908
C29   C     C_3   0.824766 0.495634 0.025840 -0.658736
H12   H     H_    0.921926 0.478621 0.977459 0.226839
H13   H     H_    0.825743 0.430789 0.086448 0.238679
H14   H     H_    0.823346 0.593171 0.054376 0.223417
N4    N     N_2   0.362002 0.760006 0.318330 -0.421116
H15   H     H_    0.386800 0.706979 0.256088 0.271084
C30   C     C_3   0.212430 0.765602 0.342890 -0.576581
H16   H     H_    0.187255 0.813125 0.414665 0.242561
H17   H     H_    0.171371 0.670073 0.346110 0.222869
H18   H     H_    0.159865 0.816062 0.287174 0.205367
N5    N     N_2   0.391412 0.887736 0.143212 -0.443775
H19   H     H_    0.333898 0.944104 0.102232 0.252404
C31   C     C_3   0.509775 0.830087 0.086338 -0.701015
H20   H     H_    0.584088 0.901937 0.059841 0.228919
H21   H     H_    0.473206 0.778758 0.023056 0.240530
H22   H     H_    0.564660 0.763424 0.130010 0.232638

loop_
_geom_bond_atom_site_label_1
_geom_bond_atom_site_label_2
_ccdc_geom_bond_type
C22   O6    A    
C23   C24   S    
C6    H8    S    
Cu2   N1    S    
Cu1   Cu2   S    
C5    H7    S    
Cu1   N2    S    
Cu1   O5    S    
C9    C10   A    
C4    N5    S    
C1    O2    A    
C31   H21   S    
C7    C13   A    
C2    C12   S    
N5    H19   S    
C20   C21   A    
C17   C18   A    
Cu2   O8    S    
C25   N3    S    
C26   H1    S    
Cu1   O7    S    
Cu1   O1    S    
C25   C28   S    
C11   H9    S    
C11   C13   A    
Cu2   O2    S    
C26   C27   S    
C2    C27   T    
C30   H16   S    
C30   H18   S    
C20   N1    A    
C4    C5    A    
C12   O4    A    
C25   C26   D    
Cu2   O4    S    
C13   C22   S    
C31   H20   S    
C6    C7    A    
C29   H13   S    
C18   N2    A    
C5    C6    A    
C20   H10   S    
C22   O5    A    
C23   O7    A    
C31   H22   S    
C7    C8    A    
C10   C11   A    
N4    C30   S    
C15   C16   A    
C3    N4    S    
C24   C28   T    
C21   F1    S    
C1    C9    S    
N3    H11   S    
C30   H17   S    
C3    C8    A    
Cu2   O6    S    
C18   C19   A    
C14   C15   A    
C8    C9    A    
C23   O8    A    
C10   H6    S    
C21   N2    A    
C17   H5    S    
C16   H4    S    
N4    H15   S    
C29   H12   S    
C14   H2    S    
C14   C19   A    
C1    O1    A    
Cu1   O3    S    
C3    C4    A    
C19   N1    A    
C16   C17   A    
N3    C29   S    
C12   O3    A    
C15   H3    S    
C29   H14   S    
N5    C31   S    
