data_mof_unit_41288.cif
_audit_creation_date              2012-12-11T16:52:21-0500
_audit_creation_method            fapswitch 2.2
_symmetry_space_group_name_H-M    P1
_symmetry_Int_Tables_number       1
_space_group_crystal_system       triclinic
_cell_length_a                    7.323297
_cell_length_b                    26.19224
_cell_length_c                    28.729123
_cell_angle_alpha                 90.117739
_cell_angle_beta                  90.431105
_cell_angle_gamma                 90.067251
_cell_volume                      5510.46362696

loop_
_atom_site_label
_atom_site_type_symbol
_atom_type_description
_atom_site_fract_x
_atom_site_fract_y
_atom_site_fract_z
_atom_type_partial_charge
O1    O     O_R   0.601030 0.796770 0.202460 -0.525647
O2    O     O_R   0.398970 0.203230 0.797540 -0.549034
O3    O     O_R   0.398970 0.203230 0.702460 -0.532216
O4    O     O_R   0.601030 0.796770 0.297540 -0.551438
O5    O     O_R   0.101030 0.703230 0.297540 -0.519933
O6    O     O_R   0.898970 0.296770 0.702460 -0.550157
O7    O     O_R   0.898970 0.296770 0.797540 -0.526393
O8    O     O_R   0.101030 0.703230 0.202460 -0.552085
O9    O     O_R   0.271290 0.802910 0.297210 -0.509395
O10   O     O_R   0.728710 0.197090 0.702790 -0.533380
O11   O     O_R   0.728710 0.197090 0.797210 -0.503587
O12   O     O_R   0.271290 0.802910 0.202790 -0.538235
O13   O     O_R   0.771290 0.697090 0.202790 -0.501204
O14   O     O_R   0.228710 0.302910 0.797210 -0.532697
O15   O     O_R   0.228710 0.302910 0.702790 -0.501936
O16   O     O_R   0.771290 0.697090 0.297210 -0.531520
C1    C     C_R   0.440510 0.814790 0.312988 0.764275
C2    C     C_R   0.559428 0.184808 0.688020 0.709962
C3    C     C_R   0.559648 0.184078 0.812284 0.738710
C4    C     C_R   0.439206 0.815241 0.187444 0.706794
C5    C     C_R   0.940214 0.684103 0.187641 0.743314
C6    C     C_R   0.060806 0.315629 0.812115 0.717646
C7    C     C_R   0.059304 0.315612 0.687412 0.744157
C8    C     C_R   0.940054 0.685353 0.312488 0.730761
O17   O     O_3   0.434520 0.717290 0.250000 -0.370221
O18   O     O_3   0.565480 0.282710 0.750000 -0.371296
O19   O     O_3   0.934520 0.782710 0.250000 -0.379005
O20   O     O_3   0.065480 0.217290 0.750000 -0.375884
V1    V     V_3+5 0.159680 0.756060 0.250000 1.463612
V2    V     V_3+5 0.840320 0.243940 0.750000 1.469768
V3    V     V_3+5 0.659680 0.743940 0.250000 1.476298
V4    V     V_3+5 0.340320 0.256060 0.750000 1.463270
C9    C     C_R   0.880164 0.368690 0.626624 -0.040321
C10   C     C_R   0.842692 0.653899 0.391657 0.007354
C11   C     C_R   0.117776 0.630111 0.127469 -0.047433
C12   C     C_R   0.187628 0.360624 0.884630 0.007223
C13   C     C_R   0.381625 0.129761 0.872037 -0.040991
C14   C     C_R   0.308490 0.858987 0.114571 0.002520
C15   C     C_R   0.589397 0.889334 0.357799 -0.031337
C16   C     C_R   0.542696 0.158521 0.603645 0.012440
C17   C     C_R   0.873589 0.411092 0.596038 0.306035
C18   C     C_R   0.849525 0.616365 0.427305 0.355367
C19   C     C_R   0.121062 0.588286 0.096113 0.341855
C20   C     C_R   0.169954 0.398619 0.919607 0.332149
C21   C     C_R   0.377799 0.087666 0.902950 0.310436
C22   C     C_R   0.324700 0.896183 0.078866 0.334321
C23   C     C_R   0.581686 0.925631 0.394574 0.319344
C24   C     C_R   0.538291 0.119779 0.568870 0.365400
C25   C     C_R   0.032694 0.431105 0.577552 -0.028380
C26   C     C_R   0.977863 0.576616 0.424989 0.002454
C27   C     C_R   0.960339 0.568589 0.077745 0.044988
C28   C     C_R   0.010099 0.427817 0.922290 0.013499
C29   C     C_R   0.538262 0.067732 0.921045 -0.034536
C30   C     C_R   0.485348 0.924885 0.074787 0.014598
C31   C     C_R   0.455053 0.919861 0.430603 -0.050932
C32   C     C_R   0.516738 0.068326 0.581633 -0.006771
C33   C     C_R   0.198920 0.414841 0.595577 0.189216
C34   C     C_R   0.091978 0.571680 0.386157 0.299067
C35   C     C_R   0.795920 0.583627 0.096926 0.179282
C36   C     C_R   0.874275 0.423688 0.887873 0.299324
C37   C     C_R   0.702816 0.082842 0.901988 0.182962
C38   C     C_R   0.625229 0.920538 0.108024 0.296919
C39   C     C_R   0.325856 0.880266 0.428722 0.233063
C40   C     C_R   0.509522 0.054619 0.628917 0.301700
C41   C     C_R   0.205056 0.383074 0.635589 0.231905
C42   C     C_R   0.072112 0.605361 0.348010 0.217977
C43   C     C_R   0.793250 0.615330 0.137021 0.236578
C44   C     C_R   0.899734 0.390401 0.849663 0.206730
C45   C     C_R   0.705925 0.114914 0.862257 0.247813
C46   C     C_R   0.603202 0.887714 0.146573 0.203779
C47   C     C_R   0.315483 0.848061 0.388787 0.223727
C48   C     C_R   0.530476 0.092358 0.664070 0.226525
C49   C     C_R   0.047555 0.355829 0.649419 -0.161217
C50   C     C_R   0.950114 0.647480 0.351001 -0.194306
C51   C     C_R   0.951054 0.643326 0.150104 -0.162772
C52   C     C_R   0.051580 0.356353 0.848925 -0.209765
C53   C     C_R   0.548445 0.143072 0.849480 -0.158348
C54   C     C_R   0.448202 0.854793 0.149429 -0.206535
C55   C     C_R   0.449802 0.851402 0.353546 -0.166601
C56   C     C_R   0.546529 0.144704 0.651425 -0.182952
C57   C     C_R   0.082855 0.519679 0.544200 0.045853
C58   C     C_R   0.925444 0.488452 0.458381 0.050567
C59   C     C_R   0.918543 0.479955 0.043250 0.018543
C60   C     C_R   0.038677 0.516961 0.955709 0.011847
C61   C     C_R   0.571788 0.978554 0.953981 0.049550
C62   C     C_R   0.461039 0.014284 0.042581 0.057123
C63   C     C_R   0.325929 0.993411 0.477754 0.018885
C64   C     C_R   0.635754 0.991027 0.537558 0.029126
C65   C     C_R   0.074082 0.554112 0.505966 0.364355
C66   C     C_R   0.949436 0.452745 0.494485 0.362780
C67   C     C_R   0.924440 0.446887 0.004007 0.357667
C68   C     C_R   0.021408 0.550818 0.994174 0.356114
C69   C     C_R   0.562810 0.944475 0.992441 0.360810
C70   C     C_R   0.481058 0.048937 0.005600 0.355967
C71   C     C_R   0.341776 0.028529 0.515604 0.358041
C72   C     C_R   0.613993 0.953542 0.502664 0.355428
C73   C     C_R   0.991132 0.538910 0.463785 0.076763
C74   C     C_R   0.023875 0.468365 0.538113 0.052029
C75   C     C_R   0.989306 0.465027 0.961112 0.117728
C76   C     C_R   0.965839 0.532080 0.037815 0.108637
C77   C     C_R   0.503192 0.962162 0.036020 0.083895
C78   C     C_R   0.532685 0.031147 0.960811 0.058826
C79   C     C_R   0.498696 0.028306 0.544423 0.081646
C80   C     C_R   0.462388 0.955491 0.471484 0.062632
C81   C     C_3   0.714366 0.335152 0.630098 -0.657478
H1    H     H_    0.755707 0.295057 0.623989 0.192145
H2    H     H_    0.652435 0.338966 0.664902 0.259189
H3    H     H_    0.610740 0.343962 0.603150 0.218507
C82   C     C_3   0.730550 0.701867 0.399043 -0.686142
H4    H     H_    0.778721 0.734499 0.377890 0.202763
H5    H     H_    0.584935 0.694124 0.390578 0.209160
H6    H     H_    0.742715 0.714966 0.435729 0.214433
C83   C     C_3   0.289638 0.661031 0.133448 -0.617380
H7    H     H_    0.260503 0.701653 0.126641 0.184203
H8    H     H_    0.344820 0.656134 0.169112 0.250371
H9    H     H_    0.395646 0.650458 0.108059 0.219298
C84   C     C_3   0.344878 0.323267 0.887599 -0.675286
H10   H     H_    0.295677 0.284135 0.880698 0.187379
H11   H     H_    0.451865 0.333742 0.862145 0.230488
H12   H     H_    0.407140 0.321421 0.922854 0.213818
C85   C     C_3   0.210549 0.160999 0.866601 -0.629754
H13   H     H_    0.241237 0.201525 0.873788 0.181522
H14   H     H_    0.154518 0.156503 0.830960 0.255330
H15   H     H_    0.104622 0.150349 0.891989 0.216812
C86   C     C_3   0.148355 0.822378 0.113215 -0.668877
H16   H     H_    0.194747 0.783236 0.120858 0.189803
H17   H     H_    0.043887 0.834303 0.138827 0.233992
H18   H     H_    0.083856 0.819576 0.078261 0.214055
C87   C     C_3   0.748442 0.890564 0.324440 -0.670831
H19   H     H_    0.827280 0.854557 0.327080 0.230148
H20   H     H_    0.696932 0.896114 0.288558 0.182532
H21   H     H_    0.849537 0.920982 0.331908 0.206015
C88   C     C_3   0.533768 0.214011 0.589163 -0.763165
H22   H     H_    0.501962 0.240166 0.618284 0.204488
H23   H     H_    0.665812 0.225669 0.573708 0.199987
H24   H     H_    0.422515 0.219364 0.563145 0.227806
O21   O     O_3   0.713082 0.434207 0.584047 -0.613748
H25   H     H_    0.648073 0.439292 0.613710 0.311551
O22   O     O_3   0.736022 0.617804 0.465566 -0.618840
H26   H     H_    0.624772 0.637525 0.457840 0.312977
O23   O     O_3   0.279955 0.564651 0.084016 -0.616479
H27   H     H_    0.344922 0.558403 0.113777 0.308275
O24   O     O_3   0.305552 0.407912 0.952253 -0.619133
H28   H     H_    0.425475 0.403013 0.937195 0.322358
O25   O     O_3   0.218594 0.064185 0.915038 -0.614444
H29   H     H_    0.153506 0.057987 0.885255 0.316555
O26   O     O_3   0.186723 0.905238 0.046873 -0.617846
H30   H     H_    0.067878 0.900534 0.062473 0.322855
O27   O     O_3   0.699166 0.966788 0.396910 -0.632906
H31   H     H_    0.705354 0.981899 0.365376 0.297915
O28   O     O_3   0.549658 0.130555 0.521812 -0.621313
H32   H     H_    0.602494 0.164875 0.517181 0.308881
O29   O     O_3   0.353797 0.429265 0.572918 -0.616863
H33   H     H_    0.419429 0.396994 0.566709 0.325775
O30   O     O_3   0.217268 0.532150 0.386065 -0.631898
H34   H     H_    0.295475 0.534406 0.358210 0.342027
O31   O     O_3   0.638876 0.567544 0.075673 -0.619796
H35   H     H_    0.577378 0.599409 0.065762 0.329860
O32   O     O_3   0.721967 0.454603 0.891643 -0.634501
H36   H     H_    0.631416 0.445552 0.867237 0.333622
O33   O     O_3   0.859606 0.066616 0.923130 -0.618023
H37   H     H_    0.921275 0.098428 0.933350 0.323622
O34   O     O_3   0.778199 0.951045 0.102884 -0.636717
H38   H     H_    0.870385 0.942662 0.127030 0.331433
O35   O     O_3   0.212725 0.873950 0.466561 -0.617557
H39   H     H_    0.173951 0.837779 0.468135 0.315282
O36   O     O_3   0.482983 0.003602 0.639417 -0.628925
H40   H     H_    0.476717 0.998858 0.673513 0.349245
O37   O     O_3   0.360154 0.380436 0.662606 -0.642519
H41   H     H_    0.429829 0.412404 0.658320 0.298256
O38   O     O_3   0.172609 0.595667 0.308389 -0.638214
H42   H     H_    0.108310 0.609908 0.280926 0.288957
O39   O     O_3   0.642822 0.616656 0.165293 -0.641778
H43   H     H_    0.570483 0.585260 0.159827 0.301276
O40   O     O_3   0.775826 0.392798 0.813245 -0.639394
H44   H     H_    0.841975 0.386549 0.783820 0.295227
O41   O     O_3   0.856660 0.116576 0.834100 -0.640521
H45   H     H_    0.928923 0.085179 0.839261 0.305138
O42   O     O_3   0.733713 0.889571 0.181372 -0.645169
H46   H     H_    0.670471 0.885735 0.211424 0.286627
O43   O     O_3   0.178735 0.811977 0.384153 -0.639043
H47   H     H_    0.067064 0.825124 0.399281 0.295701
O44   O     O_3   0.531142 0.076480 0.710059 -0.640854
H48   H     H_    0.555822 0.105367 0.731358 0.288381
C89   C     C_3   0.146390 0.538930 0.591437 -0.678850
H49   H     H_    0.075818 0.575257 0.599889 0.207380
H50   H     H_    0.114986 0.512505 0.620331 0.207439
H51   H     H_    0.296263 0.545336 0.591093 0.222547
C90   C     C_3   0.829522 0.471036 0.414262 -0.569442
H52   H     H_    0.694334 0.454568 0.423078 0.228514
H53   H     H_    0.804111 0.502231 0.389074 0.172208
H54   H     H_    0.912794 0.441336 0.396801 0.224620
C91   C     C_3   0.870911 0.458738 0.090698 -0.689221
H55   H     H_    0.955387 0.424467 0.098064 0.210428
H56   H     H_    0.897556 0.485742 0.119669 0.204495
H57   H     H_    0.723998 0.448289 0.091476 0.223539
C92   C     C_3   0.113844 0.536169 0.909897 -0.698630
H58   H     H_    0.248509 0.554660 0.915956 0.222289
H59   H     H_    0.135936 0.505749 0.883734 0.204569
H60   H     H_    0.017487 0.564071 0.894224 0.208490
C93   C     C_3   0.614587 0.957927 0.905916 -0.671873
H61   H     H_    0.524460 0.924869 0.897942 0.206641
H62   H     H_    0.591782 0.985810 0.877566 0.213781
H63   H     H_    0.759635 0.945766 0.904590 0.217725
C94   C     C_3   0.395069 0.034579 0.088874 -0.584980
H64   H     H_    0.260408 0.053353 0.083993 0.228602
H65   H     H_    0.377790 0.004696 0.115704 0.168185
H66   H     H_    0.494247 0.063067 0.102596 0.223063
C95   C     C_3   0.168444 0.998444 0.443399 -0.645844
H67   H     H_    0.160538 0.038346 0.430557 0.202156
H68   H     H_    0.181571 0.974121 0.412070 0.210827
H69   H     H_    0.038321 0.988042 0.460547 0.242341
C96   C     C_3   0.808398 0.989951 0.566875 -0.557011
H70   H     H_    0.929503 0.987112 0.544053 0.215092
H71   H     H_    0.827936 0.024644 0.588450 0.181946
H72   H     H_    0.805844 0.956150 0.590110 0.236344
O45   O     O_3   0.140670 0.603545 0.508625 -0.622454
H73   H     H_    0.228992 0.606630 0.534646 0.308945
O46   O     O_3   0.895162 0.402919 0.485893 -0.622199
H74   H     H_    0.956195 0.379555 0.508058 0.296565
O47   O     O_3   0.874378 0.395940 0.006258 -0.628646
H75   H     H_    0.799130 0.389698 0.034061 0.310723
O48   O     O_3   0.061056 0.602475 0.991270 -0.628117
H76   H     H_    0.075294 0.613082 0.958564 0.307724
O49   O     O_3   0.605701 0.893136 0.988825 -0.625385
H77   H     H_    0.677915 0.886746 0.960520 0.309366
O50   O     O_3   0.445844 0.099949 0.014652 -0.624368
H78   H     H_    0.497878 0.121667 0.989965 0.296065
O51   O     O_3   0.209817 0.064903 0.525135 -0.626550
H79   H     H_    0.096796 0.058094 0.507262 0.301417
O52   O     O_3   0.747603 0.916327 0.499378 -0.616684
H80   H     H_    0.702280 0.887177 0.480649 0.304113

loop_
_geom_bond_atom_site_label_1
_geom_bond_atom_site_label_2
_ccdc_geom_bond_type
O17   V3    S    
O38   H42   S    
C64   C72   A    
O18   V4    S    
O31   H35   S    
O12   V1    S    
C46   C54   A    
C63   C95   S    
O37   H41   S    
C47   O43   S    
C30   C77   S    
C45   C53   A    
O48   H76   S    
C10   C18   A    
C36   O32   S    
C6    C52   S    
C19   C27   A    
C64   C79   A    
C47   C55   A    
O25   H29   S    
C25   C33   A    
O15   V4    S    
C1    C55   S    
O39   H43   S    
O16   V3    S    
C87   H20   S    
C81   H2    S    
O11   C3    A    
O35   H39   S    
C21   O25   S    
O8    V1    S    
C23   C31   A    
O49   H77   S    
C83   H7    S    
C40   O36   S    
C82   H5    S    
C46   O42   S    
C89   H50   S    
O19   V1    S    
C57   C74   A    
C37   C45   A    
O24   H28   S    
C42   C50   A    
O1    V3    S    
C95   H69   S    
C41   C49   A    
C38   C46   A    
O3    C2    A    
O2    V4    S    
C93   H61   S    
C72   O52   S    
C17   C25   A    
C92   H59   S    
O50   H78   S    
C16   C24   A    
C43   O39   S    
C85   H15   S    
C62   C70   A    
O26   H30   S    
C45   O41   S    
C25   C74   S    
C29   C37   A    
C34   C42   A    
O34   H38   S    
O11   V2    S    
C91   H56   S    
C16   C88   S    
C63   C71   A    
C86   H18   S    
O28   H32   S    
C16   C56   A    
C94   H64   S    
C67   O47   S    
C11   C19   A    
C17   O21   S    
C12   C20   A    
O9    V1    S    
C87   H21   S    
C35   C43   A    
C20   C28   A    
O15   C7    A    
C18   O22   S    
C21   C29   A    
O16   C8    A    
O7    V2    S    
O14   C6    A    
C93   H62   S    
O12   C4    A    
O3    V4    S    
C61   C69   A    
C7    C49   S    
C62   C94   S    
C57   C89   S    
C44   O40   S    
C71   C79   A    
O33   H37   S    
O5    V1    S    
C94   H65   S    
C81   H3    S    
C14   C22   A    
C64   C96   S    
C90   H54   S    
C26   C34   A    
C23   O27   S    
C42   O38   S    
C9    C81   S    
C48   O44   S    
C82   H4    S    
C82   H6    S    
C69   C77   A    
O46   H74   S    
C89   H51   S    
C14   C54   A    
C38   O34   S    
O45   H73   S    
O43   H47   S    
C13   C53   A    
C31   C80   S    
O42   H46   S    
C31   C39   A    
C15   C55   A    
C59   C91   S    
C92   H60   S    
O44   H48   S    
C22   O26   S    
O51   H79   S    
C88   H24   S    
O47   H75   S    
C3    C53   S    
O10   V2    S    
O32   H36   S    
O52   H80   S    
C96   H70   S    
C29   C78   S    
C10   C82   S    
C91   H57   S    
C11   C51   A    
C22   C30   A    
C32   C40   A    
C95   H67   S    
C66   O46   S    
O13   C5    A    
C90   H52   S    
C12   C84   S    
C36   C44   A    
C85   H13   S    
C70   O50   S    
C10   C50   A    
C13   C85   S    
O4    C1    A    
C9    C49   A    
O6    V2    S    
C39   C47   A    
O41   H45   S    
C59   C76   A    
C72   C80   A    
C58   C90   S    
C88   H22   S    
C93   H63   S    
C37   O33   S    
C84   H12   S    
C43   C51   A    
C13   C21   A    
O36   H40   S    
C14   C86   S    
C59   C67   A    
C58   C73   A    
C68   C76   A    
C15   C23   A    
C87   H19   S    
O21   H25   S    
C94   H66   S    
O9    C1    A    
C27   C76   S    
C24   C32   A    
C96   H72   S    
C26   C73   S    
C18   C26   A    
O2    C3    A    
C60   C75   A    
O13   V3    S    
C68   O48   S    
C65   C73   A    
C71   O51   S    
C32   C79   S    
O14   V4    S    
O1    C4    A    
O8    C5    A    
O22   H26   S    
C61   C93   S    
C60   C92   S    
C44   C52   A    
O7    C6    A    
C15   C87   S    
C81   H1    S    
C5    C51   S    
C28   C75   S    
C84   H10   S    
C58   C66   A    
C4    C54   S    
C9    C17   A    
C83   H9    S    
C84   H11   S    
C96   H71   S    
C57   C65   A    
C48   C56   A    
O40   H44   S    
O27   H31   S    
C35   O31   S    
C2    C56   S    
C8    C50   S    
C89   H49   S    
C86   H16   S    
O5    C8    A    
C33   O29   S    
O10   C2    A    
C20   O24   S    
O6    C7    A    
O20   V2    S    
C95   H68   S    
C11   C83   S    
C40   C48   A    
C92   H58   S    
C85   H14   S    
O4    V3    S    
C19   O23   S    
C34   O30   S    
C39   O35   S    
C65   O45   S    
C63   C80   A    
C69   O49   S    
C12   C52   A    
C27   C35   A    
C70   C78   A    
C28   C36   A    
C91   H55   S    
C24   O28   S    
C41   O37   S    
O30   H34   S    
C86   H17   S    
C88   H23   S    
C30   C38   A    
C60   C68   A    
C67   C75   A    
O29   H33   S    
O23   H27   S    
C62   C77   A    
C66   C74   A    
C61   C78   A    
C33   C41   A    
C90   H53   S    
C83   H8    S    
