data_mof_unit_42449.cif
_audit_creation_date              2012-12-10T17:23:11-0500
_audit_creation_method            fapswitch 2.2
_symmetry_space_group_name_H-M    P1
_symmetry_Int_Tables_number       1
_space_group_crystal_system       triclinic
_cell_length_a                    15.858361
_cell_length_b                    10.849636
_cell_length_c                    9.656462
_cell_angle_alpha                 90.305485
_cell_angle_beta                  89.744144
_cell_angle_gamma                 97.661382
_cell_volume                      1646.59951329

loop_
_atom_site_label
_atom_site_type_symbol
_atom_type_description
_atom_site_fract_x
_atom_site_fract_y
_atom_site_fract_z
_atom_type_partial_charge
C1    C     C_R   0.507987 0.264451 0.500720 0.893462
C2    C     C_3   0.082910 0.498260 0.502197 0.043708
C3    C     C_3   0.980789 0.600765 0.571349 -0.270443
C4    C     C_3   0.916825 0.500598 0.500290 0.014586
C5    C     C_3   0.036993 0.600303 0.441217 0.315736
C6    C     C_3   0.972641 0.502610 0.368643 -0.220785
C7    C     C_1   0.174716 0.499462 0.501660 0.019948
C8    C     C_1   0.825218 0.501191 0.499619 0.047200
C9    C     C_R   0.543473 0.126304 0.760243 -0.108865
C10   C     C_R   0.526199 0.065243 0.885706 -0.099285
C11   C     C_R   0.483803 0.944841 0.886620 -0.089585
C12   C     C_R   0.340219 0.502009 0.500251 0.899613
C13   C     C_R   0.466251 0.881494 0.761961 -0.151684
C14   C     C_R   0.491961 0.937944 0.633488 0.089136
C15   C     C_R   0.518018 0.067208 0.632896 0.111729
C16   C     C_R   0.516908 0.131738 0.505154 -0.136311
C17   C     C_R   0.512961 0.065278 0.380520 -0.141733
C18   C     C_R   0.504482 0.936943 0.380972 -0.193390
C19   C     C_R   0.493437 0.871510 0.505900 -0.104332
C20   C     C_R   0.616032 0.671681 0.143480 -0.173204
C21   C     C_R   0.672771 0.757560 0.072000 -0.228196
C22   C     C_R   0.672590 0.760087 0.927589 0.272021
C23   C     C_R   0.496076 0.737006 0.501280 0.741901
C24   C     C_R   0.615792 0.672272 0.856678 -0.167526
C25   C     C_R   0.557013 0.584159 0.925932 0.078387
C26   C     C_R   0.556796 0.584356 0.074298 0.129596
C27   C     C_R   0.442660 0.415903 0.075204 0.292673
C28   C     C_R   0.441911 0.416784 0.923612 0.350478
C29   C     C_R   0.660021 0.501392 0.499793 0.758227
C30   C     C_3   0.962124 0.397624 0.561938 0.525282
C31   C     C_3   0.018882 0.398122 0.431604 -0.227212
C32   C     C_1   0.250399 0.500818 0.500976 -0.138522
C33   C     C_1   0.749692 0.501411 0.499412 -0.126310
C34   C     C_3   0.027036 0.495978 0.633613 -0.223595
Cu1   Cu    Cu3+1 0.499990 0.499990 0.640660 0.999262
Cu2   Cu    Cu3+1 0.500010 0.500010 0.359340 1.002032
H1    H     H_    0.035132 0.314330 0.376473 0.189117
H2    H     H_    0.466184 0.899348 0.984041 0.145582
H3    H     H_    0.430134 0.790143 0.768795 0.173213
H4    H     H_    0.505809 0.889002 0.282422 0.167237
H5    H     H_    0.621012 0.676598 0.253483 0.203378
H6    H     H_    0.717263 0.821201 0.131024 0.157595
H7    H     H_    0.619293 0.676210 0.746672 0.189379
H8    H     H_    0.949878 0.506863 0.260456 0.171110
H9    H     H_    0.964690 0.684639 0.626491 0.173245
H10   H     H_    0.049870 0.491197 0.741710 0.194122
H11   H     H_    0.517048 0.112555 0.281919 0.192048
H12   H     H_    0.578998 0.218355 0.764841 0.158197
H13   H     H_    0.544212 0.112419 0.982305 0.143480
N1    N     N_R   0.500800 0.501210 0.147910 -0.267481
N2    N     N_R   0.500830 0.501290 0.852040 -0.274636
O1    O     O_R   0.499990 0.319640 0.618810 -0.535265
O2    O     O_R   0.500000 0.319660 0.381240 -0.522372
O3    O     O_R   0.379070 0.499980 0.618770 -0.505959
O4    O     O_R   0.379080 0.500000 0.381190 -0.540028
O5    O     O_R   0.500000 0.680340 0.618760 -0.622770
O6    O     O_R   0.500010 0.680360 0.381190 -0.604731
O7    O     O_R   0.620920 0.500000 0.618810 -0.596497
O8    O     O_R   0.620930 0.500020 0.381230 -0.598734
S1    S     S_3+6 0.368800 0.293954 0.162166 0.085817
O9    O     O_2   0.398278 0.171708 0.126307 -0.273778
O10   O     O_2   0.355653 0.289228 0.315123 -0.264734
O11   O     O_3   0.269208 0.295316 0.103942 -0.420845
H14   H     H_    0.251926 0.373849 0.140242 0.344375
N3    N     N_2   0.731247 0.846001 0.851114 -0.433688
H15   H     H_    0.722883 0.844009 0.745158 0.245199
C35   C     C_3   0.753049 0.970327 0.906887 -0.606403
H16   H     H_    0.790208 0.030060 0.828920 0.261763
H17   H     H_    0.793468 0.968628 0.000143 0.227620
H18   H     H_    0.694605 0.011843 0.932618 0.221717
S2    S     S_3+6 0.353256 0.318738 0.834108 0.093781
O12   O     O_2   0.335914 0.191637 0.896133 -0.186289
O13   O     O_2   0.276451 0.384421 0.855518 -0.288826
O14   O     O_3   0.352729 0.281601 0.665491 -0.494071
H19   H     H_    0.294049 0.241991 0.645358 0.369337
S3    S     S_3+6 0.910568 0.261019 0.643694 -0.014157
O15   O     O_2   0.861302 0.297417 0.767240 -0.308653
O16   O     O_2   0.850928 0.188823 0.542883 -0.313528
O17   O     O_3   0.984316 0.173306 0.694893 -0.513919
H20   H     H_    0.951804 0.101348 0.742537 0.369875
N4    N     N_2   0.080645 0.710715 0.376068 -0.419625
H21   H     H_    0.128669 0.755963 0.436507 0.260566
C36   C     C_3   0.025556 0.793574 0.319512 -0.615970
H22   H     H_    0.064604 0.871774 0.265944 0.248419
H23   H     H_    0.988597 0.831960 0.403692 0.224513
H24   H     H_    0.981199 0.743726 0.242904 0.228277

loop_
_geom_bond_atom_site_label_1
_geom_bond_atom_site_label_2
_ccdc_geom_bond_type
Cu1   Cu2   S    
S3    O17   S    
C4    C8    S    
Cu2   O8    S    
C20   H5    S    
C23   O5    A    
Cu1   O7    S    
S3    O16   D    
C27   S1    S    
C26   N1    A    
C5    C6    S    
C28   N2    A    
C15   C16   A    
C29   C33   S    
C30   S3    S    
S1    O10   D    
C18   C19   A    
C18   H4    S    
C1    O2    A    
Cu2   O2    S    
C2    C7    S    
C29   O8    A    
C16   C17   A    
N3    C35   S    
C34   H10   S    
C9    C10   A    
C27   N1    A    
C2    C34   S    
C6    C31   S    
C6    H8    S    
C21   C22   A    
C12   C32   S    
Cu1   O3    S    
N4    C36   S    
N4    H21   S    
O14   H19   S    
C30   C34   S    
C35   H16   S    
S3    O15   D    
C4    C6    S    
Cu2   O6    S    
S2    O13   D    
C3    C34   S    
C25   C26   A    
C3    H9    S    
O11   H14   S    
S1    O9    D    
C35   H17   S    
C11   H2    S    
C19   C23   S    
C25   N2    A    
C22   N3    S    
C5    N4    S    
C36   H22   S    
C20   C21   A    
C17   C18   A    
C1    C16   S    
C24   C25   A    
C36   H23   S    
S1    O11   S    
Cu1   N2    S    
C22   C24   A    
O17   H20   S    
C2    C5    S    
C3    C4    S    
Cu1   O1    S    
Cu2   N1    S    
C23   O6    A    
C7    C32   T    
Cu1   O5    S    
C14   C19   A    
C17   H11   S    
C3    C5    S    
S2    O14   S    
C35   H18   S    
C9    C15   A    
S2    O12   D    
Cu2   O4    S    
C11   C13   A    
C30   C31   S    
C20   C26   A    
C8    C33   T    
C1    O1    A    
C4    C30   S    
C13   H3    S    
C12   O4    A    
C10   C11   A    
C21   H6    S    
C28   S2    S    
C31   H1    S    
C36   H24   S    
C29   O7    A    
C9    H12   S    
N3    H15   S    
C27   C28   A    
C24   H7    S    
C14   C15   A    
C2    C31   S    
C13   C14   A    
C10   H13   S    
C12   O3    A    
