data_mof_unit_44051.cif
_audit_creation_date              2012-12-10T17:57:53-0500
_audit_creation_method            fapswitch 2.2
_symmetry_space_group_name_H-M    P1
_symmetry_Int_Tables_number       1
_space_group_crystal_system       triclinic
_cell_length_a                    10.948862
_cell_length_b                    9.657227
_cell_length_c                    15.02186
_cell_angle_alpha                 90.259999
_cell_angle_beta                  90.697627
_cell_angle_gamma                 89.280609
_cell_volume                      1588.0878702

loop_
_atom_site_label
_atom_site_type_symbol
_atom_type_description
_atom_site_fract_x
_atom_site_fract_y
_atom_site_fract_z
_atom_type_partial_charge
C1    C     C_R   0.262410 0.500811 0.500597 0.805107
C2    C     C_R   0.737096 0.499760 0.494458 0.800048
C3    C     C_R   0.276423 0.475114 0.044935 -0.199625
C4    C     C_R   0.720188 0.469144 0.954869 -0.213685
C5    C     C_R   0.062671 0.378560 0.509803 -0.071701
C6    C     C_R   0.934562 0.627079 0.477243 -0.078234
C7    C     C_R   0.938471 0.376126 0.489926 -0.082741
C8    C     C_R   0.062138 0.626122 0.476876 -0.085244
C9    C     C_R   0.871251 0.501010 0.486626 -0.116591
C10   C     C_R   0.127773 0.502579 0.497665 -0.123867
C11   C     C_R   0.450687 0.075200 0.430305 0.362859
C12   C     C_R   0.540402 0.927380 0.572855 0.362251
C13   C     C_R   0.552030 0.074529 0.568628 0.366807
C14   C     C_R   0.462182 0.927832 0.426401 0.395780
C15   C     C_R   0.502679 0.499117 0.329466 0.858202
C16   C     C_R   0.495529 0.500023 0.670443 0.896608
C17   C     C_R   0.608528 0.484370 0.812916 -0.150328
C18   C     C_R   0.388408 0.491914 0.186831 -0.138487
C19   C     C_R   0.496386 0.497954 0.767000 -0.176765
C20   C     C_R   0.500851 0.494887 0.232860 -0.184751
C21   C     C_R   0.384730 0.502401 0.812284 0.361070
C22   C     C_R   0.611727 0.483654 0.187307 0.363808
C23   C     C_R   0.385335 0.487012 0.905537 0.007850
C24   C     C_R   0.610747 0.477341 0.094026 0.024521
C25   C     C_R   0.497875 0.482721 0.952772 0.027157
C26   C     C_R   0.498428 0.481381 0.046788 0.016812
C27   C     C_R   0.609788 0.479209 0.906417 0.061055
C28   C     C_R   0.386736 0.483507 0.093294 0.059330
C29   C     C_R   0.276164 0.473641 0.952536 -0.200155
C30   C     C_R   0.720433 0.467297 0.047174 -0.175970
Cu1   Cu    Cu3+1 0.500000 0.640660 0.500000 1.023078
Cu2   Cu    Cu3+1 0.500000 0.359340 0.500000 1.036920
H1    H     H_    0.189565 0.460782 0.918519 0.167136
H2    H     H_    0.807546 0.459376 0.081496 0.182771
H3    H     H_    0.189357 0.469085 0.078023 0.151248
H4    H     H_    0.807541 0.463365 0.921978 0.154328
N1    N     N_R   0.500000 0.852070 0.500000 -0.278722
N2    N     N_R   0.500000 0.147930 0.500000 -0.276348
O1    O     O_R   0.319640 0.618740 0.499990 -0.575802
O2    O     O_R   0.680360 0.381260 0.500010 -0.578541
O3    O     O_R   0.680360 0.618740 0.500010 -0.568917
O4    O     O_R   0.319640 0.381260 0.499990 -0.592393
O5    O     O_R   0.499970 0.618800 0.370260 -0.560135
O6    O     O_R   0.500030 0.381200 0.629740 -0.526530
O7    O     O_R   0.500030 0.618800 0.629740 -0.551780
O8    O     O_R   0.499970 0.381200 0.370260 -0.523070
C31   C     C_1   0.721816 0.480908 0.763369 0.250369
N3    N     N_1   0.811973 0.478467 0.723915 -0.309936
C32   C     C_1   0.275804 0.500963 0.236408 0.246981
N4    N     N_1   0.186398 0.508462 0.276365 -0.337680
O9    O     O_3   0.276324 0.515281 0.763502 -0.587790
C33   C     C_3   0.218834 0.645146 0.780900 0.047305
H5    H     H_    0.282146 0.725371 0.807141 0.120515
H6    H     H_    0.145100 0.632701 0.830002 0.159721
C34   C     C_3   0.158570 0.699592 0.696221 -0.779162
H7    H     H_    0.111499 0.799813 0.709973 0.208276
H8    H     H_    0.228317 0.716268 0.644745 0.248106
H9    H     H_    0.090145 0.624425 0.671341 0.265207
O10   O     O_3   0.720783 0.468553 0.234121 -0.584852
C35   C     C_3   0.772294 0.600120 0.249167 -0.002097
H10   H     H_    0.741483 0.639649 0.314584 0.161613
H11   H     H_    0.748123 0.677957 0.196823 0.134175
C36   C     C_3   0.910587 0.585484 0.252230 -0.725339
H12   H     H_    0.945703 0.556839 0.185589 0.229843
H13   H     H_    0.951835 0.685192 0.272959 0.212944
H14   H     H_    0.938179 0.503758 0.300360 0.270505
C37   C     C_1   0.118047 0.255002 0.548501 0.270546
N5    N     N_1   0.161328 0.156755 0.580313 -0.304156
C38   C     C_1   0.870607 0.756999 0.459859 0.275782
N6    N     N_1   0.818693 0.859554 0.445477 -0.298352
C39   C     C_1   0.886380 0.247866 0.458302 0.252057
N7    N     N_1   0.844667 0.146690 0.430987 -0.271049
C40   C     C_1   0.122810 0.753692 0.454495 0.320144
N8    N     N_1   0.170429 0.855715 0.436577 -0.283799
O11   O     O_3   0.405076 0.145049 0.356610 -0.553452
C41   C     C_3   0.276114 0.154188 0.358721 0.165899
H15   H     H_    0.249181 0.264895 0.362122 0.174665
H16   H     H_    0.234142 0.102109 0.416284 0.148468
C42   C     C_3   0.221496 0.095988 0.273023 -0.790243
H17   H     H_    0.238292 0.982677 0.269021 0.281574
H18   H     H_    0.121272 0.115266 0.271751 0.213194
H19   H     H_    0.262266 0.147199 0.214561 0.243904
O12   O     O_3   0.576784 0.861763 0.650428 -0.533130
C43   C     C_3   0.488892 0.889565 0.717209 0.130324
H20   H     H_    0.408197 0.823949 0.705271 0.147847
H21   H     H_    0.455539 0.998981 0.718797 0.158268
C44   C     C_3   0.542882 0.857378 0.808901 -0.804591
H22   H     H_    0.597059 0.946126 0.833685 0.239739
H23   H     H_    0.468715 0.838992 0.856997 0.193410
H24   H     H_    0.603105 0.764616 0.806050 0.264524
O13   O     O_3   0.606238 0.144084 0.639169 -0.550971
C45   C     C_3   0.734916 0.127531 0.637091 0.161082
H25   H     H_    0.774643 0.227793 0.618129 0.178137
H26   H     H_    0.768661 0.046582 0.589836 0.147949
C46   C     C_3   0.784378 0.092602 0.729460 -0.797077
H27   H     H_    0.766443 0.982672 0.744867 0.263226
H28   H     H_    0.884779 0.107672 0.731580 0.210442
H29   H     H_    0.741481 0.160694 0.780359 0.255870
O14   O     O_3   0.431266 0.862854 0.347378 -0.527860
C47   C     C_3   0.523471 0.887623 0.283711 0.145489
H30   H     H_    0.601383 0.815732 0.295344 0.130210
H31   H     H_    0.560988 0.994283 0.285898 0.162444
C48   C     C_3   0.472874 0.864135 0.190107 -0.808707
H32   H     H_    0.414419 0.953337 0.169635 0.247733
H33   H     H_    0.549138 0.853521 0.142371 0.196608
H34   H     H_    0.417457 0.769198 0.187474 0.260784

loop_
_geom_bond_atom_site_label_1
_geom_bond_atom_site_label_2
_ccdc_geom_bond_type
C6    C38   S    
C34   H7    S    
C36   H13   S    
C40   N8    T    
C46   H27   S    
C43   C44   S    
C21   O9    S    
C5    C37   S    
C6    C9    A    
C4    H4    S    
C46   H29   S    
C14   O14   S    
Cu1   O5    S    
C35   C36   S    
C23   C29   A    
C45   H25   S    
C3    C28   A    
C19   C21   A    
C24   C26   A    
C7    C39   S    
C11   C14   A    
C2    O3    A    
C29   H1    S    
C35   H11   S    
C12   N1    A    
C3    C29   A    
C47   H30   S    
O12   C43   S    
C41   C42   S    
Cu2   N2    S    
C16   O6    A    
C33   C34   S    
Cu2   O2    S    
C36   H14   S    
O10   C35   S    
C13   O13   S    
C47   H31   S    
C33   H6    S    
C15   C20   S    
C30   H2    S    
O9    C33   S    
C17   C27   A    
C31   N3    T    
C18   C28   A    
C41   H15   S    
O13   C45   S    
C42   H18   S    
C6    C8    A    
C25   C26   A    
C47   C48   S    
C37   N5    T    
C12   O12   S    
C35   H10   S    
C11   N2    A    
O11   C41   S    
C2    O2    A    
Cu1   Cu2   S    
C3    H3    S    
C45   H26   S    
Cu2   O6    S    
C48   H33   S    
C43   H20   S    
C13   N2    A    
C20   C22   A    
C34   H8    S    
C22   C24   A    
C34   H9    S    
C45   C46   S    
C22   O10   S    
C4    C27   A    
C33   H5    S    
C5    C7    A    
C7    C9    A    
Cu1   O3    S    
Cu2   O8    S    
C1    C10   S    
C17   C31   S    
C41   H16   S    
C36   H12   S    
C16   O7    A    
C42   H19   S    
C46   H28   S    
C25   C27   A    
C26   C28   A    
O14   C47   S    
C21   C23   A    
C15   O5    A    
C39   N7    T    
C11   O11   S    
C14   N1    A    
C16   C19   S    
C8    C40   S    
C17   C19   A    
Cu1   O1    S    
C48   H34   S    
C18   C20   A    
C23   C25   A    
C38   N6    T    
C24   C30   A    
C1    O1    A    
C42   H17   S    
Cu1   N1    S    
C1    O4    A    
C5    C10   A    
C12   C13   A    
C44   H22   S    
C8    C10   A    
C32   N4    T    
Cu1   O7    S    
C44   H24   S    
C48   H32   S    
C44   H23   S    
Cu2   O4    S    
C43   H21   S    
C15   O8    A    
C2    C9    S    
C4    C30   A    
C18   C32   S    
