data_mof_unit_56524.cif
_audit_creation_date              2012-12-10T18:03:17-0500
_audit_creation_method            fapswitch 2.2
_symmetry_space_group_name_H-M    P1
_symmetry_Int_Tables_number       1
_space_group_crystal_system       triclinic
_cell_length_a                    10.826366
_cell_length_b                    9.597825
_cell_length_c                    15.108386
_cell_angle_alpha                 90.000556
_cell_angle_beta                  91.953692
_cell_angle_gamma                 89.999747
_cell_volume                      1568.9932612

loop_
_atom_site_label
_atom_site_type_symbol
_atom_type_description
_atom_site_fract_x
_atom_site_fract_y
_atom_site_fract_z
_atom_type_partial_charge
C1    C     C_R   0.262298 0.500004 0.499905 0.810072
C2    C     C_R   0.737702 0.500003 0.500093 0.810138
C3    C     C_R   0.499828 0.500081 0.330104 0.870331
C4    C     C_R   0.500172 0.500081 0.669903 0.870529
C5    C     C_R   0.420919 0.073993 0.444641 0.357895
C6    C     C_R   0.578566 0.925866 0.555746 0.356909
C7    C     C_R   0.579079 0.073995 0.555361 0.357732
C8    C     C_R   0.421432 0.925864 0.444256 0.357034
C9    C     C_R   0.063882 0.373425 0.500017 -0.148153
C10   C     C_R   0.936114 0.626617 0.499998 -0.149826
C11   C     C_R   0.936119 0.373424 0.499981 -0.148099
C12   C     C_R   0.063885 0.626617 0.499994 -0.149844
C13   C     C_R   0.558840 0.609419 0.096718 0.501590
C14   C     C_R   0.560658 0.393139 0.907174 0.491086
C15   C     C_R   0.442075 0.610022 0.903340 0.501182
C16   C     C_R   0.438492 0.393775 0.092833 0.491512
C17   C     C_R   0.554756 0.610719 0.188879 -0.256009
C18   C     C_R   0.555460 0.390844 0.814341 -0.270152
C19   C     C_R   0.446149 0.611274 0.811178 -0.255859
C20   C     C_R   0.443665 0.391423 0.185664 -0.269854
C21   C     C_R   0.499479 0.500653 0.233525 -0.169401
C22   C     C_R   0.500533 0.500649 0.766496 -0.169615
C23   C     C_R   0.499410 0.501558 0.048578 -0.044964
C24   C     C_R   0.500629 0.501552 0.951453 -0.044812
C25   C     C_R   0.871670 0.500016 0.500039 -0.038992
C26   C     C_R   0.128329 0.500016 0.499957 -0.038978
Cu1   Cu    Cu3+1 0.500000 0.640660 0.500000 1.048772
Cu2   Cu    Cu3+1 0.500000 0.359340 0.500000 1.048544
H1    H     H_    0.598092 0.695786 0.225454 0.187490
H2    H     H_    0.595577 0.304498 0.779586 0.221238
H3    H     H_    0.403505 0.696799 0.774635 0.187904
H4    H     H_    0.402815 0.305522 0.220405 0.221197
H5    H     H_    0.111831 0.274389 0.500133 0.195178
H6    H     H_    0.888148 0.725648 0.499929 0.192638
H7    H     H_    0.888171 0.274389 0.499868 0.195199
H8    H     H_    0.111849 0.725649 0.500061 0.192618
N1    N     N_R   0.500000 0.852070 0.500000 -0.278907
N2    N     N_R   0.500000 0.147930 0.500000 -0.270620
O1    O     O_R   0.319640 0.618740 0.499990 -0.555509
O2    O     O_R   0.680360 0.381260 0.500010 -0.550439
O3    O     O_R   0.680360 0.618740 0.500010 -0.555476
O4    O     O_R   0.319640 0.381260 0.499990 -0.550504
O5    O     O_R   0.499990 0.618780 0.371460 -0.541288
O6    O     O_R   0.500010 0.381220 0.628540 -0.546013
O7    O     O_R   0.500010 0.618780 0.628540 -0.541477
O8    O     O_R   0.499990 0.381220 0.371460 -0.545884
Cl1   Cl    Cl    0.315856 0.161317 0.372430 -0.578412
Cl2   Cl    Cl    0.681067 0.838122 0.629795 -0.533445
Cl3   Cl    Cl    0.684137 0.161324 0.627578 -0.578653
Cl4   Cl    Cl    0.318928 0.838119 0.370209 -0.533204
O9    O     O_3   0.616223 0.717118 0.053382 -0.519257
C27   C     C_3   0.743969 0.688948 0.052896 -0.283587
H9    H     H_    0.762918 0.588645 0.018910 0.142583
H10   H     H_    0.785682 0.688302 0.121252 0.153335
H11   H     H_    0.789655 0.772850 0.015554 0.204016
O10   O     O_3   0.616251 0.286434 0.956225 -0.529595
C28   C     C_3   0.739771 0.267331 0.931661 -0.264741
H12   H     H_    0.789097 0.368004 0.922640 0.127783
H13   H     H_    0.743761 0.202564 0.870915 0.202079
H14   H     H_    0.789877 0.209916 0.985539 0.191476
O11   O     O_3   0.385606 0.718324 0.946711 -0.519123
C29   C     C_3   0.257601 0.691647 0.947069 -0.282594
H15   H     H_    0.237677 0.591485 0.980912 0.142293
H16   H     H_    0.215982 0.691667 0.878686 0.153220
H17   H     H_    0.212639 0.775984 0.984484 0.204348
O12   O     O_3   0.382017 0.287658 0.043769 -0.529465
C30   C     C_3   0.258276 0.270067 0.068226 -0.266155
H18   H     H_    0.209857 0.371336 0.077110 0.127975
H19   H     H_    0.253574 0.205523 0.129023 0.201727
H20   H     H_    0.207747 0.213093 0.014352 0.191283

loop_
_geom_bond_atom_site_label_1
_geom_bond_atom_site_label_2
_ccdc_geom_bond_type
C5    C8    A    
C14   O10   S    
C23   C24   S    
Cu2   O2    S    
C6    C7    A    
C18   H2    S    
C8    Cl4   S    
C17   H1    S    
C12   H8    S    
C4    C22   S    
C1    C26   S    
C14   C18   A    
C3    O8    A    
C27   H11   S    
C13   C17   A    
C16   C20   A    
C30   H20   S    
C19   H3    S    
C16   C23   A    
Cu1   O7    S    
C11   H7    S    
O12   C30   S    
C15   O11   S    
C6    N1    A    
C10   H6    S    
C13   O9    S    
C5    N2    A    
C20   C21   A    
C15   C19   A    
C5    Cl1   S    
Cu2   O8    S    
C28   H12   S    
C29   H15   S    
C6    Cl2   S    
C9    H5    S    
C3    O5    A    
C10   C25   A    
Cu2   O4    S    
C15   C24   A    
C7    N2    A    
C27   H10   S    
C9    C26   A    
C2    C25   S    
C10   C12   A    
C4    O7    A    
C9    C11   A    
O11   C29   S    
C3    C21   S    
C28   H13   S    
C8    N1    A    
C1    O1    A    
C2    O3    A    
Cu1   O1    S    
C30   H18   S    
C2    O2    A    
C1    O4    A    
C19   C22   A    
C16   O12   S    
C27   H9    S    
C13   C23   A    
C7    Cl3   S    
C20   H4    S    
C14   C24   A    
Cu1   Cu2   S    
O10   C28   S    
Cu1   O5    S    
C11   C25   A    
Cu1   N1    S    
C28   H14   S    
C29   H16   S    
C4    O6    A    
C29   H17   S    
Cu2   N2    S    
C18   C22   A    
Cu2   O6    S    
C17   C21   A    
O9    C27   S    
C12   C26   A    
Cu1   O3    S    
C30   H19   S    
