data_mof_unit_56578.cif
_audit_creation_date              2012-12-10T18:09:55-0500
_audit_creation_method            fapswitch 2.2
_symmetry_space_group_name_H-M    P1
_symmetry_Int_Tables_number       1
_space_group_crystal_system       triclinic
_cell_length_a                    10.636325
_cell_length_b                    12.612261
_cell_length_c                    13.13367
_cell_angle_alpha                 82.687045
_cell_angle_beta                  89.858545
_cell_angle_gamma                 102.564446
_cell_volume                      1704.84777308

loop_
_atom_site_label
_atom_site_type_symbol
_atom_type_description
_atom_site_fract_x
_atom_site_fract_y
_atom_site_fract_z
_atom_type_partial_charge
C1    C     C_R   0.490647 0.438954 0.691132 0.842653
C2    C     C_R   0.507082 0.446581 0.973557 0.088436
C3    C     C_R   0.549597 0.468090 0.869977 0.091937
C4    C     C_R   0.741927 0.500073 0.500369 0.856031
C5    C     C_R   0.545205 0.530238 0.036389 0.090631
C6    C     C_R   0.639600 0.626073 0.000114 0.184358
C7    C     C_R   0.695478 0.637135 0.902255 -0.246393
C8    C     C_R   0.651659 0.558510 0.838077 -0.208168
C9    C     C_R   0.490187 0.521873 0.133965 -0.243569
C10   C     C_R   0.629507 0.693230 0.163932 -0.161903
C11   C     C_R   0.487221 0.399273 0.800534 -0.117992
C12   C     C_3   0.121192 0.498038 0.501074 0.144250
C13   C     C_R   0.328233 0.087562 0.345550 -0.304338
C14   C     C_R   0.657403 0.798765 0.625205 -0.052654
C15   C     C_R   0.696171 0.903306 0.651343 -0.348108
C16   C     C_R   0.514529 0.560979 0.308778 0.887800
C17   C     C_R   0.638733 0.987421 0.607217 0.482920
C18   C     C_R   0.542841 0.965036 0.531431 -0.100743
C19   C     C_R   0.510363 0.855968 0.505976 0.174945
C20   C     C_R   0.478445 0.043679 0.478455 0.001102
C21   C     C_R   0.390613 0.012280 0.400020 0.195731
C22   C     C_R   0.364815 0.905941 0.376240 -0.293033
C23   C     C_3   0.096078 0.585620 0.414270 -0.428436
C24   C     C_R   0.423235 0.829229 0.428834 -0.185079
C25   C     C_R   0.494613 0.152198 0.499550 -0.037319
C26   C     C_R   0.351880 0.193613 0.368999 0.010877
C27   C     C_R   0.257972 0.498922 0.501079 0.831179
C28   C     C_3   0.899000 0.383100 0.486102 -0.351509
C29   C     C_3   0.041886 0.383816 0.482588 -0.389626
C30   C     C_3   0.951332 0.584848 0.411428 -0.001443
C31   C     C_3   0.934589 0.528541 0.604162 -0.473875
C32   C     C_3   0.878633 0.499322 0.499814 0.117750
C33   C     C_3   0.655369 0.102260 0.730150 0.067904
C34   C     C_3   0.078023 0.524854 0.605932 -0.385804
C35   C     C_3   0.710480 0.218702 0.752143 -0.848486
C36   C     C_R   0.678526 0.708286 0.063345 -0.179260
C37   C     C_R   0.539115 0.597230 0.199942 -0.052743
C38   C     C_R   0.407249 0.297502 0.837165 -0.203136
C39   C     C_R   0.381722 0.267957 0.941794 -0.155458
C40   C     C_R   0.427965 0.342549 0.009641 -0.179268
H1    H     H_    0.855572 0.355334 0.414435 0.217420
H2    H     H_    0.402876 0.315611 0.089809 0.131748
H3    H     H_    0.321047 0.188943 0.970049 0.140853
H4    H     H_    0.851274 0.322146 0.551124 0.205540
H5    H     H_    0.699012 0.568327 0.763457 0.148246
H6    H     H_    0.305672 0.253574 0.327321 0.125568
H7    H     H_    0.298301 0.881506 0.316679 0.154437
H8    H     H_    0.262140 0.064572 0.285374 0.142786
H9    H     H_    0.552821 0.185352 0.558690 0.199969
H10   H     H_    0.703232 0.734877 0.658926 0.151625
H11   H     H_    0.773541 0.919662 0.704477 0.156596
H12   H     H_    0.135411 0.605393 0.622554 0.189494
H13   H     H_    0.399720 0.749190 0.406247 0.210573
H14   H     H_    0.061584 0.318933 0.542339 0.184440
H15   H     H_    0.068810 0.364013 0.406306 0.189911
H16   H     H_    0.132066 0.569567 0.339394 0.181065
H17   H     H_    0.923921 0.611957 0.616317 0.180789
H18   H     H_    0.881321 0.469798 0.668540 0.169706
H19   H     H_    0.093934 0.461517 0.668776 0.167173
H20   H     H_    0.693857 0.045625 0.787561 0.148981
H21   H     H_    0.548454 0.085445 0.740095 0.135526
H22   H     H_    0.674457 0.278336 0.696641 0.251712
H23   H     H_    0.938015 0.667870 0.422364 0.146483
H24   H     H_    0.680903 0.228105 0.831064 0.227634
H25   H     H_    0.817376 0.236821 0.745709 0.250369
H26   H     H_    0.150090 0.668541 0.427505 0.165876
H27   H     H_    0.668137 0.752535 0.214984 0.165650
H28   H     H_    0.771534 0.707348 0.874688 0.138928
H29   H     H_    0.750849 0.781472 0.036595 0.135220
H30   H     H_    0.412299 0.454327 0.162667 0.138631
H31   H     H_    0.361276 0.242233 0.784794 0.157618
I1    I     I_    0.879871 0.556761 0.261027 -0.446846
N1    N     N_R   0.433240 0.222190 0.444680 -0.115332
N2    N     N_R   0.566070 0.776970 0.554790 -0.122250
O1    O     O_R   0.468120 0.366740 0.627160 -0.627362
O2    O     O_R   0.510770 0.544830 0.662520 -0.606353
O3    O     O_R   0.663880 0.410950 0.482330 -0.611488
O4    O     O_R   0.706530 0.589040 0.517700 -0.632595
O5    O     O_R   0.489230 0.455170 0.337480 -0.599943
O6    O     O_R   0.531880 0.633260 0.372840 -0.634959
O7    O     O_R   0.293470 0.410960 0.482300 -0.627419
O8    O     O_R   0.336120 0.589050 0.517670 -0.639210
O9    O     O_3   0.691255 0.092207 0.628538 -0.636592
Zn1   Zn    Zn3+2 0.471520 0.381090 0.476390 0.941648
Zn2   Zn    Zn3+2 0.528480 0.618910 0.523610 0.927974

loop_
_geom_bond_atom_site_label_1
_geom_bond_atom_site_label_2
_ccdc_geom_bond_type
C12   C29   S    
C1    C11   S    
C7    C8    A    
C10   H27   S    
C4    O4    A    
C12   C23   S    
C10   C37   A    
C5    C6    A    
C14   N2    A    
C31   H18   S    
C28   C29   S    
O5    Zn1   S    
O1    Zn1   S    
C20   C25   A    
C35   H25   S    
C28   H1    S    
C26   N1    A    
C18   C19   A    
C8    H5    S    
C7    H28   S    
C35   H24   S    
C15   H11   S    
N1    Zn1   S    
C18   C20   A    
C16   C37   S    
C40   H2    S    
C22   H7    S    
C21   C22   A    
C27   O8    A    
C38   C39   A    
C12   C27   S    
C1    O1    A    
C23   C30   S    
C28   C32   S    
C9    H30   S    
C3    C8    A    
C39   C40   A    
C39   H3    S    
C29   H15   S    
O3    Zn1   S    
C24   H13   S    
C28   H4    S    
C16   O6    A    
C11   C38   A    
C5    C9    A    
O6    Zn2   S    
C31   C32   S    
C27   O7    A    
C9    C37   A    
C17   C18   A    
C31   C34   S    
C13   C21   A    
C33   O9    S    
C23   H16   S    
C4    C32   S    
O4    Zn2   S    
C33   H20   S    
C34   H19   S    
C22   C24   A    
C13   C26   A    
C2    C5    A    
C12   C34   S    
O7    Zn1   S    
C36   H29   S    
C23   H26   S    
C15   C17   A    
C38   H31   S    
C1    O2    A    
C19   N2    A    
C13   H8    S    
C30   I1    S    
C6    C7    A    
O8    Zn2   S    
C34   H12   S    
C16   O5    A    
C31   H17   S    
C2    C3    A    
C4    O3    A    
C30   C32   S    
C14   H10   S    
C33   C35   S    
C6    C36   A    
C19   C24   A    
C35   H22   S    
C25   N1    A    
N2    Zn2   S    
C25   H9    S    
C3    C11   A    
C26   H6    S    
C2    C40   A    
C20   C21   A    
C33   H21   S    
C29   H14   S    
C14   C15   A    
C10   C36   A    
C17   O9    S    
C30   H23   S    
O2    Zn2   S    
