data_mof_unit_29644.cif
_audit_creation_date              2013-03-05T15:46:19-0500
_audit_creation_method            fapswitch 2.2
_symmetry_space_group_name_H-M    P1
_symmetry_Int_Tables_number       1
_space_group_crystal_system       triclinic
_cell_length_a                    17.330467
_cell_length_b                    24.200444
_cell_length_c                    14.894589
_cell_angle_alpha                 89.99408
_cell_angle_beta                  126.165978
_cell_angle_gamma                 89.995247
_cell_volume                      5043.16193899

loop_
_atom_site_label
_atom_site_type_symbol
_atom_site_description
_atom_site_fract_x
_atom_site_fract_y
_atom_site_fract_z
_atom_type_partial_charge
C1    C     C_R   0.853282 0.653854 0.909681 -0.144294
C2    C     C_R   0.191291 0.374159 0.093391 -0.088602
C3    C     C_R   0.191382 0.625701 0.093470 -0.088642
C4    C     C_R   0.853266 0.346162 0.909679 -0.143838
C5    C     C_R   0.354548 0.154267 0.909889 -0.141050
C6    C     C_R   0.691821 0.875283 0.092124 -0.087987
C7    C     C_R   0.691740 0.124815 0.092085 -0.088053
C8    C     C_R   0.354560 0.845734 0.909933 -0.141292
H1    H     H_    0.816426 0.668393 0.825253 0.108299
H2    H     H_    0.250505 0.369179 0.179459 0.103477
H3    H     H_    0.250641 0.630485 0.179603 0.103471
H4    H     H_    0.816342 0.331654 0.825230 0.108495
H5    H     H_    0.316955 0.168773 0.825312 0.106355
H6    H     H_    0.751507 0.870080 0.177951 0.104003
H7    H     H_    0.751365 0.130152 0.177871 0.103958
H8    H     H_    0.317004 0.831214 0.825379 0.106237
N1    N     N_R   0.892620 0.603790 0.941800 -0.048269
N2    N     N_R   0.107380 0.396210 0.058200 -0.046359
N3    N     N_R   0.107380 0.603790 0.058200 -0.046101
N4    N     N_R   0.892620 0.396210 0.941800 -0.047951
N5    N     N_R   0.392620 0.103790 0.941800 -0.046837
N6    N     N_R   0.607380 0.896210 0.058200 -0.044769
N7    N     N_R   0.607380 0.103790 0.058200 -0.044914
N8    N     N_R   0.392620 0.896210 0.941800 -0.046988
C9    C     C_R   0.943628 0.349251 0.094566 -0.082047
C10   C     C_R   0.094707 0.627737 0.907522 -0.067036
C11   C     C_R   0.094626 0.372219 0.907470 -0.067018
C12   C     C_R   0.943612 0.650743 0.094559 -0.081520
C13   C     C_R   0.446531 0.848480 0.094451 -0.112687
C14   C     C_R   0.594920 0.125142 0.905756 -0.073176
C15   C     C_R   0.594953 0.874888 0.905782 -0.073182
C16   C     C_R   0.446547 0.151527 0.094415 -0.113050
H9    H     H_    0.986477 0.338618 0.181466 0.150584
H10   H     H_    0.063814 0.638448 0.822742 0.125770
H11   H     H_    0.063689 0.361521 0.822681 0.125852
H12   H     H_    0.986452 0.661365 0.181456 0.150507
H13   H     H_    0.492247 0.837228 0.180880 0.156911
H14   H     H_    0.563543 0.132397 0.819380 0.143622
H15   H     H_    0.563562 0.867622 0.819414 0.143778
H16   H     H_    0.492286 0.162776 0.180834 0.157061
N9    N     N_R   0.952210 0.397600 0.057910 -0.053581
N10   N     N_R   0.047790 0.602400 0.942090 -0.055953
N11   N     N_R   0.047790 0.397600 0.942090 -0.055884
N12   N     N_R   0.952210 0.602400 0.057910 -0.053564
N13   N     N_R   0.452210 0.897600 0.057910 -0.053078
N14   N     N_R   0.547790 0.102400 0.942090 -0.057476
N15   N     N_R   0.547790 0.897600 0.942090 -0.057518
N16   N     N_R   0.452210 0.102400 0.057910 -0.053093
C17   C     C_R   0.054493 0.546187 0.306293 -0.119046
C18   C     C_R   0.973324 0.453766 0.708469 -0.073313
C19   C     C_R   0.973349 0.546245 0.708482 -0.072861
C20   C     C_R   0.054504 0.453794 0.306291 -0.118499
C21   C     C_R   0.481587 0.046446 0.249994 -0.104129
C22   C     C_R   0.448285 0.953942 0.693993 -0.061882
C23   C     C_R   0.448287 0.046071 0.693990 -0.062330
C24   C     C_R   0.481583 0.953560 0.249995 -0.104524
H17   H     H_    0.070756 0.588784 0.332711 0.107089
H18   H     H_    0.963352 0.411559 0.680588 0.092621
H19   H     H_    0.963414 0.588458 0.680617 0.092644
H20   H     H_    0.070784 0.411192 0.332704 0.107139
H21   H     H_    0.471438 0.089152 0.260905 0.106595
H22   H     H_    0.429272 0.911744 0.665639 0.090214
H23   H     H_    0.429278 0.088273 0.665629 0.090066
H24   H     H_    0.471429 0.910856 0.260912 0.106598
N17   N     N_R   0.026300 0.529110 0.206760 -0.043956
N18   N     N_R   0.973700 0.470890 0.793240 -0.045706
N19   N     N_R   0.973700 0.529110 0.793240 -0.045742
N20   N     N_R   0.026300 0.470890 0.206760 -0.044187
N21   N     N_R   0.526300 0.029110 0.206760 -0.045573
N22   N     N_R   0.473700 0.970890 0.793240 -0.046627
N23   N     N_R   0.473700 0.029110 0.793240 -0.046542
N24   N     N_R   0.526300 0.970890 0.206760 -0.045548
C25   C     C_R   0.731687 0.454338 0.755666 -0.128350
C26   C     C_R   0.259425 0.545489 0.302920 -0.147551
C27   C     C_R   0.259620 0.454128 0.302031 -0.136361
C28   C     C_R   0.731788 0.546008 0.754797 -0.116366
C29   C     C_R   0.231912 0.954082 0.755486 -0.124284
C30   C     C_R   0.760352 0.045809 0.301356 -0.134017
C31   C     C_R   0.760221 0.954387 0.301928 -0.140155
C32   C     C_R   0.231855 0.045731 0.756033 -0.130962
H25   H     H_    0.708826 0.411680 0.740128 0.116038
H26   H     H_    0.273071 0.587689 0.332452 0.113012
H27   H     H_    0.272708 0.411829 0.330921 0.106838
H28   H     H_    0.709430 0.588750 0.738913 0.110467
H29   H     H_    0.209442 0.911354 0.739617 0.111765
H30   H     H_    0.773920 0.088085 0.330438 0.112708
H31   H     H_    0.774104 0.912164 0.331391 0.116134
H32   H     H_    0.209092 0.088415 0.740394 0.114936
N25   N     N_R   0.818530 0.472270 0.792960 -0.046263
N26   N     N_R   0.181470 0.527730 0.207040 -0.038541
N27   N     N_R   0.181470 0.472270 0.207040 -0.038993
N28   N     N_R   0.818530 0.527730 0.792960 -0.046397
N29   N     N_R   0.318530 0.972270 0.792960 -0.048218
N30   N     N_R   0.681470 0.027730 0.207040 -0.041013
N31   N     N_R   0.681470 0.972270 0.207040 -0.040821
N32   N     N_R   0.318530 0.027730 0.792960 -0.048177
C33   C     C_R   0.885350 0.685229 0.003589 0.110957
C34   C     C_R   0.187223 0.360328 0.000213 0.107325
C35   C     C_R   0.187332 0.639568 0.000308 0.107279
C36   C     C_R   0.885360 0.314777 0.003597 0.110729
C37   C     C_R   0.388701 0.185974 0.003988 0.115542
C38   C     C_R   0.687698 0.862815 0.997998 0.101904
C39   C     C_R   0.687629 0.137262 0.997967 0.102059
C40   C     C_R   0.388682 0.814032 0.004052 0.115654
C41   C     C_R   0.074738 0.499983 0.371142 0.047628
C42   C     C_R   0.982075 0.500005 0.660816 0.049513
C43   C     C_R   0.450797 0.000005 0.275734 0.045575
C44   C     C_R   0.431344 0.000009 0.629701 0.058187
C45   C     C_R   0.676200 0.500333 0.732819 0.035932
C46   C     C_R   0.309216 0.499668 0.362689 0.048655
C47   C     C_R   0.176407 0.999817 0.733690 0.039451
C48   C     C_R   0.810673 0.000169 0.361077 0.048504
Ni1   Ni    Ni4+2 0.934150 0.565840 0.869060 0.227011
Ni2   Ni    Ni4+2 0.065850 0.434160 0.130940 0.241201
Ni3   Ni    Ni4+2 0.065850 0.565840 0.130940 0.241205
Ni4   Ni    Ni4+2 0.934150 0.434160 0.869060 0.226435
Ni5   Ni    Ni4+2 0.434150 0.065840 0.869060 0.220685
Ni6   Ni    Ni4+2 0.565850 0.934160 0.130940 0.249040
Ni7   Ni    Ni4+2 0.565850 0.065840 0.130940 0.249147
Ni8   Ni    Ni4+2 0.434150 0.934160 0.869060 0.221035
C49   C     C_3   0.497718 0.460656 0.629127 -0.140974
C50   C     C_3   0.478141 0.539097 0.489156 -0.142473
C51   C     C_3   0.468744 0.450038 0.510656 -0.153292
C52   C     C_3   0.506745 0.549986 0.607153 -0.150321
C53   C     C_3   0.005066 0.951770 0.611439 -0.151268
C54   C     C_3   0.972521 0.048155 0.504489 -0.152554
C55   C     C_3   0.977906 0.957816 0.492894 -0.148205
C56   C     C_3   0.999867 0.042390 0.623274 -0.145113
C57   C     C_3   0.427175 0.510276 0.585620 -0.128197
C58   C     C_3   0.546454 0.489760 0.530764 -0.125380
C59   C     C_3   0.927070 0.994348 0.584402 -0.117227
C60   C     C_3   0.048638 0.005627 0.530074 -0.125555
H33   H     H_    0.374884 0.518555 0.604134 0.138590
H34   H     H_    0.596878 0.481399 0.509379 0.135060
H35   H     H_    0.873947 0.989784 0.602775 0.146336
H36   H     H_    0.100166 0.010216 0.509174 0.131785
H37   H     H_    0.508602 0.428879 0.689358 0.135581
H38   H     H_    0.468585 0.571011 0.429761 0.137210
H39   H     H_    0.452203 0.409128 0.469387 0.135982
H40   H     H_    0.524540 0.590706 0.649310 0.133119
H41   H     H_    0.020924 0.912580 0.658088 0.133916
H42   H     H_    0.957997 0.087511 0.458699 0.136340
H43   H     H_    0.967358 0.923397 0.437352 0.136710
H44   H     H_    0.011709 0.076681 0.679619 0.135501
C61   C     C_3   0.400798 0.499464 0.469310 0.151445
C62   C     C_3   0.574597 0.500468 0.648126 0.154609
C63   C     C_3   0.902210 0.000289 0.467691 0.152546
C64   C     C_3   0.075165 0.999753 0.647813 0.153536
C65   C     C_R   0.795999 0.229652 0.902027 -0.300017
C66   C     C_R   0.346320 0.684850 0.103434 -0.293731
C67   C     C_R   0.346279 0.315116 0.103301 -0.293302
C68   C     C_R   0.795932 0.770354 0.902006 -0.300212
C69   C     C_R   0.300982 0.728369 0.904908 -0.302727
C70   C     C_R   0.846709 0.182143 0.099776 -0.292720
C71   C     C_R   0.846772 0.817902 0.099763 -0.292820
C72   C     C_R   0.300968 0.271628 0.904790 -0.302754
H45   H     H_    0.776733 0.246612 0.824291 0.181853
H46   H     H_    0.366637 0.667275 0.181241 0.174596
H47   H     H_    0.366615 0.332690 0.181105 0.175378
H48   H     H_    0.776580 0.753374 0.824256 0.181687
H49   H     H_    0.283995 0.743977 0.827230 0.182897
H50   H     H_    0.868904 0.163038 0.177167 0.174062
H51   H     H_    0.868988 0.837008 0.177151 0.173540
H52   H     H_    0.283997 0.256035 0.827116 0.182910
C73   C     C_R   0.252156 0.682131 0.902879 0.374173
C74   C     C_R   0.900116 0.226161 0.103082 0.368080
C75   C     C_R   0.900149 0.773855 0.103059 0.368191
C76   C     C_R   0.252039 0.317818 0.902737 0.374248
C77   C     C_R   0.749097 0.182147 0.898836 0.356562
C78   C     C_R   0.402316 0.726921 0.105983 0.362796
C79   C     C_R   0.402322 0.273072 0.105865 0.362513
C80   C     C_R   0.749059 0.817877 0.898812 0.356756
C81   C     C_R   0.264017 0.666954 0.001714 -0.058017
C82   C     C_R   0.864097 0.255646 0.003841 -0.061742
C83   C     C_R   0.864080 0.744364 0.003824 -0.061625
C84   C     C_R   0.263909 0.332972 0.001582 -0.058180
C85   C     C_R   0.763790 0.164605 0.998136 -0.053006
C86   C     C_R   0.368483 0.754968 0.005886 -0.060390
C87   C     C_R   0.368514 0.245038 0.005783 -0.060536
C88   C     C_R   0.763841 0.835458 0.998133 -0.052931
C89   C     C_R   0.048275 0.449868 0.577024 -0.035537
C90   C     C_R   0.089806 0.549991 0.521971 -0.106529
C91   C     C_R   0.089661 0.449947 0.521866 -0.103184
C92   C     C_R   0.048438 0.550102 0.577155 -0.034131
C93   C     C_R   0.389729 0.949987 0.461303 -0.110460
C94   C     C_R   0.393254 0.050016 0.370881 -0.127171
C95   C     C_R   0.393258 0.950008 0.370901 -0.127325
C96   C     C_R   0.389728 0.050040 0.461286 -0.110866
H53   H     H_    0.033614 0.410379 0.597588 0.163728
H54   H     H_    0.102745 0.589387 0.498898 0.141583
H55   H     H_    0.102483 0.410540 0.498715 0.141522
H56   H     H_    0.033912 0.589600 0.597839 0.163760
H57   H     H_    0.390035 0.910519 0.495395 0.132250
H58   H     H_    0.395813 0.089445 0.338700 0.129530
H59   H     H_    0.395822 0.910578 0.338738 0.129604
H60   H     H_    0.390035 0.089508 0.495366 0.132128
C97   C     C_R   0.097742 0.499968 0.481233 0.048068
C98   C     C_R   0.022761 0.499996 0.599859 0.068073
C99   C     C_R   0.406119 0.000010 0.333780 0.108742
C100  C     C_R   0.398085 0.000013 0.513868 0.093516
N33   N     N_R   0.194992 0.650141 0.802913 0.214286
O1    O     O_R   0.196710 0.596470 0.809352 -0.407387
O2    O     O_R   0.155444 0.673333 0.706214 -0.434553
N34   N     N_R   0.990655 0.238857 0.205469 0.220495
O3    O     O_R   0.064760 0.247331 0.205336 -0.408554
O4    O     O_R   0.003261 0.232442 0.300069 -0.401884
N35   N     N_R   0.990699 0.761136 0.205431 0.220437
O5    O     O_R   0.003352 0.767571 0.300050 -0.401759
O6    O     O_R   0.064777 0.752619 0.205256 -0.408340
N36   N     N_R   0.194755 0.349786 0.802734 0.214311
O7    O     O_R   0.155043 0.326560 0.706049 -0.434396
O8    O     O_R   0.196481 0.403459 0.809083 -0.407212
N37   N     N_R   0.689302 0.152154 0.796351 0.221923
O9    O     O_R   0.690787 0.098368 0.797282 -0.378342
O10   O     O_R   0.644456 0.177842 0.701368 -0.397301
N38   N     N_R   0.493348 0.738890 0.208318 0.221714
O11   O     O_R   0.567883 0.745401 0.208268 -0.399617
O12   O     O_R   0.505489 0.733951 0.302916 -0.396457
N39   N     N_R   0.493330 0.261082 0.208229 0.221793
O13   O     O_R   0.505366 0.265898 0.302783 -0.396594
O14   O     O_R   0.567922 0.254616 0.208270 -0.399779
N40   N     N_R   0.689133 0.847816 0.796257 0.221804
O15   O     O_R   0.643936 0.822053 0.701348 -0.397769
O16   O     O_R   0.690671 0.901603 0.796994 -0.378507

loop_
_geom_bond_atom_site_label_1
_geom_bond_atom_site_label_2
_geom_bond_distance
_ccdc_geom_bond_type
C12   C33   1.391708 A    
N13   Ni6   1.821201 S    
C68   H48   1.078975 S    
C11   C34   1.396322 A    
C33   C83   1.478302 S    
C58   C62   1.534481 S    
C38   C88   1.475247 S    
N33   O1    1.301446 A    
C79   N39   1.434587 S    
C45   C62   1.438818 S    
C95   C99   1.401790 A    
N9    Ni2   1.821201 S    
C21   N21   1.334211 A    
N2    Ni2   1.858968 S    
C31   H31   1.081586 S    
N4    N9    1.396637 A    
N26   N27   1.342159 A    
N1    Ni1   1.858968 S    
C30   C48   1.362276 A    
C66   C78   1.391576 A    
N37   O9    1.301806 A    
C2    C34   1.388424 A    
N24   Ni6   1.857129 S    
C91   C97   1.396851 A    
N18   Ni4   1.857071 S    
C31   C48   1.363592 A    
C78   C86   1.412538 A    
C94   H58   1.080383 S    
C65   C77   1.392555 A    
N8    N13   1.396637 A    
N38   O12   1.301499 A    
C54   H42   1.110328 S    
C67   C79   1.391451 A    
C59   H35   1.109985 S    
N7    Ni7   1.858916 S    
C68   C80   1.392493 A    
C72   C87   1.403052 A    
C93   C95   1.383478 A    
C78   N38   1.434627 S    
C72   C76   1.392393 A    
C73   C81   1.409598 A    
C6    N6    1.334328 A    
C51   H39   1.110140 S    
C17   H17   1.079893 S    
N35   O6    1.301742 A    
C14   H14   1.075153 S    
C76   C84   1.409598 A    
C65   C82   1.405788 A    
C50   C61   1.528603 S    
C49   H37   1.109906 S    
C29   C47   1.373636 A    
C73   N33   1.434289 S    
C55   C60   1.532070 S    
C96   H60   1.080221 S    
N5    Ni5   1.858968 S    
C20   H20   1.079890 S    
C68   C83   1.405724 A    
C89   H53   1.078663 S    
C10   H10   1.072565 S    
C40   C86   1.475713 S    
C35   C81   1.474169 S    
C51   C61   1.529797 S    
N12   Ni3   1.820934 S    
C71   C75   1.393053 A    
C28   C45   1.372988 A    
C24   N24   1.334241 A    
C23   H23   1.079664 S    
C14   C39   1.396256 A    
C93   H57   1.080218 S    
C92   H56   1.078668 S    
C59   C63   1.531065 S    
N22   N23   1.408947 A    
N29   Ni8   1.862595 S    
C54   C60   1.533290 S    
C32   N32   1.331683 A    
C46   C61   1.437433 S    
C55   C63   1.528679 S    
N28   Ni1   1.862876 S    
C74   N34   1.434588 S    
C57   C61   1.531031 S    
C20   N20   1.323793 A    
N3    N10   1.396637 A    
C27   N27   1.329294 A    
C10   C35   1.396624 A    
C42   C98   1.441232 S    
N5    N16   1.396624 A    
C69   C73   1.392484 A    
C80   C88   1.409959 A    
C41   C97   1.440893 S    
N18   N19   1.408947 A    
N25   Ni4   1.862595 S    
C29   H29   1.080829 S    
C8    H8    1.079738 S    
N7    N14   1.396637 A    
C7    C39   1.393928 A    
C6    C38   1.394106 A    
N33   O2    1.301486 A    
C79   C87   1.412480 A    
N40   O15   1.301536 A    
C90   C97   1.396857 A    
C21   H21   1.076665 S    
C26   H26   1.081543 S    
C89   C98   1.400102 A    
C25   H25   1.080817 S    
C52   H40   1.110005 S    
N16   Ni7   1.820934 S    
N22   Ni8   1.857071 S    
N37   O10   1.301533 A    
N31   Ni6   1.862874 S    
C5    C37   1.387346 A    
C28   H28   1.080624 S    
N8    Ni8   1.858916 S    
C18   C42   1.380540 A    
C74   C82   1.412244 A    
N23   Ni5   1.857128 S    
C53   H41   1.110056 S    
N35   O5    1.301465 A    
C60   C64   1.534701 S    
C15   C38   1.396281 A    
C76   N36   1.434248 S    
N32   Ni5   1.862876 S    
C1    H1    1.079350 S    
N38   O11   1.301760 A    
C50   H38   1.110615 S    
C89   C91   1.372904 A    
C9    N9    1.336054 A    
N39   O13   1.301485 A    
N4    Ni4   1.858916 S    
C56   C64   1.529037 S    
C19   N19   1.325350 A    
C7    H7    1.076480 S    
C22   H22   1.079661 S    
C71   H51   1.080275 S    
C52   C62   1.530992 S    
C12   N12   1.336054 A    
C13   C40   1.385708 A    
C13   N13   1.334956 A    
C39   C85   1.475222 S    
C67   H47   1.079877 S    
C44   C100  1.461199 S    
N21   N24   1.408947 A    
N40   O16   1.301859 A    
C24   C43   1.391553 A    
C31   N31   1.330650 A    
C37   C87   1.475522 S    
C3    C35   1.388511 A    
N11   Ni4   1.820932 S    
N39   O14   1.301776 A    
C18   N18   1.325300 A    
N30   Ni7   1.862594 S    
C53   C59   1.551856 S    
C9    C36   1.391804 A    
C22   N22   1.333836 A    
N3    Ni3   1.858916 S    
C60   H36   1.111223 S    
N17   N20   1.408947 A    
C1    C33   1.387305 A    
C9    H9    1.076313 S    
C75   N35   1.434598 S    
C18   H18   1.077520 S    
C5    N5    1.335315 A    
C80   N40   1.436703 S    
C55   H43   1.110544 S    
N26   Ni3   1.862594 S    
N34   O3    1.301726 A    
N25   N28   1.342159 A    
C3    N3    1.331933 A    
C21   C43   1.391512 A    
C8    C40   1.387382 A    
C72   H52   1.079762 S    
C17   N17   1.323850 A    
C28   N28   1.330387 A    
C57   H33   1.110111 S    
N15   Ni8   1.820932 S    
N34   O4    1.301475 A    
C20   C41   1.380579 A    
N29   N32   1.342159 A    
C92   C98   1.400127 A    
C77   C85   1.409935 A    
C51   C58   1.533534 S    
C36   C82   1.478250 S    
C94   C99   1.401813 A    
C4    H4    1.079370 S    
C94   C96   1.383484 A    
C2    H2    1.076246 S    
C56   C59   1.554631 S    
C70   H50   1.080275 S    
C27   H27   1.081278 S    
N10   Ni1   1.821200 S    
C71   C88   1.403411 A    
C10   N10   1.340255 A    
C75   C83   1.412303 A    
C15   H15   1.075094 S    
N6    Ni6   1.858968 S    
C69   C86   1.403091 A    
C27   C46   1.361414 A    
C54   C56   1.544227 S    
C67   C84   1.402528 A    
C66   H46   1.079904 S    
C95   H59   1.080381 S    
C34   C84   1.474062 S    
C16   C37   1.385649 A    
C5    H5    1.079751 S    
C14   N14   1.335889 A    
C49   C57   1.555992 S    
C2    N2    1.332077 A    
C53   C64   1.530152 S    
C91   H55   1.080848 S    
C26   C46   1.363712 A    
C17   C41   1.380602 A    
C54   C63   1.529437 S    
C48   C63   1.437034 S    
C25   C45   1.375876 A    
C77   N37   1.436735 S    
N36   O8    1.301420 A    
C56   H44   1.109956 S    
N27   Ni2   1.862874 S    
C22   C44   1.383487 A    
C23   C44   1.383522 A    
C11   H11   1.072535 S    
C26   N26   1.331334 A    
C4    C36   1.387264 A    
N17   Ni3   1.857072 S    
N1    N12   1.396624 A    
C25   N25   1.332459 A    
C6    H6    1.076695 S    
C32   H32   1.080895 S    
N2    N11   1.396624 A    
C43   C99   1.461877 S    
C30   H30   1.081459 S    
C24   H24   1.076661 S    
C16   N16   1.334857 A    
C65   H45   1.078966 S    
C30   N30   1.329414 A    
C19   C42   1.380560 A    
C7    N7    1.334303 A    
C32   C47   1.375363 A    
C29   N29   1.330386 A    
C8    N8    1.335393 A    
N21   Ni7   1.857072 S    
C52   C57   1.551217 S    
N6    N15   1.396624 A    
C16   H16   1.074778 S    
C93   C100  1.402164 A    
N19   Ni1   1.857128 S    
N30   N31   1.342159 A    
C58   H34   1.111102 S    
C90   C92   1.372983 A    
C49   C51   1.544747 S    
C3    H3    1.076574 S    
C4    N4    1.332723 A    
C11   N11   1.340150 A    
N14   Ni5   1.821200 S    
C66   C81   1.402557 A    
C19   H19   1.077536 S    
C1    N1    1.332812 A    
C12   H12   1.076310 S    
N36   O7    1.301506 A    
C70   C85   1.403422 A    
C13   H13   1.074792 S    
C53   C55   1.542594 S    
C96   C100  1.402151 A    
C49   C62   1.529306 S    
C70   C74   1.392945 A    
C15   N15   1.335783 A    
C90   H54   1.080858 S    
C47   C64   1.437296 S    
C50   C52   1.541391 S    
C50   C58   1.531332 S    
C69   H49   1.079741 S    
C23   N23   1.333864 A    
N20   Ni2   1.857129 S    
