data_mof_unit_60921.cif
_audit_creation_date              2012-10-26T17:58:56-0400
_audit_creation_method            fapswitch 2.2
_symmetry_space_group_name_H-M    P1
_symmetry_Int_Tables_number       1
_space_group_crystal_system       triclinic
_cell_length_a                    37.151376
_cell_length_b                    30.394481
_cell_length_c                    21.408212
_cell_angle_alpha                 90.000614
_cell_angle_beta                  54.870048
_cell_angle_gamma                 89.999785
_cell_volume                      19770.7510481

loop_
_atom_site_label
_atom_site_type_symbol
_atom_type_description
_atom_site_fract_x
_atom_site_fract_y
_atom_site_fract_z
_atom_type_partial_charge
C1    C     C_R   0.915135 0.500062 0.084677 0.577703
C2    C     C_3   0.987802 0.460329 0.742017 -0.143443
C3    C     C_R   0.510092 0.656714 0.435159 -0.129923
C4    C     C_R   0.022378 0.156182 0.524484 -0.127775
C5    C     C_R   0.977623 0.156183 0.475517 -0.127776
C6    C     C_R   0.500000 0.414904 0.500000 0.548289
C7    C     C_R   1.000000 0.914911 0.500000 0.550252
C8    C     C_R   0.037416 0.702583 0.482284 -0.123074
C9    C     C_R   0.962582 0.702583 0.517717 -0.123073
C10   C     C_R   0.536899 0.202512 0.484691 -0.123255
C11   C     C_R   0.463100 0.202513 0.515310 -0.123253
C12   C     C_R   0.037551 0.656716 0.481681 -0.132717
C13   C     C_3   0.467087 0.973637 0.303323 -0.142806
C14   C     C_R   0.962448 0.656716 0.518320 -0.132719
C15   C     C_R   0.537039 0.156647 0.484098 -0.129825
C16   C     C_R   0.462960 0.156647 0.515903 -0.129813
C17   C     C_R   0.999999 0.633431 0.500000 0.016657
C18   C     C_R   0.499999 0.133384 0.500000 0.014056
C19   C     C_R   0.489694 0.702554 0.564971 -0.121016
C20   C     C_R   0.510311 0.702552 0.435020 -0.121019
C21   C     C_R   0.022903 0.202012 0.523502 -0.118553
C22   C     C_R   0.977098 0.202012 0.476498 -0.118553
C23   C     C_R   0.999999 0.725786 0.500000 0.030652
C24   C     C_3   0.532897 0.973613 0.696691 -0.142798
C25   C     C_R   0.499999 0.225728 0.500000 0.029982
C26   C     C_R   0.487423 0.297349 0.458828 -0.121715
C27   C     C_R   0.512575 0.297349 0.541172 -0.121715
C28   C     C_R   0.986614 0.797379 0.460029 -0.122170
C29   C     C_R   0.013384 0.797379 0.539972 -0.122171
C30   C     C_R   0.487728 0.343218 0.458362 -0.129799
C31   C     C_R   0.512271 0.343218 0.541638 -0.129798
C32   C     C_R   0.986943 0.843247 0.459515 -0.129845
C33   C     C_R   0.013056 0.843247 0.540485 -0.129845
C34   C     C_R   0.500000 0.366525 0.500000 0.018023
C35   C     C_3   0.040489 0.491038 0.188502 -0.128906
C36   C     C_R   1.000000 0.866545 0.500000 0.017636
C37   C     C_R   0.500002 0.725913 0.499995 0.032862
C38   C     C_R   0.000001 0.225498 0.500000 0.033322
C39   C     C_R   0.000087 0.297594 0.443429 -0.108706
C40   C     C_R   0.999916 0.297595 0.556569 -0.108705
C41   C     C_R   0.482929 0.797728 0.465994 -0.111239
C42   C     C_R   0.517075 0.797729 0.533993 -0.111240
C43   C     C_3   0.987454 0.540392 0.241361 -0.121418
C44   C     C_3   0.012561 0.540386 0.758626 -0.121414
C45   C     C_3   0.533318 0.025323 0.196017 -0.119140
C46   C     C_3   0.959507 0.491053 0.811500 -0.128902
C47   C     C_3   0.466698 0.025345 0.803968 -0.119154
C48   C     C_3   0.028109 0.530931 0.242488 -0.151973
C49   C     C_3   0.971902 0.530941 0.757502 -0.151967
C50   C     C_3   0.538899 0.983722 0.231651 -0.159131
C51   C     C_3   0.461090 0.983747 0.768359 -0.159135
C52   C     C_3   0.999781 0.500117 0.311199 0.053243
C53   C     C_3   0.000219 0.500117 0.688800 0.053240
C54   C     C_3   0.500081 0.999106 0.311099 0.053373
C55   C     C_3   0.499919 0.999105 0.688901 0.053378
C56   C     C_3   0.960018 0.509163 0.309328 0.154226
C57   C     C_3   0.505877 0.958181 0.223049 -0.145146
C58   C     C_3   0.039985 0.509147 0.690669 0.154221
C59   C     C_3   0.494447 0.039640 0.275835 0.165235
C60   C     C_3   0.505580 0.039637 0.724140 0.165233
C61   C     C_3   0.998128 0.366914 0.382442 -0.285056
C62   C     C_3   0.950669 0.374999 0.409484 -0.426467
C63   C     C_3   0.001872 0.366917 0.617558 -0.285057
C64   C     C_3   0.049330 0.375003 0.590518 -0.426460
C65   C     C_3   0.466146 0.866689 0.423607 -0.272328
C66   C     C_3   0.415961 0.868088 0.473228 -0.424816
C67   C     C_3   0.533859 0.866692 0.576377 -0.272325
C68   C     C_3   0.494096 0.958183 0.776976 -0.145139
C69   C     C_3   0.584044 0.868086 0.526754 -0.424813
C70   C     C_3   0.882637 0.521908 0.362429 -0.317895
C71   C     C_3   0.117371 0.521863 0.637569 -0.317902
C72   C     C_3   0.481700 0.117394 0.267404 -0.304873
C73   C     C_3   0.518383 0.117382 0.732518 -0.304862
C74   C     C_3   0.874096 0.550556 0.991417 -0.306553
C75   C     C_3   0.125898 0.550548 0.008596 -0.306553
C76   C     C_3   0.381026 0.954356 0.983610 -0.289502
C77   C     C_3   0.618978 0.954256 0.016325 -0.289478
C78   C     C_3   0.999791 0.500250 0.188775 0.028899
C79   C     C_3   0.000209 0.500249 0.811225 0.028902
C80   C     C_3   0.500070 0.999811 0.188787 0.021627
C81   C     C_R   0.084865 0.500061 0.915323 0.577701
C82   C     C_3   0.499930 0.999809 0.811212 0.021627
C83   C     C_R   0.797857 0.500068 0.145272 -0.106508
C84   C     C_R   0.202143 0.500066 0.854730 -0.106508
C85   C     C_R   0.297316 0.968501 0.165955 -0.110046
C86   C     C_R   0.702686 0.968475 0.834000 -0.110046
C87   C     C_R   0.843895 0.501716 0.098465 0.131569
C88   C     C_R   0.156104 0.501713 0.901536 0.131569
C89   C     C_R   0.343380 0.968464 0.118343 0.133935
C90   C     C_R   0.656622 0.968438 0.881613 0.133937
C91   C     C_R   0.867170 0.500291 0.131939 0.059527
C92   C     C_R   0.415002 0.000006 0.084126 0.558912
C93   C     C_R   0.132830 0.500290 0.868061 0.059527
C94   C     C_R   0.366781 0.000028 0.130271 0.044959
C95   C     C_R   0.633220 0.000026 0.869732 0.044935
C96   C     C_R   0.844399 0.499088 0.211391 -0.165199
C97   C     C_R   0.155602 0.499088 0.788610 -0.165200
C98   C     C_R   0.343732 0.031758 0.187771 -0.165873
C99   C     C_R   0.656268 0.031781 0.812279 -0.165880
C100  C     C_R   0.798528 0.499215 0.257804 -0.130546
C101  C     C_R   0.201472 0.499215 0.742197 -0.130545
C102  C     C_R   0.297932 0.031653 0.234464 -0.135044
C103  C     C_R   0.584998 0.000005 0.915875 0.558894
C104  C     C_R   0.702069 0.031677 0.765587 -0.135051
C105  C     C_R   0.774674 0.499439 0.225295 0.007750
C106  C     C_R   0.225326 0.499438 0.774706 0.007750
C107  C     C_R   0.274425 0.999993 0.224006 0.006246
C108  C     C_R   0.725576 0.999992 0.775996 0.006247
C109  C     C_R   0.000048 0.500053 0.120304 0.563813
C110  C     C_R   0.999952 0.500053 0.879696 0.563814
C111  C     C_R   0.500008 0.999980 0.120437 0.543354
C112  C     C_R   0.499993 0.999980 0.879562 0.543362
C113  C     C_R   0.702281 0.477365 0.344841 -0.117391
C114  C     C_3   0.971369 0.469307 0.257114 -0.094701
C115  C     C_R   0.297719 0.477362 0.655160 -0.117392
C116  C     C_R   0.203006 0.004876 0.352408 -0.120735
C117  C     C_R   0.796994 0.004916 0.647601 -0.120734
C118  C     C_R   0.656387 0.477959 0.391116 -0.128552
C119  C     C_R   0.343614 0.477957 0.608885 -0.128552
C120  C     C_R   0.157129 0.004715 0.398732 -0.132099
C121  C     C_R   0.842871 0.004754 0.601276 -0.132097
C122  C     C_R   0.633225 0.499879 0.366968 0.021359
C123  C     C_R   0.366775 0.499878 0.633033 0.021360
C124  C     C_R   0.133533 0.000041 0.366273 0.016103
C125  C     C_3   0.028620 0.469295 0.742896 -0.094708
C126  C     C_R   0.866468 0.000039 0.633727 0.016109
C127  C     C_R   0.656410 0.521820 0.296655 -0.127966
C128  C     C_R   0.343589 0.521821 0.703345 -0.127965
C129  C     C_R   0.156613 0.995448 0.286755 -0.128942
C130  C     C_R   0.843388 0.995406 0.713237 -0.128940
C131  C     C_R   0.702270 0.522278 0.251300 -0.119373
C132  C     C_R   0.297730 0.522278 0.748701 -0.119373
C133  C     C_R   0.202440 0.995372 0.240567 -0.121702
C134  C     C_R   0.797562 0.995329 0.759426 -0.121702
C135  C     C_R   0.725830 0.499685 0.274438 0.035418
C136  C     C_3   0.461058 0.015218 0.268105 -0.082076
C137  C     C_R   0.274170 0.499684 0.725563 0.035417
C138  C     C_R   0.225973 0.000093 0.273025 0.034382
C139  C     C_R   0.774028 0.000092 0.726977 0.034382
C140  C     C_R   0.000001 0.366863 0.499999 0.051528
C141  C     C_R   0.500001 0.866995 0.499995 0.045230
C142  C     C_R   0.000001 0.274241 0.499999 0.001654
C143  C     C_R   0.500003 0.774511 0.499993 -0.000638
C144  C     C_R   0.499999 0.274134 0.500000 0.031523
C145  C     C_R   0.999999 0.774176 0.500001 0.030727
C146  C     C_R   1.000000 0.585088 0.500000 0.543653
C147  C     C_3   0.538953 0.015191 0.731883 -0.082073
C148  C     C_R   0.500000 0.085072 0.500000 0.551062
C149  C     C_R   0.999565 0.343612 0.443290 -0.003044
C150  C     C_R   0.000437 0.343614 0.556708 -0.003045
C151  C     C_R   0.483114 0.843750 0.464769 -0.003487
C152  C     C_R   0.516888 0.843751 0.535220 -0.003483
C153  C     C_R   0.999937 0.499975 0.379564 0.551550
C154  C     C_R   0.000063 0.499975 0.620436 0.551552
C155  C     C_R   0.500001 0.999567 0.379574 0.554164
C156  C     C_R   0.499998 0.999567 0.620425 0.554166
C157  C     C_R   0.000000 0.415064 0.500000 0.541310
C158  C     C_3   0.012184 0.460324 0.257995 -0.143443
C159  C     C_R   0.500000 0.915095 0.499997 0.535688
C160  C     C_R   0.500001 0.633425 0.499998 0.017297
C161  C     C_R   0.000000 0.133066 0.500000 0.021943
C162  C     C_R   0.500000 0.585074 0.500000 0.548642
C163  C     C_R   1.000000 0.084951 0.500000 0.549541
C164  C     C_R   0.585010 0.499937 0.415029 0.548711
C165  C     C_R   0.414990 0.499937 0.584971 0.548712
C166  C     C_R   0.085116 0.000011 0.414876 0.549861
C167  C     C_R   0.914884 0.000011 0.585124 0.549861
C168  C     C_R   0.489911 0.656717 0.564836 -0.129926
Cu1   Cu    Cu3+1 1.000000 0.455950 0.000000 0.938307
Cu2   Cu    Cu3+1 0.499990 0.500000 0.437250 0.917424
Cu3   Cu    Cu3+1 0.000010 0.000000 0.562750 0.915783
Cu4   Cu    Cu3+1 0.999990 0.000000 0.437250 0.915785
Cu5   Cu    Cu3+1 0.500000 0.955950 0.000000 0.949971
Cu6   Cu    Cu3+1 0.000000 0.544060 0.000000 0.900673
Cu7   Cu    Cu3+1 0.500000 0.044060 0.000000 0.896450
Cu8   Cu    Cu3+1 0.044060 0.499960 0.455930 0.913239
Cu9   Cu    Cu3+1 0.955940 0.499960 0.544070 0.913246
Cu10  Cu    Cu3+1 0.544060 0.999960 0.455930 0.910628
Cu11  Cu    Cu3+1 0.455940 0.999960 0.544070 0.910619
Cu12  Cu    Cu3+1 0.500010 0.500000 0.562750 0.917424
H1    H     H_    0.051510 0.555910 0.237225 0.113730
H2    H     H_    0.280803 0.458890 0.636120 0.102691
H3    H     H_    0.890206 0.548548 0.320973 0.134173
H4    H     H_    0.083703 0.546174 0.594209 0.256589
H5    H     H_    0.149559 0.528960 0.583044 0.140787
H6    H     H_    0.120136 0.489995 0.659851 0.146924
H7    H     H_    0.109810 0.548507 0.679015 0.134167
H8    H     H_    0.511800 0.091667 0.316474 0.250672
H9    H     H_    0.475194 0.149193 0.297699 0.139845
H10   H     H_    0.452869 0.109399 0.266395 0.155320
H11   H     H_    0.511491 0.120959 0.207976 0.140740
H12   H     H_    0.488258 0.091679 0.683476 0.250657
H13   H     H_    0.220571 0.008186 0.378644 0.105756
H14   H     H_    0.524912 0.149178 0.702202 0.139836
H15   H     H_    0.547212 0.109364 0.733526 0.155312
H16   H     H_    0.488596 0.120968 0.791948 0.140741
H17   H     H_    0.852322 0.487248 0.996856 0.239224
H18   H     H_    0.842224 0.567759 0.015874 0.129342
H19   H     H_    0.892820 0.551233 0.928267 0.134256
H20   H     H_    0.893518 0.568399 0.007886 0.182855
H21   H     H_    0.147678 0.487241 0.003143 0.239226
H22   H     H_    0.157768 0.567752 0.984146 0.129341
H23   H     H_    0.107172 0.551221 0.071747 0.134263
H24   H     H_    0.779429 0.008259 0.621371 0.105756
H25   H     H_    0.106476 0.568391 0.992128 0.182856
H26   H     H_    0.349156 0.907808 0.069463 0.240000
H27   H     H_    0.352521 0.963615 0.982314 0.122478
H28   H     H_    0.400612 0.928838 0.939459 0.140496
H29   H     H_    0.402329 0.983607 0.969399 0.157342
H30   H     H_    0.650846 0.907748 0.930398 0.239993
H31   H     H_    0.647484 0.963483 0.017639 0.122464
H32   H     H_    0.599386 0.928723 0.060436 0.140503
H33   H     H_    0.597681 0.983518 0.030578 0.157336
H34   H     H_    0.638966 0.460498 0.445047 0.119520
H35   H     H_    0.361035 0.460495 0.554954 0.119519
H36   H     H_    0.140198 0.008339 0.459852 0.126870
H37   H     H_    0.859802 0.008412 0.540162 0.126862
H38   H     H_    0.639035 0.539393 0.277532 0.119836
H39   H     H_    0.360964 0.539395 0.722468 0.119836
H40   H     H_    0.139314 0.991820 0.260105 0.129394
H41   H     H_    0.948511 0.555931 0.762755 0.113726
H42   H     H_    0.860688 0.991744 0.739880 0.129389
H43   H     H_    0.719140 0.540842 0.198580 0.100181
H44   H     H_    0.280858 0.540843 0.801422 0.100183
H45   H     H_    0.219526 0.992136 0.179337 0.104145
H46   H     H_    0.780476 0.992060 0.820651 0.104144
H47   H     H_    0.480916 0.719711 0.616280 0.101918
H48   H     H_    0.519089 0.719706 0.383710 0.101915
H49   H     H_    0.041729 0.218946 0.540256 0.101791
H50   H     H_    0.958273 0.218946 0.459744 0.101790
H51   H     H_    0.481678 0.639543 0.615814 0.125822
H52   H     H_    0.570569 0.970526 0.217836 0.118355
H53   H     H_    0.518324 0.639538 0.384182 0.125824
H54   H     H_    0.040227 0.138777 0.542833 0.120161
H55   H     H_    0.959773 0.138777 0.457168 0.120158
H56   H     H_    0.066683 0.719991 0.468025 0.106840
H57   H     H_    0.933314 0.719992 0.531976 0.106838
H58   H     H_    0.565781 0.219904 0.472286 0.107545
H59   H     H_    0.434217 0.219904 0.527715 0.107545
H60   H     H_    0.066856 0.639489 0.467632 0.123252
H61   H     H_    0.933143 0.639490 0.532369 0.123251
H62   H     H_    0.565916 0.139396 0.471992 0.131290
H63   H     H_    0.429410 0.970573 0.782183 0.118359
H64   H     H_    0.434082 0.139396 0.528009 0.131288
H65   H     H_    0.976728 0.573013 0.234398 0.115418
H66   H     H_    0.023298 0.573002 0.765579 0.115417
H67   H     H_    0.560021 0.046873 0.151572 0.104345
H68   H     H_    0.440008 0.046914 0.848401 0.104349
H69   H     H_    0.000873 0.280043 0.398630 0.106055
H70   H     H_    0.999130 0.280045 0.601368 0.106055
H71   H     H_    0.469243 0.779972 0.440293 0.108529
H72   H     H_    0.530763 0.779974 0.559692 0.108531
H73   H     H_    0.477891 0.279953 0.426309 0.105454
H74   H     H_    0.781861 0.499712 0.319114 0.108898
H75   H     H_    0.522107 0.279953 0.573692 0.105453
H76   H     H_    0.976430 0.779969 0.428478 0.106316
H77   H     H_    0.023567 0.779970 0.571523 0.106315
H78   H     H_    0.477992 0.360415 0.425988 0.125189
H79   H     H_    0.522007 0.360416 0.574012 0.125190
H80   H     H_    0.976588 0.860456 0.428067 0.126051
H81   H     H_    0.023412 0.860457 0.571932 0.126050
H82   H     H_    0.948031 0.444250 0.262363 0.105863
H83   H     H_    0.051948 0.444229 0.737656 0.105867
H84   H     H_    0.429438 0.028467 0.281773 0.102751
H85   H     H_    0.218139 0.499711 0.680886 0.108899
H86   H     H_    0.570583 0.028418 0.718208 0.102746
H87   H     H_    0.023616 0.427582 0.262208 0.103264
H88   H     H_    0.976359 0.427591 0.737811 0.103264
H89   H     H_    0.440268 0.952328 0.348081 0.112502
H90   H     H_    0.559703 0.952285 0.651945 0.112485
H91   H     H_    0.073717 0.482610 0.137641 0.131591
H92   H     H_    0.926276 0.482637 0.862362 0.131589
H93   H     H_    0.510700 0.924341 0.199970 0.124938
H94   H     H_    0.489252 0.924344 0.800073 0.124935
H95   H     H_    0.780403 0.499686 0.118623 0.099688
H96   H     H_    0.280827 0.056555 0.278387 0.114078
H97   H     H_    0.219597 0.499683 0.881378 0.099689
H98   H     H_    0.279365 0.943983 0.157401 0.099903
H99   H     H_    0.720637 0.943937 0.842517 0.099902
H100  H     H_    0.862207 0.498553 0.237447 0.093811
H101  H     H_    0.137793 0.498554 0.762552 0.093811
H102  H     H_    0.361240 0.056274 0.197355 0.121306
H103  H     H_    0.638761 0.056316 0.802730 0.121340
H104  H     H_    0.932541 0.343336 0.424438 0.145837
H105  H     H_    0.933668 0.396933 0.460162 0.186646
H106  H     H_    0.950214 0.390895 0.363301 0.137869
H107  H     H_    0.719173 0.056598 0.721702 0.114077
H108  H     H_    0.016086 0.398600 0.367168 0.151473
H109  H     H_    0.015029 0.346923 0.329276 0.131957
H110  H     H_    0.067459 0.343341 0.575566 0.145835
H111  H     H_    0.066331 0.396935 0.539838 0.186651
H112  H     H_    0.049784 0.390902 0.636701 0.137879
H113  H     H_    0.983913 0.398602 0.632832 0.151475
H114  H     H_    0.984971 0.346926 0.670724 0.131957
H115  H     H_    0.402245 0.834214 0.487239 0.144741
H116  H     H_    0.403559 0.886260 0.527027 0.176044
H117  H     H_    0.404396 0.885125 0.441942 0.128002
H118  H     H_    0.719197 0.458893 0.363881 0.102690
H119  H     H_    0.479068 0.900707 0.406568 0.153737
H120  H     H_    0.477879 0.848934 0.369643 0.128208
H121  H     H_    0.597758 0.834210 0.512739 0.144739
H122  H     H_    0.596446 0.886257 0.472954 0.176044
H123  H     H_    0.595611 0.885120 0.558040 0.128003
H124  H     H_    0.520939 0.900711 0.593413 0.153746
H125  H     H_    0.522125 0.848941 0.630344 0.128208
H126  H     H_    0.916315 0.546206 0.405777 0.256582
H127  H     H_    0.850452 0.529018 0.416953 0.140787
H128  H     H_    0.879859 0.490040 0.340161 0.146920
N1    N     N_2   0.916471 0.519475 0.375979 -0.496780
N2    N     N_2   0.083537 0.519442 0.624016 -0.496782
N3    N     N_2   0.488420 0.083430 0.306934 -0.512240
N4    N     N_2   0.511636 0.083424 0.693014 -0.512224
N5    N     N_2   0.866529 0.505479 0.017969 -0.526405
N6    N     N_2   0.133470 0.505472 0.982033 -0.526404
N7    N     N_2   0.365821 0.937157 0.058034 -0.497503
N8    N     N_2   0.634182 0.937102 0.941874 -0.497483
O1    O     O_R   0.935730 0.462810 0.064280 -0.503605
O2    O     O_R   0.435720 0.499990 0.617290 -0.510261
O3    O     O_R   0.064280 0.999990 0.382710 -0.511928
O4    O     O_R   0.935720 0.999990 0.617290 -0.511928
O5    O     O_R   0.500000 0.435720 0.553010 -0.512976
O6    O     O_R   0.500000 0.435720 0.446990 -0.512975
O7    O     O_R   1.000000 0.935720 0.553010 -0.512291
O8    O     O_R   1.000000 0.935720 0.446990 -0.512284
O9    O     O_R   0.935740 0.537210 0.064260 -0.518796
O10   O     O_R   0.064260 0.537210 0.935740 -0.518801
O11   O     O_R   0.435740 0.037210 0.064260 -0.525047
O12   O     O_R   0.064270 0.462810 0.935720 -0.503602
O13   O     O_R   0.564260 0.037210 0.935740 -0.525056
O14   O     O_R   0.000010 0.462810 0.091570 -0.509901
O15   O     O_R   0.999990 0.462810 0.908430 -0.509903
O16   O     O_R   0.500010 0.962810 0.091570 -0.511578
O17   O     O_R   0.499990 0.962810 0.908430 -0.511548
O18   O     O_R   0.000020 0.537210 0.091550 -0.518130
O19   O     O_R   0.999980 0.537210 0.908450 -0.518126
O20   O     O_R   0.500020 0.037210 0.091550 -0.517133
O21   O     O_R   0.499980 0.037210 0.908450 -0.517139
O22   O     O_R   0.037200 0.564240 0.462790 -0.515592
O23   O     O_R   0.435730 0.962810 0.064280 -0.474432
O24   O     O_R   0.962800 0.564240 0.537210 -0.515590
O25   O     O_R   0.537200 0.064240 0.462790 -0.509192
O26   O     O_R   0.462800 0.064240 0.537210 -0.509191
O27   O     O_R   0.037200 0.499960 0.371220 -0.515642
O28   O     O_R   0.962800 0.499960 0.628780 -0.515640
O29   O     O_R   0.537200 0.999960 0.371220 -0.517984
O30   O     O_R   0.462800 0.999960 0.628780 -0.517984
O31   O     O_R   0.962800 0.499940 0.445620 -0.499042
O32   O     O_R   0.037200 0.499940 0.554380 -0.499050
O33   O     O_R   0.462800 0.999940 0.445620 -0.505428
O34   O     O_R   0.564270 0.962810 0.935720 -0.474412
O35   O     O_R   0.537200 0.999940 0.554380 -0.505414
O36   O     O_R   0.037210 0.435680 0.462780 -0.515634
O37   O     O_R   0.962790 0.435680 0.537220 -0.515635
O38   O     O_R   0.537210 0.935680 0.462780 -0.516659
O39   O     O_R   0.462790 0.935680 0.537220 -0.516655
O40   O     O_R   0.500030 0.564270 0.552970 -0.513561
O41   O     O_R   0.499970 0.564270 0.447030 -0.513563
O42   O     O_R   0.000030 0.064270 0.552970 -0.510299
O43   O     O_R   0.999970 0.064270 0.447030 -0.510305
O44   O     O_R   0.564280 0.500000 0.488710 -0.510735
O45   O     O_R   0.435720 0.500000 0.511290 -0.510734
O46   O     O_R   0.064280 0.000000 0.488710 -0.515654
O47   O     O_R   0.935720 0.000000 0.511290 -0.515652
O48   O     O_R   0.564280 0.499990 0.382710 -0.510262

loop_
_geom_bond_atom_site_label_1
_geom_bond_atom_site_label_2
_ccdc_geom_bond_type
C113  H118  S    
C87   C91   A    
C57   C80   S    
C112  O21   A    
C82   C147  S    
C90   C95   A    
C28   C145  A    
C64   H111  S    
C133  H45   S    
C41   C143  A    
C46   C79   S    
C95   C99   A    
Cu6   O10   S    
C22   C38   A    
C29   C33   A    
C8    C23   A    
C89   C94   A    
Cu2   O6    S    
C19   C37   A    
C91   C96   A    
Cu2   O48   S    
Cu12  O5    S    
C1    O1    A    
Cu1   Cu6   S    
C164  O48   A    
C72   H11   S    
Cu1   O1    S    
C163  O42   A    
C81   O12   A    
C15   H62   S    
C1    C91   S    
C73   H14   S    
C117  C139  A    
C100  H74   S    
C161  C163  S    
C75   H22   S    
C112  O17   A    
C44   C79   S    
C52   C158  S    
C154  O32   A    
C96   H100  S    
C28   C32   A    
C126  C167  S    
C86   C90   A    
H26   N7    S    
Cu1   O14   S    
C98   C102  A    
C29   H77   S    
C83   C105  A    
C24   H90   S    
C5    C161  A    
C146  O24   A    
C22   H50   S    
C66   H116  S    
C2    H88   S    
C41   H71   S    
C92   C94   S    
C40   C150  A    
Cu5   O23   S    
Cu9   O31   S    
C129  C133  A    
Cu4   O43   S    
C74   H20   S    
C13   C54   S    
C45   C59   S    
C46   H92   S    
C50   C57   S    
C4    H54   S    
C111  O20   A    
Cu12  O40   S    
C6    O5    A    
C86   C108  A    
C84   C88   A    
C71   H7    S    
C110  O15   A    
C2    C53   S    
C60   N4    S    
C53   C58   S    
C165  O45   A    
C41   C151  A    
C119  C123  A    
C35   C78   S    
C107  C138  S    
C17   C146  S    
C114  H82   S    
Cu8   O27   S    
C3    H53   S    
C75   H25   S    
Cu7   O11   S    
C109  O18   A    
C76   N7    S    
C45   C50   S    
C65   H119  S    
C49   C53   S    
C45   C80   S    
C51   C55   S    
C160  C168  A    
C127  C131  A    
C12   H60   S    
C113  C135  A    
C73   H16   S    
C42   C143  A    
C126  C130  A    
C4    C161  A    
Cu8   O36   S    
C61   C149  S    
C76   H28   S    
C127  H38   S    
H30   N8    S    
C15   C18   A    
C58   N2    S    
C33   C36   A    
Cu10  Cu11  S    
Cu12  O2    S    
C69   H121  S    
C32   C36   A    
C146  O22   A    
C155  O29   A    
C129  H40   S    
C13   H89   S    
Cu7   O21   S    
C13   C57   S    
C11   C25   A    
Cu9   O37   S    
C59   C136  S    
C63   H113  S    
C122  C164  S    
C64   H110  S    
C118  C122  A    
C122  C127  A    
C73   N4    S    
C19   H47   S    
Cu5   O17   S    
C141  C159  S    
C21   C38   A    
C115  C137  A    
C39   H69   S    
C103  O13   A    
C50   H52   S    
C70   N1    S    
C105  C135  S    
C165  O2    A    
C79   C125  S    
C87   N5    S    
C14   C17   A    
C71   H5    S    
Cu5   O16   S    
C83   H95   S    
Cu9   O24   S    
C72   H10   S    
C95   C103  S    
C163  O43   A    
C54   C59   S    
Cu5   Cu7   S    
Cu11  O30   S    
C30   C34   A    
H12   N4    S    
C32   H80   S    
C130  H42   S    
C159  O38   A    
C134  C139  A    
C75   H23   S    
C9    C23   A    
C106  C137  S    
C52   C153  S    
C116  C120  A    
C160  C162  S    
C65   C151  S    
C62   H106  S    
C63   C150  S    
C97   H101  S    
C40   H70   S    
C48   C52   S    
C8    C12   A    
C31   C34   A    
C102  C107  A    
C89   N7    S    
C90   N8    S    
Cu7   O20   S    
C16   H64   S    
C10   C25   A    
C26   C30   A    
C115  C119  A    
Cu4   O3    S    
C9    H57   S    
Cu10  O38   S    
C25   C144  S    
C93   C97   A    
C115  H2    S    
C67   H125  S    
C101  C106  A    
Cu6   O18   S    
C158  H87   S    
C69   H123  S    
C49   H41   S    
C67   C152  S    
C30   H78   S    
C121  H37   S    
C51   H63   S    
C24   C147  S    
C108  C139  S    
C57   H93   S    
C39   C149  A    
C20   H48   S    
C64   H112  S    
C68   C82   S    
C20   C37   A    
C43   H65   S    
C96   C100  A    
C78   C109  S    
C61   C62   S    
C70   H127  S    
C63   C64   S    
C2    C125  S    
C166  O3    A    
Cu3   O46   S    
Cu12  O44   S    
C131  H43   S    
C140  C149  A    
C72   N3    S    
C44   C49   S    
C83   C87   A    
C157  O36   A    
C7    C36   S    
H8    N3    S    
Cu3   O42   S    
C77   H33   S    
C130  C134  A    
C43   C78   S    
C46   C49   S    
C50   C54   S    
C62   H104  S    
C147  H86   S    
C29   C145  A    
C48   H1    S    
C94   C98   A    
C33   H81   S    
Cu3   O7    S    
Cu8   O32   S    
C61   H108  S    
C114  C158  S    
C92   O23   A    
C156  O30   A    
C77   H32   S    
C44   C58   S    
C12   C17   A    
C84   C106  A    
C117  H24   S    
C44   H66   S    
C99   C104  A    
C42   H72   S    
C133  C138  A    
C55   C60   S    
C167  O4    A    
C78   C114  S    
C156  O35   A    
C35   C48   S    
C47   H68   S    
H126  N1    S    
C153  O27   A    
C54   C155  S    
C85   C89   A    
Cu6   O9    S    
C47   C51   S    
Cu10  O25   S    
C27   C31   A    
C26   H73   S    
C6    C34   S    
C82   C112  S    
C162  O40   A    
C9    C14   A    
C159  O39   A    
C92   O11   A    
C11   C16   A    
C39   C142  A    
C6    O6    A    
C21   H49   S    
C125  H83   S    
C88   N6    S    
C27   C144  A    
C3    C20   A    
C118  H34   S    
C71   N2    S    
Cu5   O34   S    
C8    H56   S    
Cu11  O26   S    
Cu3   O4    S    
C73   H15   S    
C162  O41   A    
C19   C168  A    
C104  C108  A    
Cu7   O13   S    
C77   N8    S    
C101  H85   S    
C37   C143  S    
C79   C110  S    
C7    O8    A    
C132  H44   S    
Cu8   O22   S    
C166  O46   A    
C98   H102  S    
Cu1   O15   S    
Cu10  O29   S    
C18   C148  S    
C80   C136  S    
C67   H124  S    
C132  C137  A    
C35   C158  S    
C168  H51   S    
C66   H115  S    
C80   C111  S    
C124  C129  A    
Cu4   O8    S    
C24   C68   S    
C68   H94   S    
C74   H19   S    
C85   H98   S    
C31   H79   S    
C27   H75   S    
C76   H29   S    
Cu3   Cu4   S    
C119  H35   S    
C40   C142  A    
C136  H84   S    
C157  O37   A    
C164  O44   A    
C74   N5    S    
C45   H67   S    
C2    C46   S    
C24   C55   S    
C23   C145  S    
C100  C105  A    
C134  H46   S    
Cu11  O33   S    
C131  C135  A    
C10   C15   A    
Cu2   O45   S    
C65   H120  S    
C11   H59   S    
H17   N5    S    
C154  O28   A    
C47   C82   S    
C117  C121  A    
C47   C60   S    
C5    C22   A    
C60   C147  S    
C42   C152  A    
C43   C48   S    
C76   H27   S    
C53   C154  S    
C167  O47   A    
C38   C142  S    
H4    N2    S    
C26   C144  A    
C128  C132  A    
C109  O14   A    
C116  C138  A    
Cu6   O19   S    
Cu10  O35   S    
C69   H122  S    
C74   H18   S    
C63   H114  S    
Cu2   Cu12  S    
C67   C69   S    
C111  O16   A    
Cu2   O41   S    
C110  O19   A    
C140  C157  S    
C14   H61   S    
C81   C93   S    
C43   C56   S    
Cu9   O28   S    
C84   H97   S    
H21   N6    S    
C86   H99   S    
C128  H39   S    
C70   H128  S    
C148  O26   A    
C124  C166  S    
C116  H13   S    
Cu8   Cu9   S    
C10   H58   S    
C7    O7    A    
Cu11  O39   S    
C3    C160  A    
C13   C136  S    
C153  O31   A    
C71   H6    S    
C140  C150  A    
C72   H9    S    
C141  C151  A    
C81   O10   A    
C88   C93   A    
C55   C156  S    
C28   H76   S    
C35   H91   S    
C120  H36   S    
Cu4   O47   S    
C66   H117  S    
C148  O25   A    
C62   H105  S    
C121  C126  A    
C59   N3    S    
C4    C21   A    
C123  C128  A    
Cu1   O12   S    
C61   H109  S    
C51   C68   S    
C103  O34   A    
C97   C101  A    
C155  O33   A    
C75   N6    S    
C56   N1    S    
C77   H31   S    
C104  H107  S    
C113  C118  A    
C123  C165  S    
C52   C56   S    
C70   H3    S    
C141  C152  A    
C58   C125  S    
C16   C18   A    
C65   C66   S    
C5    H55   S    
C56   C114  S    
C102  H96   S    
C85   C107  A    
C1    O9    A    
C120  C124  A    
C99   H103  S    
