data_mof_unit_36451.cif
_audit_creation_date              2012-12-11T16:27:47-0500
_audit_creation_method            fapswitch 2.2
_symmetry_space_group_name_H-M    P1
_symmetry_Int_Tables_number       1
_space_group_crystal_system       triclinic
_cell_length_a                    30.337409
_cell_length_b                    22.738419
_cell_length_c                    18.109686
_cell_angle_alpha                 90.162493
_cell_angle_beta                  123.538189
_cell_angle_gamma                 90.313206
_cell_volume                      10412.3155223

loop_
_atom_site_label
_atom_site_type_symbol
_atom_type_description
_atom_site_fract_x
_atom_site_fract_y
_atom_site_fract_z
_atom_type_partial_charge
C1    C     C_R   0.544150 0.581238 0.742133 -0.130002
C2    C     C_R   0.641463 0.275916 0.509643 -0.199131
C3    C     C_R   0.796705 0.640130 0.017705 0.217662
C4    C     C_R   0.290557 0.839672 0.978671 0.214515
C5    C     C_R   0.706200 0.146867 0.996398 0.219539
C6    C     C_R   0.754509 0.736255 0.138056 0.224340
C7    C     C_R   0.294043 0.124561 0.054741 0.213328
C8    C     C_R   0.778961 0.184073 0.860773 -0.246638
C9    C     C_R   0.220928 0.801145 0.122425 -0.263446
C10   C     C_R   0.201401 0.204454 0.130836 -0.246606
C11   C     C_R   0.835472 0.674612 0.019841 -0.283870
C12   C     C_R   0.327034 0.800832 0.981887 -0.270068
C13   C     C_R   0.702132 0.599356 0.450624 -0.209618
C14   C     C_R   0.668287 0.182902 0.992545 -0.277972
C15   C     C_R   0.714071 0.699673 0.128647 -0.260750
C16   C     C_R   0.339612 0.150140 0.068127 -0.280464
C17   C     C_R   0.595191 0.585698 0.428434 -0.158882
C18   C     C_R   0.412977 0.402727 0.574425 -0.137765
C19   C     C_R   0.407497 0.588714 0.573676 -0.152730
C20   C     C_R   0.588066 0.404652 0.425351 -0.132520
C21   C     C_R   0.096955 0.076230 0.426796 -0.125283
C22   C     C_R   0.918163 0.895362 0.573230 -0.158551
C23   C     C_R   0.904007 0.077687 0.574058 -0.131898
C24   C     C_R   0.362878 0.273107 0.496954 -0.212548
C25   C     C_R   0.083751 0.896623 0.427780 -0.155919
C26   C     C_R   0.389049 0.600219 0.277008 -0.135991
C27   C     C_R   0.611554 0.400375 0.723806 -0.139585
C28   C     C_R   0.617837 0.582197 0.742208 -0.120841
C29   C     C_R   0.389313 0.397488 0.281004 -0.131390
C30   C     C_R   0.882712 0.084037 0.259723 -0.129640
C31   C     C_R   0.118045 0.920478 0.742627 -0.145961
C32   C     C_R   0.116989 0.085477 0.741338 -0.127665
C33   C     C_R   0.887067 0.902821 0.271479 -0.141976
C34   C     C_R   0.597442 0.596113 0.792774 0.052710
C35   C     C_R   0.819568 0.136523 0.579738 -0.211454
C36   C     C_R   0.416100 0.366874 0.251210 0.049848
C37   C     C_R   0.415554 0.625757 0.241799 0.057161
C38   C     C_R   0.585799 0.374359 0.759499 0.053489
C39   C     C_R   0.095133 0.101830 0.789281 0.052548
C40   C     C_R   0.912805 0.876428 0.236265 0.057321
C41   C     C_R   0.903501 0.099646 0.210411 0.053590
C42   C     C_R   0.097985 0.906390 0.792944 0.064405
C43   C     C_R   0.643763 0.602218 0.504223 0.081965
C44   C     C_R   0.368708 0.378604 0.500833 0.092377
C45   C     C_R   0.360401 0.607613 0.498933 0.094159
C46   C     C_R   0.120122 0.767101 0.454845 -0.210315
C47   C     C_R   0.632194 0.380939 0.498579 0.096812
C48   C     C_R   0.147853 0.086792 0.500296 0.076101
C49   C     C_R   0.876480 0.867904 0.497681 0.092748
C50   C     C_R   0.853707 0.089102 0.501051 0.075844
C51   C     C_R   0.123475 0.867943 0.503374 0.090164
C52   C     C_R   0.238266 0.695088 0.424334 0.184559
C53   C     C_R   0.719661 0.279054 0.471126 0.130349
C54   C     C_R   0.772568 0.680816 0.579547 0.173698
C55   C     C_R   0.274072 0.275099 0.508913 0.131781
C56   C     C_R   0.714724 0.130874 0.430902 0.175364
C57   C     C_R   0.185819 0.120952 0.418471 -0.214712
C58   C     C_R   0.229445 0.753911 0.575803 0.173446
C59   C     C_R   0.287176 0.132624 0.574587 0.182054
C60   C     C_R   0.767666 0.756796 0.427624 0.177174
C61   C     C_R   0.286822 0.679106 0.436803 0.143243
C62   C     C_R   0.698576 0.332575 0.478878 0.156520
C63   C     C_R   0.726613 0.664336 0.576740 0.135340
C64   C     C_R   0.296755 0.328930 0.505183 0.158948
C65   C     C_R   0.754122 0.095676 0.433148 0.142184
C66   C     C_R   0.206534 0.809310 0.568497 0.136795
C67   C     C_R   0.248342 0.097139 0.574512 0.149334
C68   C     C_R   0.878595 0.763547 0.528188 -0.211350
C69   C     C_R   0.792504 0.812200 0.441066 0.137714
C70   C     C_R   0.314768 0.631503 0.493981 0.033135
C71   C     C_R   0.658740 0.329396 0.496437 0.030297
C72   C     C_R   0.691275 0.622912 0.510454 0.040552
C73   C     C_R   0.341863 0.326374 0.501245 0.039685
C74   C     C_R   0.807946 0.105057 0.504405 0.020554
C75   C     C_R   0.150936 0.814616 0.508028 0.042815
C76   C     C_R   0.195153 0.099324 0.498372 0.017166
C77   C     C_R   0.848578 0.814347 0.491397 0.036076
C78   C     C_3   0.719447 0.267469 0.771087 -0.358257
C79   C     C_R   0.251928 0.623246 0.535121 -0.232999
C80   C     C_3   0.759004 0.283214 0.746558 -0.947223
C81   C     C_3   0.251114 0.696935 0.145129 -0.396231
C82   C     C_3   0.193762 0.674783 0.094514 -0.895492
C83   C     C_3   0.271218 0.275853 0.238241 -0.354301
C84   C     C_3   0.232918 0.295786 0.263417 -0.957769
C85   C     C_3   0.790130 0.576736 0.985858 -0.385624
C86   C     C_3   0.840866 0.541725 0.043743 -0.881997
C87   C     C_3   0.281822 0.897763 0.930556 -0.387324
C88   C     C_3   0.333698 0.929504 0.959340 -0.897000
C89   C     C_3   0.716129 0.087459 0.041432 -0.389963
C90   C     C_R   0.663995 0.224237 0.507528 -0.219332
C91   C     C_3   0.666040 0.049382 0.997340 -0.880501
C92   C     C_3   0.755896 0.799621 0.168164 -0.391266
C93   C     C_3   0.701136 0.826792 0.128721 -0.915883
C94   C     C_3   0.283694 0.059658 0.031039 -0.384817
C95   C     C_3   0.326212 0.022370 0.107099 -0.873939
C96   C     C_3   0.198638 0.732332 0.345586 -0.382185
C97   C     C_3   0.207188 0.798371 0.363818 -0.892332
C98   C     C_3   0.760679 0.278508 0.446716 -0.337153
C99   C     C_3   0.738744 0.301118 0.353113 -0.899124
C100  C     C_3   0.818449 0.712712 0.659812 -0.376609
C101  C     C_R   0.743856 0.621137 0.447999 -0.236315
C102  C     C_3   0.812117 0.779520 0.655996 -0.883398
C103  C     C_3   0.226662 0.274417 0.517838 -0.343647
C104  C     C_3   0.239874 0.299251 0.606591 -0.892266
C105  C     C_3   0.656397 0.126853 0.356353 -0.330614
C106  C     C_3   0.640394 0.173980 0.286016 -0.895222
C107  C     C_3   0.284939 0.740109 0.654621 -0.375809
C108  C     C_3   0.328529 0.758060 0.640834 -0.882550
C109  C     C_3   0.344464 0.136553 0.653489 -0.334417
C110  C     C_3   0.354650 0.189389 0.713436 -0.889320
C111  C     C_3   0.708915 0.748551 0.357298 -0.380223
C112  C     C_R   0.463390 0.397060 0.282071 -0.133090
C113  C     C_R   0.339531 0.220911 0.495986 -0.213512
C114  C     C_3   0.673489 0.764051 0.390007 -0.879257
C115  C     C_3   0.311429 0.715737 0.397365 -0.386648
C116  C     C_3   0.358102 0.752795 0.468100 -0.882126
C117  C     C_3   0.720818 0.392543 0.476941 -0.322209
C118  C     C_3   0.684779 0.425252 0.389881 -0.921184
C119  C     C_3   0.713324 0.695045 0.637798 -0.373343
C120  C     C_3   0.665412 0.735307 0.586919 -0.880656
C121  C     C_3   0.272157 0.388530 0.499486 -0.330708
C122  C     C_3   0.303280 0.423107 0.586758 -0.916353
C123  C     C_3   0.739060 0.046586 0.365426 -0.356561
C124  C     C_R   0.781091 0.168561 0.578529 -0.237876
C125  C     C_3   0.719351 0.069019 0.272334 -0.928616
C126  C     C_3   0.241777 0.863423 0.615180 -0.369040
C127  C     C_3   0.242842 0.904039 0.549126 -0.917297
C128  C     C_3   0.264138 0.054114 0.649487 -0.356459
C129  C     C_3   0.279096 0.083945 0.736632 -0.929108
C130  C     C_3   0.760197 0.868977 0.410961 -0.364398
C131  C     C_3   0.768486 0.903934 0.490036 -0.920473
C132  C     C_R   0.144040 0.715603 0.454686 -0.231857
C133  C     C_R   0.224313 0.152573 0.417873 -0.233383
C134  C     C_R   0.854009 0.710829 0.522659 -0.232820
C135  C     C_R   0.225383 0.671887 0.482820 0.058291
C136  C     C_R   0.702572 0.225303 0.488622 0.067587
C137  C     C_R   0.776135 0.665187 0.507265 0.061930
C138  C     C_R   0.296133 0.221320 0.502877 0.070599
C139  C     C_R   0.730916 0.171094 0.501114 0.024998
C140  C     C_R   0.463605 0.598082 0.277810 -0.133010
C141  C     C_R   0.198728 0.710381 0.510563 0.061515
C142  C     C_R   0.271631 0.164958 0.497590 0.021402
C143  C     C_R   0.799122 0.708269 0.477947 0.062484
C144  C     C_R   0.394978 0.671731 0.175594 0.136687
C145  C     C_R   0.605485 0.324353 0.819704 0.135280
C146  C     C_R   0.629125 0.612384 0.887450 0.136624
C147  C     C_R   0.398204 0.309977 0.203849 0.134986
C148  C     C_R   0.871520 0.117464 0.116751 0.135575
C149  C     C_R   0.131202 0.888373 0.885472 0.133220
C150  C     C_R   0.123470 0.122801 0.882291 0.137472
C151  C     C_R   0.538009 0.402617 0.724900 -0.135074
C152  C     C_R   0.893591 0.824963 0.178251 0.135870
C153  C     C_R   0.386796 0.719376 0.049791 -0.198783
C154  C     C_R   0.614221 0.269088 0.939808 -0.195246
C155  C     C_R   0.637799 0.639980 0.024565 -0.197775
C156  C     C_R   0.399223 0.233047 0.113266 -0.194448
C157  C     C_R   0.858357 0.133671 0.973544 -0.196187
C158  C     C_R   0.149032 0.868302 0.030615 -0.194718
C159  C     C_R   0.121849 0.161932 0.005680 -0.198903
C160  C     C_R   0.890689 0.761736 0.068642 -0.198349
C161  C     C_R   0.409651 0.676418 0.114830 -0.173391
C162  C     C_R   0.042488 0.084303 0.738923 -0.129514
C163  C     C_R   0.593788 0.317027 0.883515 -0.174212
C164  C     C_R   0.607479 0.616434 0.938753 -0.170645
C165  C     C_R   0.417929 0.287200 0.156120 -0.173750
C166  C     C_R   0.890297 0.114625 0.061242 -0.168620
C167  C     C_R   0.116242 0.892376 0.946007 -0.172193
C168  C     C_R   0.095443 0.138351 0.920473 -0.168502
C169  C     C_R   0.909903 0.812205 0.121307 -0.177356
C170  C     C_R   0.358136 0.709946 0.171344 -0.284307
C171  C     C_R   0.636679 0.283266 0.811889 -0.280401
C172  C     C_R   0.682305 0.626349 0.926344 -0.277319
C173  C     C_R   0.961377 0.903751 0.273202 -0.136057
C174  C     C_R   0.360720 0.277443 0.209112 -0.273231
C175  C     C_R   0.820010 0.136404 0.081742 -0.280063
C176  C     C_R   0.180021 0.865025 0.912368 -0.283339
C177  C     C_R   0.178692 0.127962 0.933586 -0.275851
C178  C     C_R   0.858806 0.787026 0.182401 -0.284616
C179  C     C_R   0.329097 0.746768 0.098959 0.091127
C180  C     C_R   0.665580 0.240927 0.877134 0.097757
C181  C     C_R   0.713996 0.646259 0.013601 0.085466
C182  C     C_R   0.333880 0.228911 0.153856 0.095723
C183  C     C_R   0.785889 0.149699 0.991984 0.089688
C184  C     C_R   0.956347 0.083114 0.259374 -0.129664
C185  C     C_R   0.215708 0.847832 0.998652 0.088161
C186  C     C_R   0.206040 0.149950 0.021087 0.087653
C187  C     C_R   0.831258 0.743644 0.118224 0.095417
C188  C     C_R   0.346904 0.755045 0.042058 0.155359
C189  C     C_R   0.650026 0.231417 0.937543 0.158940
C190  C     C_R   0.689837 0.659154 0.059181 0.152004
C191  C     C_R   0.357132 0.204361 0.110613 0.159915
C192  C     C_R   0.806994 0.154016 0.940339 0.138978
C193  C     C_R   0.197190 0.842259 0.054629 0.160783
C194  C     C_R   0.176682 0.170823 0.053928 0.137507
C195  C     C_R   0.044797 0.920313 0.743365 -0.141518
C196  C     C_R   0.851708 0.727155 0.067164 0.163194
C197  C     C_R   0.284156 0.776958 0.083731 -0.042976
C198  C     C_R   0.709611 0.208811 0.887316 -0.071616
C199  C     C_R   0.766170 0.665057 0.047725 -0.042315
C200  C     C_R   0.284107 0.205398 0.135110 -0.074102
C201  C     C_R   0.733317 0.166599 0.957127 -0.039219
C202  C     C_R   0.264484 0.823707 0.022125 -0.057477
C203  C     C_R   0.261415 0.158475 0.071464 -0.028858
C204  C     C_R   0.785156 0.715318 0.104336 -0.058801
C205  C     C_R   0.643833 0.582684 0.575587 -0.104404
C206  C     C_R   0.295931 0.602350 0.539259 -0.211846
C207  C     C_R   0.362168 0.404185 0.426650 -0.164459
C208  C     C_R   0.358068 0.586502 0.425842 -0.137901
C209  C     C_R   0.637823 0.404993 0.573217 -0.168507
C210  C     C_R   0.145208 0.078796 0.573446 -0.150605
C211  C     C_R   0.867674 0.897686 0.425044 -0.134928
C212  C     C_R   0.855267 0.079490 0.427121 -0.148695
C213  C     C_R   0.130139 0.896300 0.575792 -0.127243
C214  C     C_R   0.734891 0.218800 0.839341 0.211611
C215  C     C_R   0.255798 0.760468 0.123078 0.217397
C216  C     C_R   0.252847 0.227582 0.167821 0.211416
H1    H     H_    0.517777 0.578510 0.764559 0.085622
H2    H     H_    0.351562 0.709896 0.224288 0.127282
H3    H     H_    0.778963 0.575907 0.916160 0.177060
H4    H     H_    0.360637 0.930745 0.032655 0.268614
H5    H     H_    0.353944 0.907383 0.931418 0.249671
H6    H     H_    0.325281 0.975237 0.934102 0.249680
H7    H     H_    0.259713 0.889380 0.858019 0.175005
H8    H     H_    0.258684 0.928588 0.943723 0.205309
H9    H     H_    0.635748 0.069196 0.005853 0.254354
H10   H     H_    0.649488 0.044009 0.925552 0.262711
H11   H     H_    0.675766 0.005243 0.028398 0.246912
H12   H     H_    0.745860 0.061740 0.037822 0.205216
H13   H     H_    0.356537 0.289600 0.261379 0.115850
H14   H     H_    0.730974 0.094206 0.112350 0.183841
H15   H     H_    0.676206 0.819813 0.055813 0.272530
H16   H     H_    0.680874 0.808115 0.158924 0.246283
H17   H     H_    0.705531 0.874878 0.142370 0.246059
H18   H     H_    0.778064 0.801645 0.241636 0.179884
H19   H     H_    0.774455 0.829248 0.144383 0.205550
H20   H     H_    0.364801 0.028303 0.114417 0.255242
H21   H     H_    0.330578 0.034871 0.170205 0.260435
H22   H     H_    0.314667 0.975222 0.093960 0.258277
H23   H     H_    0.245406 0.044917 0.019366 0.204550
H24   H     H_    0.698347 0.627498 0.886115 0.120238
H25   H     H_    0.282645 0.050921 0.969716 0.182455
H26   H     H_    0.190290 0.812703 0.401423 0.275724
H27   H     H_    0.249696 0.810509 0.401564 0.261880
H28   H     H_    0.186425 0.822402 0.300041 0.240962
H29   H     H_    0.200081 0.721111 0.287222 0.172197
H30   H     H_    0.157586 0.720760 0.323772 0.191310
H31   H     H_    0.762942 0.283977 0.329122 0.245678
H32   H     H_    0.740858 0.349684 0.352413 0.270280
H33   H     H_    0.697245 0.286385 0.306348 0.259711
H34   H     H_    0.796514 0.303884 0.496110 0.168888
H35   H     H_    0.188600 0.854837 0.863340 0.124099
H36   H     H_    0.775230 0.233728 0.448440 0.207571
H37   H     H_    0.826780 0.799161 0.617704 0.272531
H38   H     H_    0.770312 0.792398 0.625217 0.260462
H39   H     H_    0.836075 0.798203 0.724080 0.242554
H40   H     H_    0.823427 0.695538 0.721328 0.165816
H41   H     H_    0.856523 0.701927 0.668138 0.191225
H42   H     H_    0.211455 0.281468 0.621517 0.246467
H43   H     H_    0.236216 0.347707 0.604347 0.266454
H44   H     H_    0.280348 0.286949 0.661289 0.260753
H45   H     H_    0.192867 0.298232 0.461977 0.169186
H46   H     H_    0.806877 0.143577 0.125595 0.123302
H47   H     H_    0.211213 0.229551 0.513182 0.208976
H48   H     H_    0.636549 0.217284 0.310105 0.260983
H49   H     H_    0.669780 0.177739 0.267953 0.266512
H50   H     H_    0.601353 0.162348 0.225609 0.241721
H51   H     H_    0.645551 0.083048 0.324145 0.185826
H52   H     H_    0.631739 0.131425 0.383921 0.176151
H53   H     H_    0.366136 0.765205 0.706130 0.241466
H54   H     H_    0.318653 0.798943 0.601699 0.262685
H55   H     H_    0.335206 0.722631 0.606397 0.273881
H56   H     H_    0.291690 0.762003 0.715019 0.166679
H57   H     H_    0.853487 0.791830 0.236303 0.127011
H58   H     H_    0.288743 0.692764 0.671225 0.191946
H59   H     H_    0.355615 0.230757 0.682111 0.261354
H60   H     H_    0.323777 0.192622 0.728122 0.264869
H61   H     H_    0.393692 0.184634 0.776860 0.242797
H62   H     H_    0.357129 0.096064 0.693545 0.185395
H63   H     H_    0.371221 0.139663 0.629810 0.177100
H64   H     H_    0.633569 0.775946 0.332759 0.243151
H65   H     H_    0.689707 0.801366 0.437642 0.261850
H66   H     H_    0.668791 0.725686 0.422296 0.273181
H67   H     H_    0.697881 0.775420 0.298541 0.168580
H68   H     H_    0.200335 0.117841 0.903882 0.119500
H69   H     H_    0.699987 0.703021 0.330724 0.190569
H70   H     H_    0.376012 0.776948 0.437561 0.251025
H71   H     H_    0.344546 0.785457 0.496833 0.254314
H72   H     H_    0.388985 0.724847 0.521823 0.264579
H73   H     H_    0.325130 0.687616 0.364326 0.179274
H74   H     H_    0.283229 0.746240 0.345361 0.208227
H75   H     H_    0.662685 0.394214 0.333115 0.263198
H76   H     H_    0.656311 0.453002 0.394019 0.252290
H77   H     H_    0.708929 0.455081 0.377082 0.247062
H78   H     H_    0.727207 0.420125 0.532904 0.175094
H79   H     H_    0.568488 0.347616 0.888990 0.114157
H80   H     H_    0.760578 0.389023 0.488807 0.186261
H81   H     H_    0.657412 0.756016 0.633942 0.250158
H82   H     H_    0.673549 0.770788 0.554017 0.253007
H83   H     H_    0.629384 0.710850 0.536385 0.266873
H84   H     H_    0.707529 0.663501 0.677795 0.173776
H85   H     H_    0.745833 0.723061 0.688899 0.210136
H86   H     H_    0.317821 0.393721 0.644517 0.264182
H87   H     H_    0.337440 0.446344 0.593243 0.254136
H88   H     H_    0.277423 0.456933 0.587996 0.245948
H89   H     H_    0.269922 0.415047 0.446069 0.175877
H90   H     H_    0.438664 0.647314 0.117695 0.112231
H91   H     H_    0.230611 0.384381 0.479353 0.189533
H92   H     H_    0.675791 0.073983 0.232105 0.270448
H93   H     H_    0.737762 0.111979 0.274924 0.253595
H94   H     H_    0.729141 0.036601 0.237587 0.245854
H95   H     H_    0.772775 0.016511 0.387663 0.194342
H96   H     H_    0.708278 0.017898 0.361923 0.174741
H97   H     H_    0.255541 0.879608 0.511033 0.261831
H98   H     H_    0.203528 0.923808 0.502834 0.267180
H99   H     H_    0.271982 0.939858 0.585291 0.241607
H100  H     H_    0.229925 0.888303 0.653694 0.175490
H101  H     H_    0.448248 0.310375 0.153385 0.113252
H102  H     H_    0.283267 0.852139 0.665455 0.209825
H103  H     H_    0.269599 0.053978 0.774430 0.240396
H104  H     H_    0.322123 0.093393 0.778996 0.268019
H105  H     H_    0.257322 0.125694 0.724522 0.258329
H106  H     H_    0.232334 0.021108 0.629505 0.191744
H107  H     H_    0.297864 0.027261 0.661538 0.172642
H108  H     H_    0.758988 0.876262 0.529835 0.261582
H109  H     H_    0.809763 0.920361 0.532899 0.266686
H110  H     H_    0.741750 0.942264 0.466380 0.242897
H111  H     H_    0.769719 0.896977 0.371816 0.180700
H112  H     H_    0.491821 0.386827 0.266217 0.088238
H113  H     H_    0.566593 0.604968 0.911398 0.109399
H114  H     H_    0.717235 0.861096 0.365892 0.211476
H115  H     H_    0.078496 0.910723 0.926676 0.111647
H116  H     H_    0.929828 0.099588 0.085755 0.108387
H117  H     H_    0.938118 0.840161 0.119031 0.112699
H118  H     H_    0.052849 0.134997 0.883769 0.108178
H119  H     H_    0.399960 0.724464 0.005378 0.119403
H120  H     H_    0.603153 0.262262 0.986754 0.120675
H121  H     H_    0.619108 0.648107 0.060124 0.118307
H122  H     H_    0.416348 0.214501 0.079462 0.120908
H123  H     H_    0.874627 0.135099 0.933272 0.117316
H124  H     H_    0.492796 0.605144 0.262136 0.091778
H125  H     H_    0.134941 0.865810 0.073993 0.118720
H126  H     H_    0.098923 0.176585 0.031520 0.116764
H127  H     H_    0.905647 0.750168 0.028323 0.119264
H128  H     H_    0.677923 0.575447 0.641789 0.077226
H129  H     H_    0.329179 0.397773 0.359235 0.099433
H130  H     H_    0.323607 0.584296 0.358600 0.087156
H131  H     H_    0.669968 0.398010 0.640988 0.099565
H132  H     H_    0.176781 0.079241 0.642078 0.132326
H133  H     H_    0.837646 0.888079 0.356901 0.083037
H134  H     H_    0.823016 0.079897 0.358727 0.127729
H135  H     H_    0.510596 0.396189 0.744379 0.087789
H136  H     H_    0.155658 0.884219 0.644493 0.086653
H137  H     H_    0.585229 0.585727 0.361161 0.095390
H138  H     H_    0.426673 0.394668 0.642462 0.100153
H139  H     H_    0.418289 0.590082 0.641439 0.097298
H140  H     H_    0.575349 0.397946 0.357375 0.099727
H141  H     H_    0.085440 0.070468 0.359113 0.084853
H142  H     H_    0.934839 0.883499 0.641453 0.105660
H143  H     H_    0.915294 0.073118 0.641782 0.087166
H144  H     H_    0.070828 0.886522 0.360523 0.098996
H145  H     H_    0.349177 0.608537 0.258625 0.088066
H146  H     H_    0.015365 0.082175 0.759822 0.083603
H147  H     H_    0.651483 0.392318 0.742741 0.092909
H148  H     H_    0.658882 0.578815 0.764451 0.080313
H149  H     H_    0.349520 0.389529 0.262873 0.089214
H150  H     H_    0.841451 0.081208 0.236805 0.085343
H151  H     H_    0.159224 0.926237 0.766153 0.083669
H152  H     H_    0.158374 0.085010 0.764864 0.086642
H153  H     H_    0.846056 0.897151 0.248203 0.089070
H154  H     H_    0.316758 0.564979 0.580964 0.140729
H155  H     H_    0.610997 0.274452 0.523567 0.140681
H156  H     H_    0.676249 0.566607 0.401974 0.137527
H157  H     H_    0.988974 0.897709 0.254097 0.084851
H158  H     H_    0.397132 0.272140 0.492656 0.143280
H159  H     H_    0.859689 0.142375 0.636499 0.132963
H160  H     H_    0.077613 0.771008 0.410027 0.143628
H161  H     H_    0.147026 0.120131 0.357629 0.132338
H162  H     H_    0.921373 0.765354 0.564455 0.144253
H163  H     H_    0.792724 0.198431 0.633129 0.135524
H164  H     H_    0.120524 0.681675 0.406143 0.134187
H165  H     H_    0.213878 0.175267 0.357884 0.138953
H166  H     H_    0.877885 0.673296 0.559489 0.133632
H167  H     H_    0.241208 0.604738 0.578253 0.132983
H168  H     H_    0.982580 0.081426 0.236591 0.085548
H169  H     H_    0.652162 0.183294 0.522515 0.134543
H170  H     H_    0.747682 0.608068 0.394211 0.134184
H171  H     H_    0.355295 0.179902 0.489776 0.133443
H172  H     H_    0.796148 0.186104 0.822114 0.150809
H173  H     H_    0.203581 0.792186 0.159969 0.138803
H174  H     H_    0.177390 0.217435 0.155078 0.150545
H175  H     H_    0.854833 0.658964 0.988100 0.136741
H176  H     H_    0.342838 0.808707 0.941771 0.140124
H177  H     H_    0.652101 0.172243 0.031415 0.140911
H178  H     H_    0.694328 0.711120 0.161431 0.137457
H179  H     H_    0.019078 0.922898 0.767126 0.086327
H180  H     H_    0.361785 0.127196 0.046323 0.139067
H181  H     H_    0.798896 0.292040 0.806916 0.264636
H182  H     H_    0.760665 0.247562 0.706375 0.258587
H183  H     H_    0.745718 0.323511 0.705398 0.250899
H184  H     H_    0.682240 0.254431 0.708211 0.192290
H185  H     H_    0.715265 0.308986 0.798928 0.195256
H186  H     H_    0.171240 0.696819 0.118303 0.248557
H187  H     H_    0.174007 0.682580 0.022376 0.268058
H188  H     H_    0.193150 0.626800 0.105281 0.245517
H189  H     H_    0.271345 0.666161 0.125982 0.205471
H190  H     H_    0.634906 0.284337 0.751511 0.119736
H191  H     H_    0.268585 0.692828 0.216824 0.171584
H192  H     H_    0.195844 0.312979 0.204714 0.261424
H193  H     H_    0.224157 0.259329 0.294024 0.258128
H194  H     H_    0.251409 0.332026 0.312823 0.249808
H195  H     H_    0.306913 0.260129 0.300698 0.200567
H196  H     H_    0.278877 0.316236 0.212674 0.190032
H197  H     H_    0.873193 0.559026 0.038174 0.252463
H198  H     H_    0.853459 0.543743 0.114137 0.262391
H199  H     H_    0.833632 0.494998 0.021830 0.247677
H200  H     H_    0.758925 0.553290 0.988631 0.204914
N1    N     N_R   0.532910 0.558440 0.665240 -0.038761
N2    N     N_R   0.402970 0.441090 0.454460 -0.035307
N3    N     N_R   0.402970 0.558910 0.454460 -0.036613
N4    N     N_R   0.597030 0.441090 0.545540 -0.036177
N5    N     N_R   0.097030 0.058910 0.545540 -0.041040
N6    N     N_R   0.902970 0.941090 0.454460 -0.037666
N7    N     N_R   0.902970 0.058910 0.454460 -0.040396
N8    N     N_R   0.097030 0.941090 0.545540 -0.039695
N9    N     N_R   0.566200 0.559270 0.454460 -0.038905
N10   N     N_R   0.433800 0.440730 0.545540 -0.040947
N11   N     N_R   0.433800 0.559270 0.545540 -0.038146
N12   N     N_R   0.467090 0.441560 0.334760 -0.039563
N13   N     N_R   0.566200 0.440730 0.454460 -0.041147
N14   N     N_R   0.066200 0.059270 0.454460 -0.039695
N15   N     N_R   0.933800 0.940730 0.545540 -0.038785
N16   N     N_R   0.933800 0.059270 0.545540 -0.039011
N17   N     N_R   0.066200 0.940730 0.454460 -0.038465
N18   N     N_R   0.421050 0.559750 0.334770 -0.037863
N19   N     N_R   0.578950 0.440250 0.665230 -0.037088
N20   N     N_R   0.578950 0.559750 0.665230 -0.039517
N21   N     N_R   0.421050 0.440250 0.334770 -0.038138
N22   N     N_R   0.921050 0.059750 0.334770 -0.038851
N23   N     N_R   0.467090 0.558440 0.334760 -0.038858
N24   N     N_R   0.078950 0.940250 0.665230 -0.036572
N25   N     N_R   0.078950 0.059750 0.665230 -0.038467
N26   N     N_R   0.921050 0.940250 0.334770 -0.035882
N27   N     N_R   0.532910 0.441560 0.665240 -0.038051
N28   N     N_R   0.032910 0.058440 0.665240 -0.037904
N29   N     N_R   0.967090 0.941560 0.334760 -0.036238
N30   N     N_R   0.967090 0.058440 0.334760 -0.039066
N31   N     N_R   0.032910 0.941560 0.665240 -0.036046
N32   N     N_R   0.597030 0.558910 0.545540 -0.040845
Ni1   Ni    Ni4+2 0.483090 0.500000 0.604440 0.206604
Ni2   Ni    Ni4+2 0.516910 0.500000 0.395560 0.207471
Ni3   Ni    Ni4+2 0.983090 1.000000 0.604440 0.207020
Ni4   Ni    Ni4+2 0.016910 1.000000 0.395560 0.208520
Ni5   Ni    Ni4+2 0.586780 0.500000 0.604440 0.208763
Ni6   Ni    Ni4+2 0.413220 0.500000 0.395560 0.214628
Ni7   Ni    Ni4+2 0.086780 1.000000 0.604440 0.205653
Ni8   Ni    Ni4+2 0.913220 1.000000 0.395560 0.209101

loop_
_geom_bond_atom_site_label_1
_geom_bond_atom_site_label_2
_ccdc_geom_bond_type
C159  C194  A    
C126  C127  S    
N17   Ni4   S    
C11   H175  S    
C3    C85   S    
C2    H155  S    
C118  H77   S    
C27   H147  S    
C119  H84   S    
C54   C100  S    
C96   C97   S    
C78   C214  S    
C126  H100  S    
C109  H62   S    
C46   H160  S    
C4    C87   S    
C105  H52   S    
C53   C136  A    
C39   C150  S    
N6    N15   A    
C122  H88   S    
C57   C76   A    
C108  H53   S    
C31   C42   A    
C8    C214  A    
C52   C61   A    
C175  H46   S    
C144  C161  A    
C184  N30   A    
C164  H113  S    
C102  H39   S    
C84   H193  S    
N15   Ni3   S    
C2    C90   A    
C7    C203  A    
C134  C143  A    
C14   C189  A    
C114  H66   S    
C59   C142  A    
C61   C115  S    
C82   H188  S    
C123  H96   S    
C114  H65   S    
C4    C12   A    
N3    N11   A    
C160  C196  A    
C21   C48   A    
C93   H15   S    
C107  H56   S    
C166  H116  S    
C57   C133  A    
C86   H197  S    
C158  C167  A    
C158  C193  A    
C211  H133  S    
N22   Ni8   S    
C132  H164  S    
C12   H176  S    
C101  C137  A    
N25   N28   A    
C179  C188  A    
N19   Ni5   S    
C187  C204  A    
C177  C186  A    
C153  C161  A    
C104  H43   S    
C87   H7    S    
C185  C202  A    
C17   C43   A    
C18   C44   A    
C31   N24   A    
C181  C190  A    
C35   H159  S    
N24   Ni7   S    
C150  C168  A    
C106  H48   S    
C103  H45   S    
C212  N7    A    
N1    N20   A    
C151  N27   A    
C47   C71   S    
C30   H150  S    
C22   C49   A    
C153  C188  A    
C154  C189  A    
C19   N11   A    
C80   H181  S    
C199  C204  A    
C88   H6    S    
C118  H75   S    
C156  H122  S    
C2    C71   A    
C162  H146  S    
C96   H29   S    
C131  H110  S    
C175  C183  A    
C105  C106  S    
C68   C77   A    
C100  H41   S    
C35   C124  A    
C106  H49   S    
C121  H89   S    
C78   H185  S    
C161  H90   S    
C122  H86   S    
C108  H55   S    
C154  H120  S    
C8    H172  S    
C13   C72   A    
C145  C163  A    
C102  H37   S    
C125  H92   S    
C130  C131  S    
C158  H125  S    
C34   C146  S    
C58   C141  A    
C8    C192  A    
C6    C92   S    
C68   C134  A    
C59   C109  S    
C9    C193  A    
C26   N18   A    
C42   C195  A    
C195  N31   A    
C20   C47   A    
C3    C11   A    
C94   H23   S    
C98   C99   S    
C54   C63   A    
C173  H157  S    
N9    N32   A    
C100  H40   S    
C5    C89   S    
N7    N16   A    
C127  H99   S    
C37   C144  S    
C48   C76   S    
C124  C139  A    
C69   C77   A    
C20   H140  S    
C99   H33   S    
C128  C129  S    
C174  C182  A    
C25   C51   A    
C83   C216  S    
C147  C174  A    
C85   C86   S    
C9    C215  A    
C86   H198  S    
C133  C142  A    
C84   H192  S    
C151  H135  S    
C180  C189  A    
N5    Ni7   S    
C60   C143  A    
C46   C132  A    
C78   C80   S    
C207  H129  S    
C115  C116  S    
C207  N2    A    
C40   C152  S    
C58   C107  S    
C95   H21   S    
C133  H165  S    
C62   C117  S    
N20   Ni5   S    
C147  C165  A    
C59   C67   A    
C97   H26   S    
C172  C181  A    
C52   C96   S    
C10   H174  S    
C107  C108  S    
C208  N3    A    
C89   C91   S    
C24   H158  S    
C131  H108  S    
N30   Ni4   S    
C110  H61   S    
C50   C212  A    
C121  H91   S    
N27   Ni1   S    
C162  N28   A    
C112  N12   A    
N21   Ni6   S    
C173  N29   A    
C46   C75   A    
C112  H112  S    
C1    C34   A    
C111  H69   S    
C13   H156  S    
C180  C198  A    
N28   Ni3   S    
C21   N14   A    
C18   H138  S    
N32   Ni5   S    
C213  N8    A    
C146  C164  A    
C44   C207  A    
C65   C74   A    
C66   C126  S    
C129  H105  S    
C16   C191  A    
C167  H115  S    
C63   C119  S    
C83   C84   S    
C115  H74   S    
N24   N31   A    
C197  C202  A    
C104  H42   S    
C39   C162  A    
C206  H154  S    
C29   N21   A    
C150  C177  A    
C172  H24   S    
C178  H57   S    
C127  H97   S    
C45   C208  A    
C47   C209  A    
C91   H10   S    
C95   H20   S    
C89   H12   S    
C99   H31   S    
C181  C199  A    
C38   C151  A    
N13   Ni2   S    
C132  C141  A    
C113  C138  A    
C111  H67   S    
C186  C194  A    
C27   N19   A    
N10   Ni1   S    
C163  H79   S    
C19   C45   A    
C53   C98   S    
C105  H51   S    
N2    Ni6   S    
C170  C179  A    
C15   H178  S    
C21   H141  S    
C101  H170  S    
C108  H54   S    
C60   C111  S    
C67   C128  S    
C97   H28   S    
C98   H36   S    
C10   C216  A    
C81   C215  S    
C41   C148  S    
C60   C69   A    
C26   H145  S    
C200  C216  A    
C49   C77   S    
C186  C203  A    
C124  H163  S    
C18   N10   A    
N18   Ni6   S    
N6    Ni8   S    
C120  H81   S    
C140  N23   A    
C110  H59   S    
C156  C191  A    
C135  C141  S    
C19   H139  S    
C123  H95   S    
C83   H196  S    
C61   C70   A    
C87   C88   S    
C35   C74   A    
N14   Ni4   S    
N8    Ni7   S    
C187  C196  A    
C148  C166  A    
N12   Ni2   S    
C20   N13   A    
C149  C167  A    
N11   Ni1   S    
C80   H183  S    
C183  C192  A    
C176  C185  A    
C28   N20   A    
C94   H25   S    
C78   H184  S    
C10   C194  A    
C24   C73   A    
C123  C125  S    
C54   C137  A    
C27   C38   A    
C64   C121  S    
C209  H131  S    
C144  C170  A    
C116  H71   S    
C104  H44   S    
C32   C39   A    
C42   C149  S    
C113  H171  S    
C131  H109  S    
N3    Ni6   S    
C37   C140  A    
C36   C112  A    
C160  C169  A    
C89   H14   S    
C22   H142  S    
C28   C34   A    
C160  H127  S    
C184  H168  S    
C118  H76   S    
C84   H194  S    
C28   H148  S    
C136  C139  S    
C96   H30   S    
C109  H63   S    
C157  H123  S    
C209  N4    A    
C106  H50   S    
C57   H161  S    
C122  H87   S    
C210  H132  S    
C11   C196  A    
C138  C142  S    
C98   H34   S    
C56   C139  A    
C23   C50   A    
C93   H17   S    
C205  N32   A    
C88   H4    S    
C102  H38   S    
C183  C201  A    
C120  H83   S    
C6    C204  A    
C155  C190  A    
C36   C147  S    
C4    C202  A    
C130  H114  S    
C82   H187  S    
C182  C200  A    
N4    N13   A    
N25   Ni7   S    
C121  C122  S    
C178  C187  A    
C93   H16   S    
C29   H149  S    
C7    C16   A    
C182  C191  A    
C155  H121  S    
N4    Ni5   S    
C134  H166  S    
C7    C94   S    
C31   H151  S    
C91   H11   S    
C45   C70   S    
C23   H143  S    
C119  C120  S    
C26   C37   A    
C33   N26   A    
C85   H200  S    
C79   C135  A    
C86   H199  S    
C92   H19   S    
C128  H107  S    
C117  H78   S    
C149  C176  A    
C87   H8    S    
C50   C74   S    
C157  C192  A    
C212  H134  S    
C109  C110  S    
C5    C201  A    
C152  C169  A    
C30   N22   A    
N29   Ni4   S    
C16   H180  S    
C156  C165  A    
C66   C75   A    
C92   C93   S    
C111  C114  S    
C65   C123  S    
N16   Ni3   S    
C44   C73   S    
C168  H118  S    
C56   C105  S    
C63   C72   A    
C103  C104  S    
C33   C40   A    
C88   H5    S    
C1    H1    S    
C23   N16   A    
N22   N30   A    
C125  H94   S    
C117  C118  S    
C56   C65   A    
C9    H173  S    
C165  H101  S    
C145  C171  A    
C43   C72   S    
C146  C172  A    
C43   C205  A    
C195  H179  S    
C14   H177  S    
C176  H35   S    
C81   C82   S    
C29   C36   A    
C55   C138  A    
C82   H186  S    
C51   C75   S    
C80   H182  S    
C208  H130  S    
C40   C173  A    
C211  N6    A    
N19   N27   A    
N8    N17   A    
C12   C188  A    
C55   C103  S    
N23   Ni2   S    
C159  C168  A    
C107  H58   S    
C79   H167  S    
C177  H68   S    
C6    C15   A    
N12   N21   A    
C58   C66   A    
C69   C130  S    
C62   C71   A    
C3    C199  A    
C25   H144  S    
C116  H70   S    
C32   H152  S    
C33   H153  S    
N18   N23   A    
C197  C215  A    
C114  H64   S    
C51   C213  A    
C137  C143  S    
C24   C113  A    
C91   H9    S    
N26   Ni8   S    
C171  H190  S    
C81   H189  S    
C169  H117  S    
C213  H136  S    
C148  C175  A    
C117  H80   S    
N1    Ni1   S    
C154  C163  A    
C140  H124  S    
C126  H102  S    
C179  C197  A    
N5    N14   A    
C17   H137  S    
C205  H128  S    
C95   H22   S    
C129  H104  S    
C38   C145  S    
C115  H73   S    
C97   H27   S    
C90   C136  A    
C53   C62   A    
N2    N10   A    
C64   C73   A    
C55   C64   A    
C49   C211  A    
C198  C201  A    
C100  C102  S    
C22   N15   A    
C5    C14   A    
C94   C95   S    
C30   C41   A    
C159  H126  S    
C41   C184  A    
C119  H85   S    
C120  H82   S    
C32   N25   A    
C110  H60   S    
C129  H103  S    
C15   C190  A    
C48   C210  A    
C25   N17   A    
C171  C180  A    
C83   H195  S    
C13   C101  A    
C90   H169  S    
C185  C193  A    
C210  N5    A    
C157  C166  A    
N9    Ni2   S    
C155  C164  A    
C70   C206  A    
C79   C206  A    
N26   N29   A    
C85   H3    S    
C1    N1    A    
C153  H119  S    
C200  C203  A    
C92   H18   S    
C128  H106  S    
C116  H72   S    
C17   N9    A    
C152  C178  A    
C174  H13   S    
N31   Ni3   S    
N7    Ni8   S    
C130  H111  S    
C127  H98   S    
C68   H162  S    
C52   C135  A    
C103  H47   S    
C67   C76   A    
C99   H32   S    
C81   H191  S    
C125  H93   S    
C170  H2    S    
C198  C214  A    
