data_mof_unit_57696.cif
_audit_creation_date              2012-12-11T15:17:54-0500
_audit_creation_method            fapswitch 2.2
_symmetry_space_group_name_H-M    P1
_symmetry_Int_Tables_number       1
_space_group_crystal_system       triclinic
_cell_length_a                    15.700703
_cell_length_b                    15.733409
_cell_length_c                    34.565273
_cell_angle_alpha                 89.781932
_cell_angle_beta                  90.375342
_cell_angle_gamma                 119.696014
_cell_volume                      7416.94957916

loop_
_atom_site_label
_atom_site_type_symbol
_atom_type_description
_atom_site_fract_x
_atom_site_fract_y
_atom_site_fract_z
_atom_type_partial_charge
C1    C     C_R   0.578843 0.440901 0.555211 0.550505
C2    C     C_R   0.559039 0.136820 0.554802 0.552430
C3    C     C_R   0.862368 0.421039 0.555225 0.550720
C4    C     C_R   0.441345 0.579227 0.055204 0.552858
C5    C     C_R   0.137649 0.558858 0.055077 0.553504
C6    C     C_R   0.420857 0.861508 0.055424 0.562707
C7    C     C_R   0.971312 0.496588 0.714024 0.324628
C8    C     C_R   0.502150 0.473550 0.713870 0.323160
C9    C     C_R   0.509132 0.975799 0.705739 0.324688
C10   C     C_R   0.510192 0.974878 0.214169 0.326031
C11   C     C_R   0.487351 0.466415 0.207941 0.322159
C12   C     C_R   0.020941 0.524943 0.212672 0.312735
C13   C     C_R   0.996028 0.435724 0.854625 -0.119033
C14   C     C_R   0.562817 0.563958 0.853923 -0.123273
C15   C     C_R   0.416979 0.939558 0.844822 -0.124134
C16   C     C_R   0.448255 0.031429 0.348984 -0.118602
C17   C     C_R   0.594709 0.536279 0.344559 -0.118772
C18   C     C_R   0.997453 0.438742 0.353025 -0.116626
C19   C     C_R   0.032547 0.447356 0.892323 -0.130690
C20   C     C_R   0.551814 0.587968 0.891693 -0.139026
C21   C     C_R   0.394209 0.911723 0.883215 -0.124253
C22   C     C_R   0.455809 0.062072 0.387072 -0.125996
C23   C     C_R   0.612342 0.535348 0.383949 -0.127799
C24   C     C_R   0.964488 0.414879 0.391089 -0.131696
C25   C     C_R   0.080540 0.619446 0.890014 -0.133294
C26   C     C_R   0.379906 0.463754 0.889752 -0.131009
C27   C     C_R   0.463987 0.805020 0.877389 -0.138140
C28   C     C_R   0.606260 0.055591 0.394697 -0.130149
C29   C     C_R   0.455975 0.386356 0.391010 -0.130567
C30   C     C_R   0.906758 0.532088 0.388558 -0.128459
C31   C     C_R   0.045804 0.608177 0.852215 -0.119372
C32   C     C_R   0.390501 0.441210 0.851855 -0.120232
C33   C     C_R   0.485367 0.831719 0.838660 -0.116284
C34   C     C_R   0.597433 0.022808 0.356587 -0.120184
C35   C     C_R   0.437396 0.388614 0.351515 -0.118301
C36   C     C_R   0.937324 0.553925 0.350367 -0.121388
C37   C     C_R   0.006644 0.517145 0.833824 0.038752
C38   C     C_R   0.481191 0.493218 0.833304 0.037813
C39   C     C_R   0.462438 0.899651 0.822228 0.036956
C40   C     C_R   0.520847 0.015287 0.333189 0.041519
C41   C     C_R   0.508968 0.461065 0.327901 0.042122
C42   C     C_R   0.980348 0.505504 0.332053 0.039893
C43   C     C_R   0.078372 0.540169 0.909718 0.022424
C44   C     C_R   0.459445 0.540177 0.909405 0.017818
C45   C     C_R   0.418132 0.844708 0.899838 0.026607
C46   C     C_R   0.537514 0.079306 0.409628 0.023420
C47   C     C_R   0.545512 0.457665 0.407189 0.023409
C48   C     C_R   0.916326 0.459423 0.408733 0.023716
C49   C     C_R   0.578287 0.441758 0.445160 0.549931
C50   C     C_R   0.557637 0.135618 0.445610 0.552983
C51   C     C_R   0.863480 0.421929 0.445357 0.552080
C52   C     C_R   0.441783 0.578086 0.945465 0.537044
C53   C     C_R   0.135767 0.558231 0.945505 0.544178
C54   C     C_R   0.394345 0.814234 0.940204 0.556964
C55   C     C_R   0.913052 0.453368 0.592781 -0.006757
C56   C     C_R   0.546050 0.458321 0.592737 -0.006585
C57   C     C_R   0.539062 0.077763 0.590041 -0.005540
C58   C     C_R   0.450342 0.906982 0.093860 -0.003872
C59   C     C_R   0.463001 0.545976 0.091811 -0.002565
C60   C     C_R   0.086291 0.539471 0.092246 -0.005297
C61   C     C_R   0.940819 0.394098 0.613173 -0.127290
C62   C     C_R   0.603994 0.545330 0.612863 -0.127027
C63   C     C_R   0.449460 0.042215 0.608892 -0.129073
C64   C     C_R   0.379203 0.907131 0.117997 -0.126713
C65   C     C_R   0.533713 0.614934 0.116771 -0.124889
C66   C     C_R   0.070785 0.458196 0.114130 -0.123712
C67   C     C_R   0.966494 0.411074 0.652363 -0.008136
C68   C     C_R   0.587452 0.553629 0.652064 -0.007849
C69   C     C_R   0.436575 0.002804 0.646040 -0.007372
C70   C     C_R   0.397250 0.927221 0.157451 -0.018640
C71   C     C_R   0.545210 0.589684 0.154447 -0.012091
C72   C     C_R   0.044610 0.450033 0.153056 -0.009764
C73   C     C_R   0.962281 0.488643 0.671559 0.047599
C74   C     C_R   0.510955 0.471745 0.671485 0.047503
C75   C     C_R   0.515944 0.999572 0.664524 0.047981
C76   C     C_R   0.491163 0.953006 0.172747 0.049294
C77   C     C_R   0.485846 0.491299 0.166993 0.054080
C78   C     C_R   0.032448 0.524920 0.170452 0.049524
C79   C     C_R   0.943790 0.555212 0.650102 -0.013663
C80   C     C_R   0.446446 0.385876 0.650445 -0.013168
C81   C     C_R   0.604930 0.029117 0.644671 -0.014139
C82   C     C_R   0.564765 0.956160 0.148209 -0.017175
C83   C     C_R   0.419382 0.419648 0.140757 -0.014736
C84   C     C_R   0.038755 0.602621 0.147283 -0.018213
C85   C     C_R   0.919763 0.536155 0.610685 -0.116602
C86   C     C_R   0.464956 0.381365 0.611008 -0.115839
C87   C     C_R   0.614345 0.066833 0.607107 -0.116109
C88   C     C_R   0.543020 0.932772 0.108965 -0.129188
C89   C     C_R   0.407392 0.448480 0.103623 -0.130656
C90   C     C_R   0.066040 0.608851 0.108416 -0.130992
C91   C     C_R   0.989529 0.510709 0.791968 0.345920
C92   C     C_R   0.487627 0.481198 0.791597 0.342683
C93   C     C_R   0.483438 0.927996 0.781510 0.340306
C94   C     C_R   0.521421 0.002429 0.291480 0.341434
C95   C     C_R   0.498734 0.456514 0.285757 0.339844
C96   C     C_R   0.997776 0.517218 0.290319 0.329839
Cr1   Cr    Cr6+3 0.522350 0.263930 0.500020 1.010987
Cr2   Cr    Cr6+3 0.736070 0.258420 0.500020 1.012457
Cr3   Cr    Cr6+3 0.741580 0.477650 0.500020 1.009956
Cr4   Cr    Cr6+3 0.263930 0.522350 0.000020 1.005458
Cr5   Cr    Cr6+3 0.258420 0.736070 0.000020 1.004854
Cr6   Cr    Cr6+3 0.477650 0.741580 0.000020 1.013984
H1    H     H_    0.938095 0.331560 0.598915 0.120614
H2    H     H_    0.665772 0.605271 0.598461 0.120282
H3    H     H_    0.390956 0.049524 0.595351 0.121105
H4    H     H_    0.306466 0.884202 0.106662 0.127614
H5    H     H_    0.576436 0.690566 0.107606 0.127897
H6    H     H_    0.083871 0.402787 0.101472 0.130908
H7    H     H_    0.029622 0.385083 0.907051 0.127629
H8    H     H_    0.614228 0.647010 0.906292 0.129835
H9    H     H_    0.358618 0.943314 0.899881 0.138033
H10   H     H_    0.401270 0.078956 0.397865 0.130090
H11   H     H_    0.681764 0.591647 0.395531 0.126345
H12   H     H_    0.972672 0.358729 0.406065 0.124177
H13   H     H_    0.966073 0.364818 0.840866 0.129601
H14   H     H_    0.633482 0.605076 0.840041 0.128339
H15   H     H_    0.397529 0.991264 0.832676 0.132767
H16   H     H_    0.387981 0.024598 0.331256 0.118276
H17   H     H_    0.649809 0.594033 0.326807 0.119965
H18   H     H_    0.030472 0.400483 0.339222 0.128032
H19   H     H_    0.115207 0.691822 0.902756 0.128102
H20   H     H_    0.307799 0.425546 0.902688 0.132614
H21   H     H_    0.482166 0.752591 0.889718 0.128502
H22   H     H_    0.669625 0.067830 0.411634 0.122068
H23   H     H_    0.403170 0.325747 0.408308 0.120434
H24   H     H_    0.869724 0.567613 0.401361 0.128884
N1    N     N_R   0.921307 0.426171 0.775168 -0.226040
N2    N     N_R   0.572781 0.497416 0.775353 -0.229081
N3    N     N_R   0.489274 0.012471 0.768985 -0.235210
N4    N     N_R   0.505184 0.061549 0.267634 -0.227028
N5    N     N_R   0.578466 0.481423 0.263448 -0.223890
N6    N     N_R   0.074818 0.513722 0.274620 -0.238461
N7    N     N_R   0.911772 0.419623 0.736838 -0.225354
N8    N     N_R   0.579551 0.492748 0.737162 -0.228626
N9    N     N_R   0.502230 0.036126 0.731761 -0.228304
N10   N     N_R   0.500189 0.048340 0.229627 -0.252017
N11   N     N_R   0.572796 0.485962 0.225213 -0.241818
N12   N     N_R   0.086561 0.518363 0.236466 -0.246094
N13   N     N_R   0.039344 0.580791 0.730880 -0.277947
N14   N     N_R   0.417013 0.457080 0.730140 -0.268716
N15   N     N_R   0.505308 0.892167 0.718153 -0.268072
N16   N     N_R   0.528639 0.916893 0.237933 -0.264412
N17   N     N_R   0.406674 0.438468 0.230151 -0.255206
N18   N     N_R   0.943838 0.528408 0.228365 -0.237369
N19   N     N_R   0.048140 0.587880 0.769138 -0.241441
N20   N     N_R   0.409793 0.460540 0.768325 -0.240151
N21   N     N_R   0.492749 0.868664 0.755516 -0.245106
N22   N     N_R   0.534973 0.930922 0.276058 -0.247517
N23   N     N_R   0.411995 0.432748 0.268455 -0.237051
N24   N     N_R   0.932809 0.525157 0.266563 -0.225045
O1    O     O_R   0.498680 0.159540 0.541860 -0.523065
O2    O     O_R   0.840460 0.339140 0.541860 -0.522680
O3    O     O_R   0.660860 0.501320 0.541860 -0.521021
O4    O     O_R   0.159540 0.498680 0.041860 -0.519577
O5    O     O_R   0.339140 0.840460 0.041860 -0.516656
O6    O     O_R   0.501320 0.660860 0.041860 -0.520654
O7    O     O_R   0.532760 0.358060 0.540030 -0.508477
O8    O     O_R   0.641940 0.174700 0.540030 -0.509630
O9    O     O_R   0.825300 0.467240 0.540030 -0.507047
O10   O     O_R   0.358060 0.532760 0.040030 -0.501338
O11   O     O_R   0.174700 0.641940 0.040030 -0.505886
O12   O     O_R   0.467240 0.825300 0.040030 -0.499217
O13   O     O_R   0.498590 0.161190 0.456930 -0.523757
O14   O     O_R   0.838810 0.337400 0.456930 -0.518525
O15   O     O_R   0.662600 0.501410 0.456930 -0.525392
O16   O     O_R   0.161190 0.498590 0.956930 -0.521057
O17   O     O_R   0.337400 0.838810 0.956930 -0.522062
O18   O     O_R   0.501410 0.662600 0.956930 -0.533253
O19   O     O_R   0.532680 0.359580 0.461300 -0.501906
O20   O     O_R   0.640420 0.173100 0.461300 -0.502463
O21   O     O_R   0.826900 0.467320 0.461300 -0.506441
O22   O     O_R   0.359580 0.532680 0.961300 -0.506198
O23   O     O_R   0.173100 0.640420 0.961300 -0.520990
O24   O     O_R   0.467320 0.826900 0.961300 -0.489679
O25   O     O_3   0.666667 0.333333 0.499990 -0.236538
O26   O     O_3   0.333333 0.666667 0.999990 -0.262363
H25   H     H_    0.900300 0.582199 0.593981 0.127618
H26   H     H_    0.419988 0.315606 0.594616 0.128361
H27   H     H_    0.682122 0.092885 0.591486 0.127214
H28   H     H_    0.597407 0.931070 0.090333 0.118961
H29   H     H_    0.354310 0.394870 0.083826 0.115726
H30   H     H_    0.076444 0.671136 0.091294 0.122458
C97   C     C_3   0.995766 0.343766 0.672870 -0.257561
C98   C     C_3   0.103735 0.398418 0.685615 -0.288874
C99   C     C_3   0.130057 0.330916 0.708057 -0.449006
H31   H     H_    0.083476 0.301863 0.734192 0.163244
H32   H     H_    0.119444 0.268977 0.689493 0.138643
H33   H     H_    0.207909 0.372420 0.717426 0.179328
H34   H     H_    0.151362 0.426780 0.659693 0.163838
H35   H     H_    0.119138 0.461498 0.704398 0.194410
H36   H     H_    0.947110 0.307905 0.697909 0.176890
H37   H     H_    0.985549 0.283440 0.653334 0.128835
C100  C     C_3   0.656813 0.648428 0.672708 -0.258030
C101  C     C_3   0.605202 0.703110 0.687538 -0.282056
C102  C     C_3   0.671292 0.783503 0.715834 -0.447828
H38   H     H_    0.686049 0.750988 0.741836 0.165953
H39   H     H_    0.741881 0.834871 0.701893 0.136006
H40   H     H_    0.634869 0.824818 0.725228 0.185852
H41   H     H_    0.587033 0.736334 0.662644 0.161186
H42   H     H_    0.535806 0.653148 0.702515 0.198334
H43   H     H_    0.694657 0.632993 0.696608 0.177387
H44   H     H_    0.715781 0.698996 0.652887 0.126594
C103  C     C_3   0.340007 0.971245 0.666316 -0.254025
C104  C     C_3   0.283405 0.860670 0.674459 -0.291449
C105  C     C_3   0.216864 0.837794 0.709445 -0.437264
H45   H     H_    0.260929 0.875085 0.735615 0.177697
H46   H     H_    0.162270 0.861945 0.704169 0.138533
H47   H     H_    0.178071 0.758010 0.714881 0.186493
H48   H     H_    0.238263 0.821628 0.648711 0.153403
H49   H     H_    0.333603 0.831334 0.680108 0.194982
H50   H     H_    0.354558 0.014215 0.693347 0.175273
H51   H     H_    0.291829 0.989170 0.648519 0.123012
C106  C     C_3   0.312428 0.913121 0.182815 -0.261224
C107  C     C_3   0.272025 0.818740 0.206858 -0.281980
C108  C     C_3   0.207040 0.818379 0.239584 -0.445331
H52   H     H_    0.252106 0.875244 0.261282 0.164652
H53   H     H_    0.149512 0.833427 0.228219 0.139355
H54   H     H_    0.171238 0.745826 0.254074 0.174306
H55   H     H_    0.228917 0.754691 0.187722 0.165795
H56   H     H_    0.332192 0.810213 0.219812 0.198214
H57   H     H_    0.335084 0.977486 0.201740 0.175399
H58   H     H_    0.251457 0.908902 0.164819 0.115659
C109  C     C_3   0.619373 0.670520 0.180486 -0.257163
C110  C     C_3   0.569975 0.703841 0.210345 -0.279437
C111  C     C_3   0.643405 0.768924 0.241094 -0.440227
H59   H     H_    0.671600 0.727079 0.257525 0.160110
H60   H     H_    0.705957 0.833657 0.227525 0.140376
H61   H     H_    0.606856 0.794357 0.261687 0.186249
H62   H     H_    0.538844 0.745100 0.195387 0.169673
H63   H     H_    0.508931 0.640484 0.225098 0.200287
H64   H     H_    0.667586 0.646714 0.194658 0.177714
H65   H     H_    0.669611 0.735627 0.162994 0.115429
C112  C     C_3   0.030165 0.360022 0.174787 -0.254815
C113  C     C_3   0.128668 0.365799 0.184088 -0.279167
C114  C     C_3   0.113878 0.278538 0.208493 -0.445402
H66   H     H_    0.076568 0.276031 0.236022 0.167093
H67   H     H_    0.069093 0.209278 0.192340 0.137436
H68   H     H_    0.186079 0.285404 0.215519 0.162762
H69   H     H_    0.166353 0.366711 0.156840 0.154492
H70   H     H_    0.176977 0.434196 0.200213 0.208791
H71   H     H_    0.988416 0.349384 0.201848 0.166893
H72   H     H_    0.984820 0.294263 0.156709 0.129732
C115  C     C_3   0.945344 0.642415 0.670186 -0.244574
C116  C     C_3   0.919905 0.707546 0.644957 -0.318467
C117  C     C_3   0.927210 0.793372 0.668175 -0.462707
H73   H     H_    0.878374 0.766590 0.693757 0.155074
H74   H     H_    0.003830 0.841735 0.678065 0.150211
H75   H     H_    0.904790 0.836899 0.649701 0.136854
H76   H     H_    0.971777 0.737708 0.620333 0.157925
H77   H     H_    0.843944 0.663652 0.633567 0.160166
H78   H     H_    0.893139 0.614610 0.694782 0.170025
H79   H     H_    0.020213 0.689786 0.681846 0.166539
C118  C     C_3   0.362586 0.298796 0.671143 -0.243523
C119  C     C_3   0.302916 0.205423 0.647030 -0.317586
C120  C     C_3   0.222355 0.124369 0.671235 -0.460618
H80   H     H_    0.254798 0.104949 0.696024 0.156717
H81   H     H_    0.171350 0.148111 0.682390 0.149917
H82   H     H_    0.179765 0.058294 0.653070 0.135377
H83   H     H_    0.267664 0.221165 0.622140 0.156515
H84   H     H_    0.352012 0.178828 0.636112 0.165332
H85   H     H_    0.393547 0.279362 0.696491 0.171101
H86   H     H_    0.310936 0.322174 0.681837 0.164133
C121  C     C_3   0.689502 0.024832 0.665005 -0.247144
C122  C     C_3   0.787134 0.070325 0.642936 -0.314063
C123  C     C_3   0.867324 0.066353 0.666764 -0.461170
H87   H     H_    0.879380 0.106391 0.694475 0.156700
H88   H     H_    0.846982 0.989352 0.672885 0.148418
H89   H     H_    0.936992 0.101030 0.650285 0.135912
H90   H     H_    0.777444 0.029771 0.615507 0.156621
H91   H     H_    0.811581 0.148229 0.636240 0.163306
H92   H     H_    0.703592 0.063641 0.693163 0.168006
H93   H     H_    0.665959 0.946896 0.671013 0.157366
C124  C     C_3   0.664430 0.977909 0.163378 -0.258980
C125  C     C_3   0.729018 0.085664 0.174766 -0.283434
C126  C     C_3   0.822814 0.101859 0.194792 -0.455137
H94   H     H_    0.805081 0.052911 0.220315 0.160923
H95   H     H_    0.868608 0.087489 0.174398 0.141272
H96   H     H_    0.865165 0.178495 0.205048 0.145055
H97   H     H_    0.748375 0.132320 0.148454 0.159805
H98   H     H_    0.689790 0.109237 0.194788 0.193570
H99   H     H_    0.654367 0.929622 0.188377 0.166782
H100  H     H_    0.704134 0.959953 0.141216 0.125616
C127  C     C_3   0.363227 0.311916 0.151057 -0.261091
C128  C     C_3   0.432070 0.268848 0.151776 -0.286527
C129  C     C_3   0.376897 0.160033 0.161427 -0.447786
H101  H     H_    0.342918 0.147984 0.190475 0.160697
H102  H     H_    0.318972 0.118996 0.139451 0.142995
H103  H     H_    0.429100 0.131708 0.161543 0.167924
H104  H     H_    0.467051 0.278976 0.122984 0.165597
H105  H     H_    0.490905 0.307136 0.173715 0.190512
H106  H     H_    0.326559 0.301008 0.179390 0.164018
H107  H     H_    0.303998 0.270891 0.129477 0.129825
C130  C     C_3   0.023518 0.683795 0.163050 -0.257581
C131  C     C_3   0.921414 0.666667 0.152233 -0.281157
C132  C     C_3   0.905080 0.747755 0.168148 -0.453871
H108  H     H_    0.907967 0.748242 0.200274 0.162038
H109  H     H_    0.961821 0.820114 0.157016 0.143789
H110  H     H_    0.831992 0.735112 0.158789 0.136235
H111  H     H_    0.913179 0.664549 0.120222 0.157741
H112  H     H_    0.864432 0.595294 0.164139 0.193800
H113  H     H_    0.033129 0.690593 0.194816 0.169437
H114  H     H_    0.080303 0.755122 0.151005 0.126108
H115  H     H_    0.053735 0.671683 0.836729 0.126812
H116  H     H_    0.326861 0.385705 0.836526 0.127066
H117  H     H_    0.520310 0.799898 0.821713 0.133270
H118  H     H_    0.653878 0.010298 0.344621 0.118680
H119  H     H_    0.370346 0.330511 0.339045 0.122529
H120  H     H_    0.924266 0.606194 0.334692 0.122487

loop_
_geom_bond_atom_site_label_1
_geom_bond_atom_site_label_2
_ccdc_geom_bond_type
C120  H81   S    
C122  H90   S    
C6    C58   S    
C36   C42   A    
C109  C110  S    
C54   O17   A    
C7    C73   S    
Cr2   O2    S    
C91   N1    A    
C128  C129  S    
C1    C56   S    
C7    N7    A    
Cr5   O5    S    
C38   C92   S    
C86   H26   S    
C111  H61   S    
C100  H43   S    
C116  C117  S    
C125  C126  S    
C80   C86   A    
C66   C72   A    
Cr6   O18   S    
C68   C100  S    
C79   C115  S    
C63   H3    S    
C62   H2    S    
C6    O5    A    
C102  H40   S    
C19   H7    S    
C128  H105  S    
C6    O12   A    
C117  H73   S    
C110  C111  S    
C58   C64   A    
C23   C47   A    
C84   C130  S    
C92   N20   A    
C31   C37   A    
C89   H29   S    
C108  H52   S    
C16   H16   S    
C14   C38   A    
C106  H58   S    
C56   C86   A    
C96   N24   A    
C8    C74   S    
C51   O14   A    
C15   C39   A    
C13   H13   S    
C16   C40   A    
C56   C62   A    
C79   C85   A    
C109  H65   S    
C118  H85   S    
C27   H21   S    
C58   C88   A    
C64   H4    S    
C60   C90   A    
C127  H107  S    
C29   C35   A    
C30   C36   A    
C8    N14   A    
C54   O24   A    
C129  H102  S    
C31   H115  S    
C110  H62   S    
Cr2   O25   S    
C32   H116  S    
C119  H83   S    
C34   H118  S    
N15   N21   A    
C102  H38   S    
C53   O16   A    
N17   N23   A    
C100  C101  S    
C117  H75   S    
C107  H56   S    
C11   N17   A    
C5    O4    A    
Cr3   O15   S    
C25   C31   A    
C24   H12   S    
Cr1   O25   S    
C29   H23   S    
Cr4   O22   S    
Cr5   O23   S    
C25   C43   A    
C2    C57   S    
C53   O23   A    
C132  H109  S    
C27   C33   A    
C28   C46   A    
C17   C23   A    
C29   C47   A    
C18   C24   A    
C124  H100  S    
C30   C48   A    
C18   C42   A    
C118  C119  S    
C99   H32   S    
C68   C74   A    
C98   C99   S    
C59   C89   A    
N18   N24   A    
C11   C77   S    
N3    N9    A    
C3    C55   S    
C101  H42   S    
C63   C69   A    
C122  C123  S    
C112  C113  S    
C44   C52   S    
C121  H92   S    
C3    O9    A    
C103  H50   S    
C84   C90   A    
C20   C44   A    
C57   C63   A    
C21   C45   A    
C105  H46   S    
C94   N22   A    
C83   C89   A    
C115  H78   S    
C116  H76   S    
C8    N8    A    
C125  H97   S    
C24   C48   A    
C126  H96   S    
C108  H54   S    
C76   C82   A    
C57   C87   A    
C130  C131  S    
N2    N8    A    
C61   C67   A    
C73   C79   A    
C1    O7    A    
C113  H70   S    
C123  H88   S    
C67   C97   S    
C20   H8    S    
C9    N9    A    
C81   C121  S    
C22   H10   S    
C114  H68   S    
C12   N12   A    
C130  H113  S    
Cr6   O6    S    
C71   C77   A    
Cr4   O4    S    
C122  H91   S    
C5    C60   S    
C40   C94   S    
C28   H22   S    
C131  H111  S    
C59   C65   A    
C25   H19   S    
C82   C88   A    
C55   C61   A    
C111  H60   S    
C98   H35   S    
C62   C68   A    
C35   C41   A    
C28   C34   A    
Cr2   O20   S    
C112  H72   S    
Cr3   O25   S    
C104  C105  S    
C127  C128  S    
C65   H5    S    
C102  H39   S    
C126  H94   S    
C91   N19   A    
C97   H37   S    
C121  C122  S    
C106  C107  S    
C26   C32   A    
C3    O2    A    
C42   C96   S    
C61   H1    S    
Cr3   O9    S    
C35   H119  S    
C131  C132  S    
N6    N12   A    
C115  C116  S    
C72   C112  S    
C10   N16   A    
C39   C93   S    
C106  H57   S    
C43   C53   S    
Cr2   O8    S    
C19   C43   A    
Cr1   O13   S    
C104  H48   S    
Cr4   O26   S    
C114  H66   S    
C67   C73   A    
C27   C45   A    
C101  C102  S    
C120  H82   S    
C60   C66   A    
C74   C80   A    
C95   N5    A    
C52   O22   A    
C93   N3    A    
C21   H9    S    
C109  H64   S    
C88   H28   S    
C80   C118  S    
C13   C19   A    
C26   C44   A    
C14   C20   A    
C82   C124  S    
N14   N20   A    
C132  H108  S    
C127  H106  S    
C100  H44   S    
C15   H15   S    
C55   C85   A    
C49   O15   A    
C129  H101  S    
N5    N11   A    
C110  H63   S    
C119  H84   S    
C2    O8    A    
Cr1   O1    S    
C50   O20   A    
C94   N4    A    
C1    O3    A    
C81   C87   A    
C22   C46   A    
C128  H104  S    
C117  H74   S    
C34   C40   A    
C113  C114  S    
C2    O1    A    
C16   C22   A    
C50   O13   A    
C70   C106  S    
N1    N7    A    
C66   H6    S    
C36   H120  S    
C124  H99   S    
C119  C120  S    
C11   N11   A    
C49   O19   A    
C99   H31   S    
C41   C95   S    
Cr3   O3    S    
C51   O21   A    
C69   C75   A    
C83   C127  S    
C17   H17   S    
Cr3   O21   S    
C85   H25   S    
C26   H20   S    
C5    O11   A    
C118  H86   S    
C103  C104  S    
C30   H24   S    
C97   C98   S    
C47   C49   S    
C105  H45   S    
C33   C39   A    
C116  H77   S    
C125  H98   S    
C126  H95   S    
C10   N10   A    
C129  H103  S    
C107  H55   S    
C108  H53   S    
C23   H11   S    
C77   C83   A    
Cr6   O26   S    
Cr1   O19   S    
Cr4   O16   S    
Cr5   O17   S    
C10   C76   S    
C48   C51   S    
C90   H30   S    
C12   C78   S    
C72   C78   A    
C95   N23   A    
C64   C70   A    
C123  H87   S    
C13   C37   A    
Cr6   O12   S    
C96   N6    A    
C114  H67   S    
C92   N2    A    
C132  H110  S    
C71   C109  S    
C37   C91   S    
N16   N22   A    
C9    N15   A    
C107  C108  S    
C75   C81   A    
C99   H33   S    
C65   C71   A    
C12   N18   A    
Cr1   O7    S    
C131  H112  S    
Cr4   O10   S    
C101  H41   S    
C111  H59   S    
C112  H71   S    
C121  H93   S    
C45   C54   S    
C69   C103  S    
C32   C38   A    
C70   C76   A    
C103  H51   S    
C33   H117  S    
C120  H80   S    
C18   H18   S    
C105  H47   S    
N13   N19   A    
C115  H79   S    
C4    O6    A    
N4    N10   A    
C97   H36   S    
Cr2   O14   S    
Cr6   O24   S    
C46   C50   S    
Cr5   O11   S    
C52   O18   A    
C7    N13   A    
C4    O10   A    
C14   H14   S    
C4    C59   S    
C93   N21   A    
C113  H69   S    
C123  H89   S    
C17   C41   A    
C87   H27   S    
C78   C84   A    
C15   C21   A    
C104  H49   S    
C98   H34   S    
Cr5   O26   S    
C9    C75   S    
C130  H114  S    
C124  C125  S    
