data_mof_unit_20508.cif
_audit_creation_date              2012-12-11T15:53:42-0500
_audit_creation_method            fapswitch 2.2
_symmetry_space_group_name_H-M    P1
_symmetry_Int_Tables_number       1
_space_group_crystal_system       triclinic
_cell_length_a                    10.656578
_cell_length_b                    10.739216
_cell_length_c                    16.996483
_cell_angle_alpha                 80.596359
_cell_angle_beta                  99.562639
_cell_angle_gamma                 118.537087
_cell_volume                      1677.12560625

loop_
_atom_site_label
_atom_site_type_symbol
_atom_type_description
_atom_site_fract_x
_atom_site_fract_y
_atom_site_fract_z
_atom_type_partial_charge
C1    C     C_R   0.358374 0.223055 0.626190 0.545862
C2    C     C_1   0.293891 0.110197 0.771837 -0.057491
C3    C     C_1   0.371737 0.631950 0.274442 -0.059537
C4    C     C_R   0.413259 0.620971 0.601719 0.565992
C5    C     C_1   0.345317 0.650810 0.203490 -0.009921
C6    C     C_R   0.855733 0.682029 0.164262 0.003063
C7    C     C_R   0.870161 0.576509 0.217257 0.116398
C8    C     C_R   0.866459 0.568693 0.297484 0.007986
C9    C     C_R   0.840652 0.784157 0.276830 -0.161262
C10   C     C_R   0.848445 0.791862 0.194777 -0.176046
C11   C     C_3   0.795167 0.419374 0.214022 0.129639
C12   C     C_R   0.512490 0.705533 0.736592 -0.164000
C13   C     C_3   0.793589 0.407525 0.304392 -0.212111
C14   C     C_R   0.839381 0.665725 0.327688 0.007871
C15   C     C_R   0.263391 0.055181 0.180417 0.032456
C16   C     C_R   0.777292 0.618932 0.626740 0.542331
C17   C     C_R   0.163420 0.080850 0.208888 -0.021313
C18   C     C_R   0.183175 0.117395 0.284961 0.000239
C19   C     C_R   0.395722 0.087257 0.313904 -0.140188
C20   C     C_R   0.371668 0.041591 0.237164 0.119376
C21   C     C_3   0.099037 0.177849 0.175074 -0.243792
C22   C     C_3   0.118320 0.215719 0.259367 -0.215537
C23   C     C_R   0.490198 0.720408 0.812601 -0.145456
C24   C     C_R   0.308282 0.137864 0.334776 -0.014764
C25   C     C_R   0.890647 0.701647 0.856141 0.542343
C26   C     C_R   0.315895 0.706171 0.898620 0.533458
C27   C     C_R   0.252440 0.058553 0.851194 0.559640
C28   C     C_R   0.349193 0.223158 0.401044 0.532627
C29   C     C_R   0.889575 0.693135 0.084493 0.539615
C30   C     C_R   0.317289 0.696415 0.122208 0.564897
C31   C     C_R   0.246570 0.038104 0.095195 0.589133
C32   C     C_R   0.403939 0.624308 0.359230 0.555750
C33   C     C_R   0.773815 0.623100 0.400981 0.543416
C34   C     C_3   0.091544 0.527693 0.762618 -0.223050
C35   C     C_R   0.350260 0.651947 0.836556 0.011205
C36   C     C_R   0.240763 0.548988 0.790188 -0.010860
C37   C     C_R   0.263701 0.531953 0.715729 0.053704
C38   C     C_3   0.550270 0.413014 0.177912 -0.295882
C39   C     C_3   0.590400 0.050638 0.206367 -0.256516
C40   C     C_3   0.017571 0.241511 0.704088 -0.249866
C41   C     C_2   0.890086 0.366377 0.189868 0.242882
C42   C     C_3   0.115928 0.508441 0.680779 0.022515
C43   C     C_R   0.395684 0.620354 0.684874 -0.009307
C44   C     C_1   0.822655 0.656421 0.706064 -0.060852
C45   C     C_1   0.849731 0.684417 0.773897 -0.062648
C46   C     C_1   0.329887 0.156484 0.705456 -0.051673
Cr1   Cr    Cr6+3 0.608440 0.389080 0.519680 0.997319
Cr2   Cr    Cr6+3 0.288640 0.400090 0.490760 1.036455
Cr3   Cr    Cr6+3 0.602940 0.710800 0.489510 0.998499
Cr4   Cr    Cr6+3 0.052530 0.947560 0.964210 0.995893
Cr5   Cr    Cr6+3 0.059970 0.626800 0.992920 1.026297
Cr6   Cr    Cr6+3 0.373320 0.938440 0.995370 1.009469
H1    H     H_    0.618142 0.768731 0.716120 0.136838
H2    H     H_    0.082283 0.626448 0.762435 0.120270
H3    H     H_    0.009022 0.431926 0.794137 0.157487
H4    H     H_    0.117716 0.594430 0.633744 0.143746
H5    H     H_    0.822780 0.863082 0.298697 0.134182
H6    H     H_    0.843265 0.879283 0.155241 0.128030
H7    H     H_    0.657649 0.362828 0.107475 0.257224
H8    H     H_    0.444053 0.342617 0.148087 0.154754
H9    H     H_    0.580481 0.522278 0.148933 0.135761
H10   H     H_    0.537492 0.408362 0.241748 0.141639
H11   H     H_    0.436197 0.892137 0.270282 0.269083
H12   H     H_    0.684866 0.354002 0.324796 0.154366
H13   H     H_    0.654185 0.118542 0.255613 0.124403
H14   H     H_    0.596665 0.114735 0.147881 0.188903
H15   H     H_    0.637055 0.979194 0.202215 0.124944
H16   H     H_    0.923325 0.354000 0.628406 0.265070
H17   H     H_    0.964195 0.148937 0.667956 0.143913
H18   H     H_    0.954641 0.216926 0.755414 0.130897
H19   H     H_    0.126846 0.255818 0.726406 0.186064
H20   H     H_    0.844615 0.272821 0.157581 0.069779
H21   H     H_    0.865493 0.365620 0.339727 0.130187
H22   H     H_    0.484845 0.087604 0.355381 0.131520
H23   H     H_    0.984623 0.120522 0.151236 0.126437
H24   H     H_    0.167939 0.269450 0.134556 0.159862
H25   H     H_    0.196956 0.328826 0.266459 0.184596
H26   H     H_    0.015154 0.176694 0.285181 0.147849
H27   H     H_    0.579261 0.796560 0.848624 0.143062
N1    N     N_2   0.653696 0.366424 0.167269 -0.546633
N2    N     N_2   0.442686 0.966275 0.222712 -0.476338
N3    N     N_2   0.022937 0.366947 0.654205 -0.492561
O1    O     O_R   0.754020 0.497590 0.609930 -0.513084
O2    O     O_R   0.406180 0.826930 0.920660 -0.530438
O3    O     O_R   0.358620 0.062870 0.901950 -0.482073
O4    O     O_R   0.481420 0.271390 0.600630 -0.488208
O5    O     O_R   0.163910 0.085460 0.050210 -0.525977
O6    O     O_R   0.935200 0.815170 0.045770 -0.523567
O7    O     O_R   0.916120 0.596690 0.069430 -0.498028
O8    O     O_R   0.192310 0.631200 0.086170 -0.455540
O9    O     O_R   0.406770 0.819480 0.096420 -0.515339
O10   O     O_R   0.359170 0.055960 0.064880 -0.480588
O11   O     O_3   0.161940 0.837600 0.984160 -0.289945
O12   O     O_R   0.295080 0.533620 0.397890 -0.471193
O13   O     O_R   0.263810 0.254550 0.589590 -0.512920
O14   O     O_R   0.300820 0.531200 0.560890 -0.471113
O15   O     O_R   0.491480 0.744020 0.564270 -0.508314
O16   O     O_R   0.726290 0.693800 0.583010 -0.516412
O17   O     O_R   0.747830 0.500190 0.434090 -0.525805
O18   O     O_R   0.475680 0.273800 0.437630 -0.512575
O19   O     O_R   0.257620 0.257160 0.413750 -0.524400
O20   O     O_2   0.019864 0.428864 0.206366 -0.528866
O21   O     O_R   0.485280 0.746620 0.388440 -0.523747
O22   O     O_R   0.720550 0.696220 0.420010 -0.520985
O23   O     O_3   0.500010 0.499990 0.499980 -0.294437
O24   O     O_R   0.163320 0.092900 0.874450 -0.512070
O25   O     O_R   0.934650 0.822080 0.882840 -0.514628
O26   O     O_R   0.915520 0.604140 0.893670 -0.514105
O27   O     O_R   0.191760 0.638110 0.923230 -0.505231

loop_
_geom_bond_atom_site_label_1
_geom_bond_atom_site_label_2
_ccdc_geom_bond_type
C32   O12   A    
C8    C13   S    
C40   H19   S    
C33   O22   A    
C35   C36   A    
C42   N3    S    
C30   O8    A    
C14   C33   S    
C29   O7    A    
C7    C8    A    
C2    C46   T    
C7    C11   S    
C21   H24   S    
C40   H18   S    
H11   N2    S    
C18   C24   A    
Cr6   O3    S    
C10   H6    S    
C12   C43   A    
Cr5   O8    S    
C1    C46   S    
Cr1   O17   S    
C41   O20   D    
C27   O3    A    
C37   C42   S    
Cr6   O2    S    
C29   O6    A    
C42   H4    S    
Cr3   O16   S    
C4    O14   A    
C28   O19   A    
C19   C20   A    
Cr5   O26   S    
Cr1   O23   S    
C34   C42   S    
C8    C14   A    
C2    C27   S    
Cr1   O1    S    
C9    C10   A    
C16   C44   S    
C34   C36   S    
C12   H1    S    
Cr4   O6    S    
C38   H9    S    
C28   O18   A    
C34   H3    S    
Cr5   O27   S    
C20   N2    S    
C39   H13   S    
Cr3   O22   S    
C15   C20   A    
C31   O5    A    
C40   H17   S    
Cr1   O4    S    
C40   N3    S    
C39   N2    S    
Cr2   O13   S    
Cr3   O23   S    
C27   O24   A    
C16   O1    A    
C17   C21   S    
Cr1   O18   S    
C33   O17   A    
C37   C43   A    
C9    C14   A    
C6    C10   A    
C4    O15   A    
Cr2   O23   S    
C12   C23   A    
C1    O13   A    
C17   C18   A    
C32   O21   A    
Cr6   O11   S    
C26   O27   A    
C22   H26   S    
Cr2   O12   S    
Cr4   O5    S    
Cr5   O11   S    
C41   H20   S    
C38   H8    S    
C13   H21   S    
C34   H2    S    
C23   C35   A    
Cr4   O25   S    
C39   H14   S    
Cr6   O10   S    
C25   C45   S    
C44   C45   T    
C25   O25   A    
C5    C30   S    
C1    O4    A    
C15   C17   A    
C36   C37   A    
C26   O2    A    
Cr2   O14   S    
C18   C22   S    
C39   H15   S    
C19   H22   S    
C24   C28   S    
C22   H25   S    
C30   O9    A    
C3    C5    T    
H7    N1    S    
Cr3   O21   S    
Cr4   O11   S    
C15   C31   S    
C6    C7    A    
C4    C43   S    
C21   H23   S    
H16   N3    S    
C19   C24   A    
Cr5   O7    S    
C11   C13   S    
C16   O16   A    
C13   H12   S    
C38   N1    S    
Cr2   O19   S    
C11   C41   S    
C9    H5    S    
C3    C32   S    
C11   N1    S    
Cr3   O15   S    
C26   C35   S    
C6    C29   S    
C31   O10   A    
Cr4   O24   S    
Cr6   O9    S    
C23   H27   S    
C21   C22   S    
C25   O26   A    
C38   H10   S    
