data_mof_unit_9111.cif
_audit_creation_date              2012-12-10T17:21:06-0500
_audit_creation_method            fapswitch 2.2
_symmetry_space_group_name_H-M    P1
_symmetry_Int_Tables_number       1
_space_group_crystal_system       triclinic
_cell_length_a                    10.122148
_cell_length_b                    10.647226
_cell_length_c                    10.701487
_cell_angle_alpha                 90.025279
_cell_angle_beta                  95.729401
_cell_angle_gamma                 81.280603
_cell_volume                      1134.1782485

loop_
_atom_site_label
_atom_site_type_symbol
_atom_type_description
_atom_site_fract_x
_atom_site_fract_y
_atom_site_fract_z
_atom_type_partial_charge
C1    C     C_R   0.443325 0.503445 0.266753 0.983265
C2    C     C_2   0.927264 0.510377 0.510335 -0.078516
C3    C     C_R   0.497933 0.258324 0.494799 0.885829
C4    C     C_R   0.556789 0.488194 0.734026 0.881107
C5    C     C_R   0.499232 0.742217 0.496874 0.852928
C6    C     C_3   0.563061 0.063638 0.376308 -0.452754
C7    C     C_3   0.567196 0.918232 0.377932 -0.181371
C8    C     C_3   0.580549 0.059956 0.613079 -0.189835
C9    C     C_3   0.346730 0.092802 0.484566 -0.164227
C10   C     C_3   0.495177 0.122254 0.491981 -0.016089
C11   C     C_2   0.543562 0.120863 0.735711 0.903316
C12   C     C_3   0.497465 0.878838 0.492847 0.021733
C13   C     C_2   0.726081 0.485886 0.928654 0.925939
C14   C     C_2   0.510138 0.871348 0.252952 0.898148
C15   C     C_2   0.250454 0.153078 0.374511 0.966674
C16   C     C_3   0.575165 0.916287 0.615661 -0.473033
C17   C     C_3   0.350215 0.948774 0.487578 -0.380304
C18   C     C_2   0.410253 0.490734 0.133583 -0.319042
C19   C     C_2   0.504246 0.428287 0.068429 -0.068192
C20   C     C_2   0.589863 0.469561 0.869222 -0.153920
C21   C     C_2   0.490179 0.441950 0.934097 -0.215714
C22   C     C_2   0.072633 0.489948 0.489414 -0.112903
H1    H     H_    0.668029 0.084154 0.379774 0.185075
H2    H     H_    0.839265 0.541593 0.078685 0.345720
H3    H     H_    0.108505 0.421471 0.420687 0.179864
H4    H     H_    0.880039 0.383325 0.384640 0.190111
H5    H     H_    0.512052 0.107441 0.286874 0.237718
H6    H     H_    0.120108 0.616314 0.615736 0.173259
H7    H     H_    0.355643 0.883237 0.116807 0.351410
H8    H     H_    0.675103 0.874652 0.392595 0.158876
H9    H     H_    0.687335 0.071093 0.605363 0.163811
H10   H     H_    0.301343 0.131335 0.569596 0.179466
H11   H     H_    0.217302 0.263760 0.217914 0.345212
H12   H     H_    0.303544 0.923638 0.572399 0.198098
H13   H     H_    0.288316 0.915936 0.405843 0.223510
H14   H     H_    0.526013 0.888402 0.697872 0.204756
H15   H     H_    0.390836 0.435208 0.887877 0.190124
H16   H     H_    0.314601 0.537634 0.088224 0.149881
H17   H     H_    0.891226 0.579280 0.578696 0.168415
H18   H     H_    0.679521 0.863400 0.626036 0.174754
H19   H     H_    0.408174 0.156355 0.862302 0.353181
H20   H     H_    0.598623 0.379180 0.114360 0.204728
N1    N     N_2   0.157300 0.551950 0.551120 -0.194147
N2    N     N_2   0.842730 0.448000 0.448950 -0.182498
O1    O     O_R   0.568940 0.489540 0.307530 -0.578442
O2    O     O_R   0.419597 0.112014 0.779342 -0.811559
O3    O     O_2   0.824021 0.460018 0.869903 -0.605643
O4    O     O_R   0.742223 0.534537 0.049751 -0.766037
O5    O     O_2   0.578330 0.789098 0.197336 -0.585763
O6    O     O_R   0.381337 0.922714 0.200228 -0.798405
O7    O     O_2   0.132628 0.137629 0.367637 -0.639797
O8    O     O_R   0.292648 0.228699 0.284024 -0.818936
O9    O     O_R   0.348880 0.522880 0.340350 -0.607530
O10   O     O_R   0.610030 0.298130 0.483570 -0.619140
O11   O     O_R   0.389960 0.331470 0.516390 -0.616294
O12   O     O_R   0.651120 0.477120 0.659650 -0.563651
O13   O     O_R   0.431060 0.510460 0.692470 -0.617568
O14   O     O_R   0.610040 0.668530 0.483610 -0.616685
O15   O     O_R   0.389970 0.701870 0.516430 -0.621013
O16   O     O_2   0.624618 0.175645 0.798131 -0.625836
Zn1   Zn    Zn3+2 0.646940 0.477740 0.478080 1.010085
Zn2   Zn    Zn3+2 0.353060 0.522260 0.521920 0.967852

loop_
_geom_bond_atom_site_label_1
_geom_bond_atom_site_label_2
_ccdc_geom_bond_type
C12   C17   S    
C6    C10   S    
C13   O4    S    
H19   O2    S    
C2    C22   S    
C6    C7    S    
O10   Zn1   S    
C15   O7    D    
N2    Zn1   S    
C9    C10   S    
H6    N1    S    
C6    H5    S    
C13   C20   S    
C19   H20   S    
O14   Zn1   S    
C9    C15   S    
H4    N2    S    
O13   Zn2   S    
C8    C16   S    
C7    H8    S    
C15   O8    S    
C16   H14   S    
H11   O8    S    
C1    O1    A    
C1    C18   S    
C14   O6    S    
C3    O11   A    
C5    O14   A    
C16   H18   S    
C8    C11   S    
C6    H1    S    
C9    C17   S    
C19   C21   S    
H7    O6    S    
C18   H16   S    
C7    C12   S    
C3    O10   A    
C14   O5    D    
C17   H12   S    
C5    O15   A    
C11   O16   D    
H2    O4    S    
O11   Zn2   S    
C12   C16   S    
C21   H15   S    
C20   C21   D    
N1    Zn2   S    
C5    C12   S    
C8    C10   S    
C18   C19   D    
O9    Zn2   S    
O1    Zn1   S    
C3    C10   S    
C1    O9    A    
O12   Zn1   S    
C11   O2    S    
C17   H13   S    
C9    H10   S    
C8    H9    S    
C13   O3    D    
C2    H17   S    
C7    C14   S    
C4    O12   A    
C22   N1    D    
C4    O13   A    
C2    N2    D    
O15   Zn2   S    
C22   H3    S    
C4    C20   S    
