data_mof_unit_37550.cif
_audit_creation_date              2012-12-11T21:06:12-0500
_audit_creation_method            fapswitch 2.2
_symmetry_space_group_name_H-M    P1
_symmetry_Int_Tables_number       1
_space_group_crystal_system       triclinic
_cell_length_a                    36.637554
_cell_length_b                    39.283914
_cell_length_c                    8.442636
_cell_angle_alpha                 89.999936
_cell_angle_beta                  94.200685
_cell_angle_gamma                 89.923272
_cell_volume                      12118.5494395

loop_
_atom_site_label
_atom_site_type_symbol
_atom_type_description
_atom_site_fract_x
_atom_site_fract_y
_atom_site_fract_z
_atom_type_partial_charge
Ba1   Ba    Ba6+2 0.000060 0.523150 0.844950 1.677094
Ba2   Ba    Ba6+2 0.000060 0.476850 0.344950 1.678477
Ba3   Ba    Ba6+2 0.500060 0.023150 0.844950 1.677032
Ba4   Ba    Ba6+2 0.500060 0.976850 0.344950 1.678258
C1    C     C_3   0.027602 0.705008 0.621721 0.293018
C2    C     C_2   0.904839 0.632129 0.277384 -0.045781
C3    C     C_R   0.632719 0.813261 0.714890 0.584675
C4    C     C_2   0.095184 0.631965 0.409452 -0.100785
C5    C     C_2   0.093448 0.366558 0.903060 -0.098116
C6    C     C_2   0.595223 0.131941 0.409521 -0.100848
C7    C     C_2   0.593466 0.866572 0.903101 -0.098471
C8    C     C_3   0.060771 0.611324 0.423783 -0.106731
C9    C     C_3   0.059620 0.388097 0.919693 -0.105002
C10   C     C_3   0.560790 0.111323 0.423785 -0.106519
C11   C     C_3   0.559579 0.888050 0.919606 -0.104478
C12   C     C_1   0.080644 0.575547 0.209316 0.040161
C13   C     C_2   0.404151 0.868269 0.775571 -0.048267
C14   C     C_1   0.081253 0.424784 0.711221 0.036656
C15   C     C_1   0.580655 0.075543 0.209315 0.040171
C16   C     C_1   0.581225 0.924773 0.711189 0.036411
C17   C     C_2   0.104203 0.599197 0.168455 -0.096686
C18   C     C_2   0.106400 0.402172 0.675209 -0.095292
C19   C     C_2   0.604230 0.099183 0.168492 -0.096595
C20   C     C_2   0.606393 0.902180 0.675230 -0.095629
C21   C     C_2   0.113969 0.628601 0.277776 0.206870
C22   C     C_2   0.114179 0.371620 0.778855 0.223074
C23   C     C_2   0.614014 0.128573 0.277863 0.206810
C24   C     C_2   0.404778 0.132088 0.277197 -0.045976
C25   C     C_2   0.614202 0.871645 0.778927 0.223019
C26   C     C_R   0.740371 0.285543 0.082578 0.030693
C27   C     C_R   0.741298 0.715089 0.589363 0.029965
C28   C     C_R   0.240211 0.785635 0.082175 0.030698
C29   C     C_R   0.241194 0.215023 0.588953 0.029961
C30   C     C_R   0.775771 0.274362 0.047551 0.046491
C31   C     C_R   0.776850 0.726202 0.556950 0.046484
C32   C     C_R   0.275616 0.774468 0.047148 0.046486
C33   C     C_R   0.276771 0.226138 0.556747 0.046437
C34   C     C_R   0.784113 0.239115 0.049317 -0.012224
C35   C     C_3   0.939157 0.388243 0.766763 -0.008627
C36   C     C_R   0.785462 0.761350 0.563969 -0.009975
C37   C     C_R   0.283983 0.739226 0.049000 -0.012283
C38   C     C_R   0.285412 0.261287 0.564038 -0.009958
C39   C     C_3   0.895806 0.522805 0.141914 0.299283
C40   C     C_3   0.895615 0.477334 0.641380 0.298531
C41   C     C_3   0.395828 0.022821 0.141858 0.299266
C42   C     C_3   0.395600 0.977326 0.641169 0.298529
C43   C     C_R   0.732623 0.320769 0.071100 -0.104207
C44   C     C_R   0.734587 0.679674 0.592306 -0.104392
C45   C     C_R   0.232445 0.820858 0.070660 -0.104180
C46   C     C_3   0.939639 0.611945 0.267287 -0.015496
C47   C     C_R   0.234458 0.179605 0.591584 -0.104380
C48   C     C_R   0.847865 0.252905 0.004426 0.202989
C49   C     C_R   0.845012 0.748544 0.461987 0.197214
C50   C     C_R   0.347727 0.753044 0.004133 0.203179
C51   C     C_R   0.344980 0.248497 0.462166 0.197249
C52   C     C_R   0.260029 0.679206 0.038720 0.391305
C53   C     C_R   0.269435 0.319079 0.667703 0.387849
C54   C     C_R   0.760116 0.179108 0.038953 0.391340
C55   C     C_R   0.769453 0.819156 0.667344 0.388042
C56   C     C_R   0.234067 0.655805 0.084392 -0.085490
C57   C     C_3   0.439039 0.888261 0.766445 -0.007147
C58   C     C_R   0.242320 0.342686 0.699864 -0.082157
C59   C     C_R   0.734137 0.155719 0.084581 -0.085554
C60   C     C_R   0.742330 0.842748 0.699630 -0.082186
C61   C     C_R   0.820910 0.229597 0.038885 -0.084358
C62   C     C_R   0.818708 0.771738 0.505789 -0.094711
C63   C     C_R   0.320788 0.729725 0.038647 -0.084463
C64   C     C_R   0.318684 0.271688 0.506052 -0.094610
C65   C     C_3   0.862209 0.545683 0.128833 -0.340689
C66   C     C_3   0.862022 0.454545 0.626752 -0.339330
C67   C     C_3   0.362226 0.045692 0.128863 -0.340686
C68   C     C_3   0.439609 0.111944 0.267246 -0.015302
C69   C     C_3   0.361996 0.954554 0.626371 -0.339565
C70   C     C_3   0.104656 0.477124 0.047138 0.295057
C71   C     C_3   0.104684 0.522812 0.546553 0.300892
C72   C     C_3   0.604644 0.977124 0.047041 0.295022
C73   C     C_3   0.604700 0.022802 0.546530 0.300913
C74   C     C_3   0.137940 0.453887 0.064986 -0.329259
C75   C     C_3   0.138049 0.545862 0.564506 -0.337951
C76   C     C_3   0.637933 0.953891 0.064736 -0.329030
C77   C     C_3   0.638068 0.045848 0.564508 -0.337890
C78   C     C_3   0.015574 0.668217 0.581213 0.697081
C79   C     C_1   0.918669 0.424206 0.979952 0.050532
C80   C     C_3   0.015664 0.331711 0.086075 0.706260
C81   C     C_3   0.515595 0.168182 0.581312 0.697394
C82   C     C_3   0.515936 0.831631 0.087187 0.705320
C83   C     C_R   0.821507 0.357638 0.968162 0.593079
C84   C     C_R   0.822767 0.642898 0.478697 0.591735
C85   C     C_R   0.321307 0.857757 0.967536 0.593462
C86   C     C_R   0.322672 0.142836 0.478258 0.591859
C87   C     C_3   0.955559 0.678459 0.653261 0.285045
C88   C     C_3   0.955208 0.323203 0.156078 0.286398
C89   C     C_3   0.455471 0.178074 0.652760 0.284322
C90   C     C_1   0.919077 0.575962 0.480505 0.050404
C91   C     C_3   0.455096 0.823914 0.153695 0.282913
C92   C     C_3   0.029422 0.759767 0.524626 0.257511
C93   C     C_3   0.023735 0.239058 0.044477 0.249486
C94   C     C_3   0.528710 0.259845 0.526096 0.257377
C95   C     C_3   0.522998 0.738807 0.050140 0.249382
C96   C     C_3   0.278571 0.670074 0.792111 0.181586
C97   C     C_3   0.318848 0.319861 0.845669 0.191660
C98   C     C_3   0.778635 0.169937 0.792360 0.181540
C99   C     C_3   0.818938 0.820031 0.844698 0.191342
C100  C     C_1   0.418609 0.924233 0.979739 0.050414
C101  C     C_3   0.026426 0.294745 0.130368 0.290320
C102  C     C_1   0.419062 0.075954 0.480468 0.050485
C103  C     C_2   0.893344 0.401522 0.013753 -0.092994
C104  C     C_2   0.894230 0.599027 0.515970 -0.089369
C105  C     C_2   0.393186 0.901614 0.013198 -0.094399
C106  C     C_2   0.394168 0.098987 0.515779 -0.089915
C107  C     C_2   0.884250 0.372091 0.903415 0.193091
C108  C     C_2   0.884983 0.628452 0.405540 0.192176
C109  C     C_2   0.384043 0.872220 0.902669 0.192108
C110  C     C_2   0.384905 0.128396 0.405285 0.191931
C111  C     C_R   0.803168 0.298650 0.012089 -0.106564
C112  C     C_3   0.527375 0.205016 0.622201 0.293022
C113  C     C_R   0.803837 0.702011 0.515409 -0.107042
C114  C     C_R   0.302996 0.798765 0.011596 -0.106632
C115  C     C_R   0.303756 0.201950 0.515156 -0.107088
C116  C     C_R   0.794566 0.333690 0.004509 -0.023166
C117  C     C_R   0.795967 0.666836 0.517288 -0.022879
C118  C     C_R   0.294376 0.833801 0.003958 -0.023342
C119  C     C_R   0.295865 0.166773 0.516803 -0.022928
C120  C     C_R   0.759079 0.344186 0.032958 -0.055669
C121  C     C_R   0.761349 0.656175 0.557787 -0.055197
C122  C     C_R   0.258887 0.844285 0.032451 -0.055697
C123  C     C_3   0.526107 0.794642 0.133733 0.289703
C124  C     C_R   0.261221 0.156109 0.557034 -0.055196
C125  C     C_R   0.839042 0.287912 0.984605 -0.062883
C126  C     C_R   0.838421 0.712996 0.470993 -0.062148
C127  C     C_R   0.338871 0.788038 0.984088 -0.062558
C128  C     C_R   0.338359 0.212940 0.470924 -0.062054
C129  C     C_3   0.004346 0.651312 0.110850 0.318866
C130  C     C_3   0.003786 0.347911 0.616058 0.311623
C131  C     C_3   0.504330 0.151323 0.111314 0.318823
C132  C     C_3   0.504113 0.848118 0.617126 0.310961
C133  C     C_2   0.940641 0.420270 0.863501 -0.284944
C134  C     C_R   0.864858 0.312604 0.942005 0.598879
C135  C     C_2   0.940833 0.579742 0.363080 -0.284236
C136  C     C_2   0.440619 0.920256 0.863449 -0.284903
C137  C     C_2   0.440849 0.079758 0.363166 -0.283977
C138  C     C_2   0.060072 0.578744 0.331297 -0.272951
C139  C     C_2   0.059675 0.420964 0.829379 -0.269258
C140  C     C_2   0.560074 0.078749 0.331262 -0.273012
C141  C     C_2   0.559613 0.920919 0.829216 -0.269321
C142  C     C_R   0.213910 0.761386 0.128106 0.038682
C143  C     C_R   0.213581 0.239566 0.616677 0.038685
C144  C     C_R   0.714055 0.261306 0.128466 0.038688
C145  C     C_R   0.864782 0.688120 0.435105 0.596775
C146  C     C_R   0.713678 0.739630 0.616985 0.038665
C147  C     C_R   0.255871 0.714698 0.069721 -0.042413
C148  C     C_R   0.259834 0.285104 0.621038 -0.041828
C149  C     C_R   0.755985 0.214600 0.070003 -0.042345
C150  C     C_R   0.759880 0.785172 0.620934 -0.041673
C151  C     C_R   0.221657 0.725970 0.119286 0.002257
C152  C     C_R   0.223224 0.274455 0.636375 0.003761
C153  C     C_R   0.721778 0.225886 0.119586 0.002240
C154  C     C_R   0.723293 0.774518 0.636482 0.003736
C155  C     C_R   0.179971 0.771302 0.183524 -0.103165
C156  C     C_R   0.364659 0.812730 0.941235 0.598562
C157  C     C_R   0.176406 0.230482 0.624213 -0.102542
C158  C     C_R   0.680125 0.271236 0.183905 -0.103145
C159  C     C_R   0.676525 0.730543 0.624570 -0.102545
C160  C     C_R   0.154207 0.747388 0.223625 -0.065489
C161  C     C_R   0.149954 0.254576 0.655191 -0.066116
C162  C     C_R   0.654344 0.247335 0.223953 -0.065390
C163  C     C_R   0.650063 0.754637 0.655411 -0.066016
C164  C     C_R   0.161066 0.712430 0.211236 -0.009897
C165  C     C_R   0.159347 0.288805 0.681231 -0.010228
C166  C     C_R   0.661177 0.212376 0.211497 -0.009915
C167  C     C_R   0.364711 0.188061 0.434961 0.596635
C168  C     C_R   0.659428 0.788860 0.681349 -0.010192
C169  C     C_R   0.194784 0.701621 0.159070 -0.091020
C170  C     C_R   0.196041 0.298826 0.672784 -0.089009
C171  C     C_R   0.694887 0.201551 0.159322 -0.091020
C172  C     C_R   0.696102 0.798883 0.672868 -0.089009
C173  C     C_R   0.201558 0.666489 0.146271 -0.102682
C174  C     C_R   0.205519 0.333170 0.700809 -0.100435
C175  C     C_R   0.701635 0.166416 0.146465 -0.102661
C176  C     C_R   0.705552 0.833223 0.700805 -0.100536
C177  C     C_3   0.018010 0.687230 0.084118 0.002584
C178  C     C_2   0.904339 0.368156 0.776247 -0.047097
C179  C     C_3   0.012615 0.310138 0.606477 0.025639
C180  C     C_3   0.518129 0.187176 0.084588 0.002515
C181  C     C_3   0.512967 0.810284 0.608560 0.027626
C182  C     C_R   0.175133 0.642655 0.190262 0.609757
C183  C     C_R   0.178200 0.357068 0.735408 0.612852
C184  C     C_R   0.675191 0.142595 0.190406 0.609757
C185  C     C_R   0.678225 0.857109 0.735486 0.613028
C186  C     C_R   0.134657 0.688148 0.249255 0.576147
C187  C     C_R   0.132650 0.313211 0.714858 0.584483
C188  C     C_R   0.634749 0.188107 0.249459 0.576264
H1    H     H_    0.840325 0.534611 0.197140 0.138994
H2    H     H_    0.852036 0.451917 0.499916 0.134008
H3    H     H_    0.528812 0.863126 0.591635 0.020568
H4    H     H_    0.996301 0.650238 0.234929 0.008833
H5    H     H_    0.997079 0.352873 0.739978 -0.010951
H6    H     H_    0.496206 0.150305 0.235007 0.009962
H7    H     H_    0.497476 0.853304 0.741366 -0.010888
H8    H     H_    0.030451 0.688690 0.968786 0.061959
H9    H     H_    0.025730 0.304659 0.495299 0.064125
H10   H     H_    0.530651 0.188565 0.969509 0.062348
H11   H     H_    0.526303 0.804691 0.497818 0.064423
H12   H     H_    0.905202 0.519934 0.268599 0.006648
H13   H     H_    0.351934 0.048364 0.002412 0.134723
H14   H     H_    0.904745 0.480139 0.768398 0.006337
H15   H     H_    0.405255 0.019962 0.268519 0.006529
H16   H     H_    0.404727 0.980097 0.768209 0.006275
H17   H     H_    0.917516 0.534905 0.076136 0.066321
H18   H     H_    0.917477 0.465196 0.576419 0.064554
H19   H     H_    0.417520 0.034917 0.075954 0.066403
H20   H     H_    0.417458 0.965197 0.576147 0.064286
H21   H     H_    0.948310 0.705141 0.621243 0.123894
H22   H     H_    0.968781 0.678214 0.774656 0.077918
H23   H     H_    0.930048 0.663400 0.654788 0.068299
H24   H     H_    0.352005 0.951976 0.499517 0.133869
H25   H     H_    0.968246 0.322916 0.277662 0.073625
H26   H     H_    0.930097 0.338935 0.157047 0.067563
H27   H     H_    0.947369 0.296725 0.123723 0.134251
H28   H     H_    0.448005 0.204709 0.620729 0.124600
H29   H     H_    0.468663 0.177924 0.774218 0.078319
H30   H     H_    0.430088 0.162826 0.654147 0.067741
H31   H     H_    0.467692 0.823887 0.276041 0.075296
H32   H     H_    0.430082 0.839832 0.152152 0.066803
H33   H     H_    0.447168 0.797402 0.122353 0.134811
H34   H     H_    0.059863 0.760544 0.536915 0.017140
H35   H     H_    0.096556 0.480396 0.919416 0.011422
H36   H     H_    0.017883 0.770342 0.632621 0.034951
H37   H     H_    0.020189 0.776329 0.423000 0.104216
H38   H     H_    0.010277 0.230381 0.151338 0.049201
H39   H     H_    0.053967 0.236098 0.062819 0.007344
H40   H     H_    0.014107 0.222334 0.944104 0.106751
H41   H     H_    0.559129 0.260846 0.537852 0.017214
H42   H     H_    0.517197 0.270195 0.634584 0.035148
H43   H     H_    0.519226 0.276449 0.425007 0.104947
H44   H     H_    0.509014 0.730551 0.156345 0.050317
H45   H     H_    0.553159 0.735500 0.070706 0.006962
H46   H     H_    0.096708 0.519434 0.418796 0.012586
H47   H     H_    0.513488 0.721979 0.949949 0.106898
H48   H     H_    0.274864 0.697284 0.757792 0.029660
H49   H     H_    0.253414 0.655311 0.755806 0.030624
H50   H     H_    0.301121 0.659736 0.725603 0.100474
H51   H     H_    0.318702 0.291683 0.859953 0.040405
H52   H     H_    0.303029 0.332116 0.937989 0.035725
H53   H     H_    0.347659 0.328478 0.865169 0.107735
H54   H     H_    0.774861 0.197136 0.757965 0.029567
H55   H     H_    0.753511 0.155118 0.756147 0.030766
H56   H     H_    0.801204 0.159640 0.725854 0.100531
H57   H     H_    0.596520 0.980405 0.919346 0.011410
H58   H     H_    0.818840 0.791866 0.859174 0.040521
H59   H     H_    0.803160 0.832303 0.937061 0.035963
H60   H     H_    0.847734 0.828668 0.863803 0.107785
H61   H     H_    0.596733 0.019419 0.418765 0.012585
H62   H     H_    0.082110 0.465081 0.107981 0.071345
H63   H     H_    0.082112 0.535013 0.606868 0.069966
H64   H     H_    0.582109 0.965076 0.107929 0.071545
H65   H     H_    0.839976 0.465644 0.694222 0.139770
H66   H     H_    0.582124 0.035010 0.606791 0.069897
H67   H     H_    0.160683 0.464929 0.001772 0.140756
H68   H     H_    0.160943 0.534432 0.503419 0.138051
H69   H     H_    0.660661 0.964942 0.001456 0.140730
H70   H     H_    0.660967 0.034409 0.503491 0.138055
H71   H     H_    0.131113 0.428493 0.014040 0.078230
H72   H     H_    0.131516 0.571109 0.511332 0.071437
H73   H     H_    0.631101 0.928501 0.013772 0.078294
H74   H     H_    0.631545 0.071091 0.511275 0.071422
H75   H     H_    0.146926 0.450758 0.192694 0.135000
H76   H     H_    0.340366 0.034632 0.197365 0.139062
H77   H     H_    0.146692 0.549362 0.692335 0.136959
H78   H     H_    0.646942 0.950754 0.192415 0.135061
H79   H     H_    0.646698 0.049358 0.692345 0.136967
H80   H     H_    0.029332 0.663552 0.471772 -0.047064
H81   H     H_    0.029718 0.335365 0.976603 -0.060700
H82   H     H_    0.529468 0.163617 0.472072 -0.047538
H83   H     H_    0.530469 0.834904 0.978657 -0.059528
H84   H     H_    0.015708 0.713991 0.731477 -0.010886
H85   H     H_    0.014869 0.287085 0.242815 -0.015354
H86   H     H_    0.515456 0.213841 0.732113 -0.010177
H87   H     H_    0.339957 0.965635 0.693944 0.139944
H88   H     H_    0.514010 0.787360 0.245557 -0.014026
H89   H     H_    0.039266 0.693700 0.179299 0.124274
H90   H     H_    0.031917 0.302996 0.708217 0.130699
H91   H     H_    0.539342 0.193616 0.179979 0.124001
H92   H     H_    0.532100 0.803228 0.711039 0.130066
H93   H     H_    0.879483 0.403851 0.122563 0.111968
H94   H     H_    0.880914 0.597023 0.626304 0.115867
H95   H     H_    0.379314 0.903941 0.121981 0.111969
H96   H     H_    0.380834 0.096974 0.626067 0.115775
H97   H     H_    0.751495 0.370843 0.026013 0.124258
H98   H     H_    0.869197 0.571257 0.176970 0.059580
H99   H     H_    0.754641 0.629346 0.562449 0.124351
H100  H     H_    0.251290 0.870939 0.025478 0.124230
H101  H     H_    0.254490 0.129278 0.561453 0.124327
H102  H     H_    0.101722 0.652164 0.494503 0.097727
H103  H     H_    0.098348 0.344604 0.979866 0.080044
H104  H     H_    0.601774 0.152129 0.494613 0.097842
H105  H     H_    0.598411 0.844639 0.979985 0.080167
H106  H     H_    0.128682 0.756540 0.265211 0.118698
H107  H     H_    0.121871 0.246146 0.658983 0.119582
H108  H     H_    0.628826 0.256499 0.265553 0.118976
H109  H     H_    0.868911 0.428938 0.674915 0.060433
H110  H     H_    0.621996 0.746208 0.659211 0.119873
H111  H     H_    0.172652 0.797529 0.200731 0.069002
H112  H     H_    0.166606 0.204937 0.602130 0.069251
H113  H     H_    0.672826 0.297465 0.201175 0.069059
H114  H     H_    0.666755 0.704999 0.602607 0.069360
H115  H     H_    0.705960 0.331156 0.087749 0.070596
H116  H     H_    0.709029 0.669180 0.625069 0.071207
H117  H     H_    0.205778 0.831235 0.087338 0.070566
H118  H     H_    0.208879 0.169104 0.624121 0.071161
H119  H     H_    0.898488 0.347624 0.692183 0.126783
H120  H     H_    0.369222 0.071277 0.176834 0.059533
H121  H     H_    0.898789 0.652462 0.192380 0.124384
H122  H     H_    0.398278 0.847758 0.691418 0.127027
H123  H     H_    0.398723 0.152418 0.192181 0.124363
H124  H     H_    0.057998 0.704980 0.643498 -0.019615
H125  H     H_    0.056845 0.293612 0.149017 -0.022781
H126  H     H_    0.557755 0.205168 0.643809 -0.019537
H127  H     H_    0.556479 0.793200 0.154572 -0.022309
H128  H     H_    0.238965 0.628995 0.064197 0.147866
H129  H     H_    0.250653 0.368503 0.729802 0.148063
H130  H     H_    0.739016 0.128907 0.064348 0.147847
H131  H     H_    0.368871 0.928928 0.674311 0.060351
H132  H     H_    0.750641 0.868567 0.729402 0.148043
H133  H     H_    0.116194 0.597607 0.054881 0.123227
H134  H     H_    0.121561 0.405657 0.570613 0.106378
H135  H     H_    0.616221 0.097593 0.054920 0.123189
H136  H     H_    0.621542 0.905662 0.570609 0.106419
H137  H     H_    0.829990 0.204008 0.065276 0.170004
H138  H     H_    0.824231 0.798233 0.485300 0.166299
H139  H     H_    0.329884 0.704144 0.065159 0.169950
H140  H     H_    0.324236 0.298198 0.485775 0.166235
H141  H     H_    0.964546 0.436251 0.855130 0.070740
H142  H     H_    0.851958 0.548383 0.002352 0.134748
H143  H     H_    0.964411 0.563365 0.353048 0.071059
H144  H     H_    0.464603 0.936151 0.855461 0.070769
H145  H     H_    0.464475 0.063429 0.353367 0.071064
H146  H     H_    0.037527 0.561521 0.347297 0.075273
H147  H     H_    0.037603 0.438669 0.847005 0.074576
H148  H     H_    0.537514 0.061539 0.347202 0.075233
H149  H     H_    0.537506 0.938596 0.846677 0.074636
H150  H     H_    0.027203 0.633155 0.096465 0.000225
H151  H     H_    0.028489 0.362881 0.591557 0.020020
H152  H     H_    0.527121 0.133155 0.097352 -0.000298
I1    I     I_    0.901128 0.230909 0.996378 -0.332902
I2    I     I_    0.892761 0.771937 0.379576 -0.331026
I3    I     I_    0.401034 0.731106 0.996595 -0.333473
I4    I     I_    0.392772 0.271926 0.380012 -0.331333
I5    I     I_    0.974778 0.723760 0.093332 -0.331900
I6    I     I_    0.964601 0.279503 0.619584 -0.314658
I7    I     I_    0.475020 0.223818 0.092975 -0.332421
I8    I     I_    0.464890 0.779617 0.620817 -0.313121
N1    N     N_R   0.856307 0.347071 0.937751 -0.433259
N2    N     N_R   0.856961 0.653527 0.439837 -0.433359
N3    N     N_R   0.356102 0.847197 0.937002 -0.433123
N4    N     N_R   0.356877 0.153467 0.439550 -0.433316
N5    N     N_R   0.141813 0.653480 0.240131 -0.421344
N6    N     N_R   0.142166 0.346961 0.742338 -0.422817
N7    N     N_R   0.641879 0.153436 0.240280 -0.421345
N8    N     N_R   0.642208 0.847000 0.742430 -0.422683
O1    O     O_2   0.072110 0.546320 0.923350 -0.457341
O2    O     O_3   0.974840 0.356155 0.503355 -0.575905
O3    O     O_3   0.474798 0.143813 0.000881 -0.572056
O4    O     O_3   0.475087 0.856118 0.504315 -0.575913
O5    O     O_3   0.958050 0.483830 0.034350 -0.497456
O6    O     O_3   0.958050 0.516170 0.534350 -0.497508
O7    O     O_3   0.458050 0.983830 0.034350 -0.497392
O8    O     O_3   0.458050 0.016170 0.534350 -0.497498
O9    O     O_2   0.813773 0.387904 0.961199 -0.594661
O10   O     O_2   0.815440 0.612544 0.477764 -0.595678
O11   O     O_2   0.313566 0.888022 0.960616 -0.594477
O12   O     O_2   0.072110 0.453680 0.423350 -0.457173
O13   O     O_2   0.315345 0.112482 0.477259 -0.595599
O14   O     O_2   0.105028 0.698013 0.288656 -0.625291
O15   O     O_2   0.100769 0.304410 0.718518 -0.629726
O16   O     O_2   0.605127 0.197988 0.288856 -0.625277
O17   O     O_2   0.600853 0.804465 0.718405 -0.629991
O18   O     O_2   0.895037 0.303461 0.907580 -0.540296
O19   O     O_2   0.895056 0.697181 0.401860 -0.541711
O20   O     O_2   0.394815 0.803582 0.906525 -0.540900
O21   O     O_2   0.394989 0.197117 0.401761 -0.542061
O22   O     O_2   0.182025 0.612241 0.185546 -0.593858
O23   O     O_2   0.572110 0.046320 0.923350 -0.457265
O24   O     O_2   0.186592 0.386769 0.761256 -0.591163
O25   O     O_2   0.682061 0.112178 0.185639 -0.593863
O26   O     O_2   0.686596 0.886800 0.761374 -0.591216
O27   O     O_3   0.042000 0.516250 0.155330 -0.497099
O28   O     O_3   0.042000 0.483750 0.655330 -0.496121
O29   O     O_3   0.542000 0.016250 0.155330 -0.497109
O30   O     O_3   0.542000 0.983750 0.655330 -0.496119
O31   O     O_3   0.012540 0.574900 0.645500 -0.449915
O32   O     O_3   0.012540 0.425100 0.145500 -0.450498
O33   O     O_3   0.512540 0.074900 0.645500 -0.449920
O34   O     O_2   0.572110 0.953680 0.423350 -0.457089
O35   O     O_3   0.512540 0.925100 0.145500 -0.450475
O36   O     O_2   0.077803 0.598556 0.748284 -0.492748
O37   O     O_2   0.078383 0.401869 0.242566 -0.489433
O38   O     O_2   0.577832 0.098515 0.748206 -0.492697
O39   O     O_2   0.578457 0.901992 0.242155 -0.489626
O40   O     O_3   0.113970 0.508721 0.114533 -0.622429
O41   O     O_3   0.113897 0.491266 0.614712 -0.625464
O42   O     O_3   0.613965 0.008715 0.114483 -0.622440
O43   O     O_3   0.613902 0.991259 0.614741 -0.625445
O44   O     O_3   0.027117 0.645449 0.706201 -0.632545
O45   O     O_3   0.886130 0.509193 0.576867 -0.624304
O46   O     O_3   0.027920 0.354693 0.208878 -0.628334
O47   O     O_3   0.527185 0.145435 0.706273 -0.632588
O48   O     O_3   0.528070 0.854742 0.209634 -0.628270
O49   O     O_2   0.928110 0.546600 0.766510 -0.457085
O50   O     O_2   0.928110 0.453400 0.266510 -0.456886
O51   O     O_2   0.428110 0.046600 0.766510 -0.457133
O52   O     O_2   0.428110 0.953400 0.266510 -0.457119
O53   O     O_3   0.987780 0.574950 0.044470 -0.474452
O54   O     O_3   0.987780 0.425050 0.544470 -0.473243
O55   O     O_3   0.487780 0.074950 0.044470 -0.474380
O56   O     O_3   0.886197 0.490993 0.077462 -0.624738
O57   O     O_3   0.487780 0.925050 0.544470 -0.473376
O58   O     O_2   0.922496 0.599790 0.936047 -0.492166
O59   O     O_2   0.922688 0.400053 0.434920 -0.491879
O60   O     O_2   0.422535 0.099847 0.935896 -0.492289
O61   O     O_2   0.422860 0.899841 0.434132 -0.492089
O62   O     O_3   0.977531 0.664570 0.538727 -0.654627
O63   O     O_3   0.977797 0.336498 0.042577 -0.655692
O64   O     O_3   0.477596 0.164369 0.538383 -0.655242
O65   O     O_3   0.478229 0.836737 0.041137 -0.656772
O66   O     O_3   0.016647 0.726472 0.492563 -0.609467
O67   O     O_3   0.386124 0.009202 0.576840 -0.624264
O68   O     O_3   0.013963 0.272882 0.005059 -0.618498
O69   O     O_3   0.516232 0.226500 0.493452 -0.609587
O70   O     O_3   0.513831 0.772659 0.008564 -0.618560
O71   O     O_3   0.288264 0.666559 0.956071 -0.645648
O72   O     O_3   0.305382 0.329663 0.691487 -0.649707
O73   O     O_3   0.788344 0.166452 0.956305 -0.645689
O74   O     O_3   0.805378 0.829772 0.690660 -0.649926
O75   O     O_3   0.386206 0.991005 0.077503 -0.624670
O76   O     O_3   0.974747 0.643796 0.000562 -0.571789
P1    P     P_3+3 0.075650 0.535480 0.098240 0.996804
P2    P     P_3+3 0.954590 0.393758 0.562090 0.965882
P3    P     P_3+3 0.454629 0.106378 0.061750 0.963677
P4    P     P_3+3 0.454650 0.893712 0.562037 0.965969
P5    P     P_3+3 0.044985 0.392466 0.128099 0.971855
P6    P     P_3+3 0.044942 0.607501 0.629960 0.965750
P7    P     P_3+3 0.545018 0.892488 0.128129 0.972456
P8    P     P_3+3 0.544967 0.107482 0.629952 0.966025
P9    P     P_3+3 0.075650 0.464520 0.598240 0.994158
P10   P     P_3+3 0.575650 0.035480 0.098240 0.996835
P11   P     P_3+3 0.575650 0.964520 0.598240 0.994153
P12   P     P_3+3 0.924520 0.535770 0.591580 0.998977
P13   P     P_3+3 0.924520 0.464230 0.091580 0.998560
P14   P     P_3+3 0.424520 0.035770 0.591580 0.999024
P15   P     P_3+3 0.424520 0.964230 0.091580 0.998644
P16   P     P_3+3 0.954615 0.606366 0.061719 0.963967

loop_
_geom_bond_atom_site_label_1
_geom_bond_atom_site_label_2
_ccdc_geom_bond_type
C79   P13   S    
C179  H90   S    
O41   P9    S    
O32   P5    S    
C98   H54   S    
C156  N3    Am   
Ba2   O54   S    
Ba3   O51   S    
C37   C63   A    
Ba1   O49   S    
C146  C159  A    
C89   H28   S    
Ba4   O7    S    
C150  C154  A    
C53   C148  A    
C164  C186  A    
C81   H82   S    
C33   C38   A    
C5    C9    S    
Ba2   O6    S    
C87   H23   S    
C114  C127  A    
C29   C143  A    
C1    H124  S    
C13   C57   S    
C44   C121  A    
C7    C11   S    
C148  C152  A    
C188  N7    Am   
C78   O44   S    
C74   H67   S    
C40   C66   S    
C147  C151  A    
C123  H88   S    
C40   O45   S    
C80   O63   S    
C3    C168  A    
Ba4   O35   S    
C75   H72   S    
C88   O63   S    
C21   N5    S    
O67   P14   S    
C141  H149  S    
C23   N7    S    
C5    C22   D    
C51   C64   A    
C69   H131  S    
C161  C165  A    
C10   C140  S    
C109  N3    S    
C35   P2    S    
C179  H9    S    
C160  C164  A    
C132  H3    S    
C49   I2    S    
C27   C146  A    
C26   C30   A    
C175  C184  A    
C56   C173  A    
C18   H134  S    
C107  C178  D    
C84   N2    Am   
C173  C182  A    
C100  C136  D    
O3    P3    S    
C92   H34   S    
C15   C19   D    
C14   P9    S    
C54   C149  A    
Ba2   P9    S    
Ba1   O28   S    
C65   H1    S    
C80   C101  S    
C71   O41   S    
C52   C147  A    
C70   H62   S    
C93   O68   S    
C187  N6    Am   
C27   C44   A    
C66   H109  S    
Ba3   O23   S    
C96   H50   S    
O61   P4    D    
O39   P7    D    
C81   C112  S    
C134  N1    Am   
C37   C147  A    
C115  C119  A    
C187  O15   D    
C131  H152  S    
C144  C158  A    
C82   H83   S    
C112  H86   S    
C31   C36   A    
C130  O2    S    
C59   H130  S    
C99   H59   S    
C87   H21   S    
C182  N5    Am   
C133  H141  S    
C1    C78   S    
O27   P1    S    
C2    H121  S    
C65   H142  S    
C159  H114  S    
C129  H4    S    
C88   H25   S    
C39   H17   S    
C181  H92   S    
Ba3   P14   S    
C104  H94   S    
C19   H135  S    
C67   H13   S    
C51   C128  A    
C178  H119  S    
O42   P10   S    
C71   H46   S    
C43   H115  S    
O55   P3    S    
C183  N6    Am   
C71   C75   S    
O28   P9    S    
C157  C161  A    
C48   C61   A    
O49   P12   D    
C6    C23   D    
C67   H76   S    
C41   C67   S    
O53   P16   S    
C10   P8    S    
C86   C119  A    
C12   C138  D    
C188  O16   D    
C8    P6    S    
O46   P5    S    
C13   C109  D    
O75   P15   S    
C69   H87   S    
C42   H16   S    
C45   C122  A    
C91   O65   S    
C75   H77   S    
C47   C124  A    
C28   C32   A    
C14   C139  D    
Ba4   O52   S    
C71   H63   S    
C176  C185  A    
C85   C118  A    
C110  N4    S    
C107  N1    S    
C114  C118  A    
C24   H123  S    
C70   O40   S    
C81   O64   S    
C66   H65   S    
O2    P2    S    
C68   P3    S    
C94   H42   S    
C180  I7    S    
C69   H24   S    
C106  C110  S    
O31   P6    S    
C47   H118  S    
C167  O21   D    
Ba1   O53   S    
C50   I3    S    
C39   C65   S    
O59   P2    D    
C185  O26   D    
C16   P11   S    
O48   P7    S    
O35   P7    S    
C7    H105  S    
C54   O73   S    
C84   O10   D    
O47   P8    S    
C90   P12   S    
O4    P4    S    
C15   P10   S    
Ba4   O34   S    
C137  H145  S    
C73   H61   S    
C6    C10   S    
C98   O73   S    
C112  H126  S    
Ba2   O32   S    
C97   O72   S    
C30   C111  A    
C91   H31   S    
Ba4   P15   S    
C91   H33   S    
C117  C121  A    
C113  C126  A    
C101  O68   S    
C82   O65   S    
C93   H38   S    
C33   C115  A    
C34   C61   A    
C4    C8    S    
C92   H37   S    
C2    C46   S    
O54   P2    S    
C17   H133  S    
C121  H99   S    
C179  I6    S    
C122  H100  S    
C129  C177  S    
C162  C166  A    
C18   C22   S    
O37   P5    D    
C165  C187  A    
Ba3   Ba4   S    
C132  O4    S    
C5    H103  S    
C61   H137  S    
C42   O67   S    
C6    H104  S    
C17   C21   S    
O45   P12   S    
C14   C18   D    
Ba2   O12   S    
C98   H55   S    
C72   C76   S    
C161  H107  S    
C57   C136  S    
C162  H108  S    
C73   O43   S    
C74   H75   S    
Ba2   P13   S    
O57   P4    S    
Ba4   O8    S    
C72   O42   S    
C50   C63   A    
C92   O66   S    
C95   H44   S    
C48   I1    S    
C4    H102  S    
C86   N4    Am   
C96   H48   S    
C144  C153  A    
C72   H64   S    
C131  O3    S    
C28   C45   A    
C35   C178  S    
C52   O71   S    
C172  C176  A    
C41   O75   S    
C39   H12   S    
Ba1   P1    S    
C155  C160  A    
C158  H113  S    
C34   C149  A    
C11   P7    S    
C67   H120  S    
C42   C69   S    
C168  C172  A    
C39   O56   S    
C130  H5    S    
C81   O47   S    
C15   C140  D    
C90   C135  D    
C82   O48   S    
Ba1   O6    S    
C53   O72   S    
Ba3   O8    S    
C97   H53   S    
C96   O71   S    
Ba2   O27   S    
C145  N2    Am   
C152  C170  A    
C41   H19   S    
C48   C125  A    
C103  H93   S    
C3    N8    Am   
C111  C125  A    
C186  O14   D    
C93   H40   S    
C28   C142  A    
O44   P6    S    
C65   H98   S    
C97   H52   S    
C20   C25   S    
C58   H129  S    
C158  C162  A    
C123  H127  S    
C142  C151  A    
O29   P10   S    
C89   H30   S    
C32   C114  A    
C170  C174  A    
O76   P16   S    
C56   H128  S    
O33   P8    S    
C95   H47   S    
C36   C62   A    
C80   H81   S    
C22   N6    S    
C4    C21   D    
C32   C37   A    
C24   C68   S    
C103  C107  S    
C72   H57   S    
C55   C150  A    
C166  C171  A    
C124  H101  S    
O23   P10   D    
C76   H69   S    
Ba1   P12   S    
O52   P15   D    
C120  H97   S    
C143  C157  A    
C46   C135  S    
C29   C33   A    
C104  C108  S    
Ba1   O1    S    
Ba4   O29   S    
C83   N1    Am   
C181  I8    S    
O30   P11   S    
Ba2   O5    S    
C145  O19   D    
C87   O62   S    
C140  H148  S    
C66   H2    S    
C40   H14   S    
C155  H111  S    
C88   H26   S    
C143  C152  A    
O8    P14   S    
C85   N3    Am   
C174  C183  A    
C27   C31   A    
C108  N2    S    
C99   H60   S    
C177  I5    S    
C92   H36   S    
C79   C133  D    
C167  N4    Am   
C102  C137  D    
O40   P1    S    
C139  H147  S    
C146  C154  A    
C82   C123  S    
C2    C108  D    
C84   C117  A    
C26   C144  A    
C163  C168  A    
C29   C47   A    
C13   H122  S    
C181  H11   S    
C123  O70   S    
Ba2   O50   S    
Ba3   O55   S    
Ba4   P11   S    
C43   C120  A    
C180  H91   S    
C129  H150  S    
C8    C138  S    
C40   H18   S    
C9    C139  S    
C149  C153  A    
C9    P5    S    
C138  H146  S    
C95   H45   S    
C86   O13   D    
C52   C56   A    
C70   C74   S    
O60   P3    D    
C16   C141  D    
O1    P1    D    
C96   H49   S    
C80   O46   S    
O56   P13   S    
O12   P9    D    
C35   C133  S    
C51   I4    S    
C132  C181  S    
C101  H85   S    
C74   H71   S    
O34   P11   D    
C130  C179  S    
C131  H6    S    
C53   C58   A    
C50   C127  A    
C90   C104  D    
C55   C60   A    
C75   H68   S    
C136  H144  S    
C87   H22   S    
C78   O62   S    
C100  C105  D    
C60   C176  A    
C88   H27   S    
C63   H139  S    
C166  C188  A    
C77   H79   S    
C59   C175  A    
C20   H136  S    
C78   H80   S    
Ba1   Ba2   S    
O6    P12   S    
C157  H112  S    
C113  C117  A    
C57   P4    S    
O50   P13   D    
C55   O74   S    
C94   H43   S    
C16   C20   D    
O43   P11   S    
C132  H7    S    
C129  O76   S    
C182  O22   D    
C128  C167  A    
C73   C77   S    
C64   H140  S    
C38   C148  A    
C156  O20   D    
C160  H106  S    
C105  C109  S    
Ba3   O30   S    
C68   C137  S    
C151  C169  A    
C77   H70   S    
C41   H15   S    
C38   C64   A    
C36   C150  A    
C95   O70   S    
C131  C180  S    
C45   H117  S    
C100  P15   S    
C164  C169  A    
C83   O9    D    
C180  H10   S    
C125  C134  A    
C76   H73   S    
C26   C43   A    
C44   H116  S    
C98   H56   S    
C11   C141  S    
Ba4   O57   S    
C171  C175  A    
C142  C155  A    
Ba1   O31   S    
C184  O25   D    
C118  C122  A    
C165  C170  A    
C159  C163  A    
C85   O11   D    
C177  H89   S    
C70   H35   S    
C184  N7    Am   
C169  C173  A    
C186  N5    Am   
C126  C145  A    
C115  C128  A    
C102  P14   S    
C1    H84   S    
O5    P13   S    
C49   C62   A    
C24   C110  D    
C112  O69   S    
C153  C171  A    
C60   H132  S    
C154  C172  A    
C19   C23   S    
C73   H66   S    
C77   H74   S    
C31   C113  A    
C62   H138  S    
C101  H125  S    
C185  N8    Am   
C102  C106  D    
C54   C59   A    
Ba1   O5    S    
C183  O24   D    
C30   C34   A    
C99   H58   S    
C46   P16   S    
C130  H151  S    
C89   O64   S    
Ba3   O7    S    
C58   C174  A    
C1    O66   S    
C12   C17   D    
Ba3   O33   S    
O38   P8    D    
C91   H32   S    
O36   P6    D    
C99   O74   S    
C83   C116  A    
O51   P14   D    
C119  C124  A    
C93   H39   S    
C94   H41   S    
C135  H143  S    
C3    O17   D    
C163  H110  S    
C42   H20   S    
C79   C103  D    
C76   H78   S    
C127  C156  A    
C97   H51   S    
C105  H95   S    
C106  H96   S    
C7    C25   D    
C111  C116  A    
Ba3   P10   S    
O58   P16   D    
C94   O69   S    
C12   P1    S    
C89   H29   S    
C49   C126  A    
C177  H8    S    
C116  C120  A    
C25   N8    S    
O7    P15   S    
C134  O18   D    
