data_mof_unit_14254.cif
_audit_creation_date              2012-12-10T17:33:13-0500
_audit_creation_method            fapswitch 2.2
_symmetry_space_group_name_H-M    P1
_symmetry_Int_Tables_number       1
_space_group_crystal_system       triclinic
_cell_length_a                    15.503997
_cell_length_b                    15.532896
_cell_length_c                    17.761859
_cell_angle_alpha                 90.711416
_cell_angle_beta                  109.803183
_cell_angle_gamma                 68.897448
_cell_volume                      3725.2316217

loop_
_atom_site_label
_atom_site_type_symbol
_atom_type_description
_atom_site_fract_x
_atom_site_fract_y
_atom_site_fract_z
_atom_type_partial_charge
C1    C     C_R   0.464681 0.740106 0.532609 0.506570
C2    C     C_R   0.627007 0.425292 0.093536 0.010572
C3    C     C_R   0.653819 0.351411 0.048292 0.022427
C4    C     C_R   0.535368 0.259242 0.469764 0.493260
C5    C     C_R   0.628630 0.372062 0.964106 0.034670
C6    C     C_R   0.570372 0.465021 0.925946 0.008282
C7    C     C_R   0.663736 0.302671 0.917625 -0.137908
C8    C     C_R   0.641617 0.323462 0.835440 -0.024715
C9    C     C_R   0.553913 0.485162 0.843690 -0.125745
C10   C     C_R   0.464130 0.940727 0.649351 0.020702
C11   C     C_R   0.453765 0.834482 0.548619 0.022056
C12   C     C_R   0.375681 0.693579 0.173869 -0.015192
C13   C     C_R   0.547996 0.139775 0.376759 -0.130044
C14   C     C_R   0.536162 0.058842 0.350069 -0.015726
C15   C     C_R   0.515629 0.002718 0.396759 -0.119298
C16   C     C_R   0.758088 0.447398 0.533033 0.500728
C17   C     C_R   0.511249 0.024128 0.473621 0.020620
C18   C     C_R   0.530716 0.103356 0.502693 0.023739
C19   C     C_R   0.488604 0.969461 0.522694 0.019242
C20   C     C_R   0.488199 0.993711 0.600611 0.059667
C21   C     C_R   0.516689 0.067198 0.629653 -0.131479
C22   C     C_R   0.539731 0.119147 0.582574 -0.106041
C23   C     C_R   0.481154 0.538261 0.163028 -0.151547
C24   C     C_R   0.469116 0.889772 0.497739 -0.126563
C25   C     C_R   0.449377 0.860374 0.622918 -0.109410
C26   C     C_R   0.542240 0.164500 0.451566 0.010027
C27   C     C_R   0.022243 0.395268 0.653947 -0.126959
C28   C     C_R   0.242021 0.552961 0.469517 0.505877
C29   C     C_R   0.862133 0.429078 0.550318 0.034977
C30   C     C_R   0.070311 0.615112 0.374055 -0.123855
C31   C     C_R   0.975097 0.615791 0.346347 -0.139240
C32   C     C_R   0.945163 0.571427 0.394304 -0.114846
C33   C     C_R   0.008453 0.529921 0.474015 0.024667
C34   C     C_R   0.486475 0.570244 0.091842 0.010694
C35   C     C_R   0.102672 0.538058 0.505471 0.015260
C36   C     C_R   0.980856 0.481386 0.523632 0.028647
C37   C     C_R   0.046859 0.443899 0.603862 0.032459
C38   C     C_R   0.133467 0.461099 0.635935 -0.136330
C39   C     C_R   0.159091 0.511769 0.589293 -0.004503
C40   C     C_R   0.560680 0.440352 0.712287 0.517467
C41   C     C_R   0.888501 0.471291 0.497533 -0.122328
C42   C     C_R   0.929850 0.389090 0.627658 -0.118392
C43   C     C_R   0.136241 0.573043 0.451826 0.020802
C44   C     C_R   0.442300 0.561331 0.287592 0.496523
C45   C     C_R   0.425308 0.662971 0.056057 0.044911
C46   C     C_R   0.429582 0.598318 0.205900 -0.017144
C47   C     C_R   0.587324 0.415457 0.798658 0.023704
C48   C     C_R   0.373195 0.726475 0.098750 0.002492
C49   C     C_3   0.456725 0.965249 0.730587 -0.279996
C50   C     C_3   0.362716 0.049809 0.720710 -0.432828
C51   C     C_1   0.540900 0.035225 0.272449 0.187704
C52   C     C_1   0.235630 0.545725 0.632314 0.219888
C53   C     C_1   0.678400 0.249744 0.790540 0.185077
C54   C     C_3   0.704654 0.251505 0.090154 -0.285816
C55   C     C_3   0.634640 0.199025 0.065292 -0.426544
C56   C     C_R   0.546514 0.509249 0.052687 0.038620
C57   C     C_3   0.316487 0.829390 0.065717 -0.275421
C58   C     C_3   0.209634 0.847920 0.012017 -0.429927
C59   C     C_1   0.322131 0.758489 0.217116 0.216047
C60   C     C_3   0.698655 0.420786 0.179252 -0.276340
C61   C     C_3   0.720466 0.509400 0.194890 -0.425915
C62   C     C_R   0.526334 0.533401 0.970048 0.018550
C63   C     C_R   0.461411 0.624834 0.934273 -0.133091
C64   C     C_R   0.415287 0.688776 0.977221 -0.131305
H1    H     H_    0.366797 0.757032 0.945086 0.113491
H2    H     H_    0.513261 0.554210 0.811567 0.114166
H3    H     H_    0.179094 0.438807 0.699259 0.112371
H4    H     H_    0.072314 0.366593 0.715190 0.109517
H5    H     H_    0.832393 0.501431 0.439116 0.096414
H6    H     H_    0.094041 0.643505 0.332812 0.140650
H7    H     H_    0.871678 0.571614 0.366977 0.098895
H8    H     H_    0.925445 0.647260 0.285683 0.121389
H9    H     H_    0.515150 0.464965 0.184721 0.137494
H10   H     H_    0.443628 0.650209 0.872686 0.111029
H11   H     H_    0.361506 0.112070 0.689782 0.159393
H12   H     H_    0.709600 0.231661 0.944418 0.118515
H13   H     H_    0.296355 0.035174 0.685104 0.161697
H14   H     H_    0.359101 0.065369 0.781001 0.138915
H15   H     H_    0.454417 0.906479 0.763942 0.138856
H16   H     H_    0.523413 0.977076 0.769629 0.141685
H17   H     H_    0.568979 0.234070 0.082542 0.162941
H18   H     H_    0.608889 0.195349 0.999462 0.153203
H19   H     H_    0.673531 0.126924 0.096920 0.153399
H20   H     H_    0.773646 0.214460 0.078021 0.138960
H21   H     H_    0.727186 0.248376 0.156619 0.142733
H22   H     H_    0.207151 0.806445 0.960532 0.154325
H23   H     H_    0.437471 0.815599 0.661463 0.107466
H24   H     H_    0.170355 0.829614 0.047353 0.167139
H25   H     H_    0.170621 0.922827 0.987957 0.144544
H26   H     H_    0.316159 0.873828 0.115117 0.160754
H27   H     H_    0.353725 0.854339 0.032475 0.138134
H28   H     H_    0.739804 0.530929 0.145349 0.159185
H29   H     H_    0.656571 0.567159 0.200911 0.162326
H30   H     H_    0.784210 0.495854 0.252290 0.131155
H31   H     H_    0.673798 0.402258 0.226058 0.147960
H32   H     H_    0.772073 0.365331 0.188776 0.143360
H33   H     H_    0.523453 0.084999 0.689801 0.123154
H34   H     H_    0.472044 0.864586 0.441583 0.109733
H35   H     H_    0.557845 0.185456 0.337469 0.137880
H36   H     H_    0.504077 0.942855 0.371106 0.110599
H37   H     H_    0.566716 0.171004 0.610788 0.169712
H38   H     H_    0.908931 0.357668 0.669253 0.118783
N1    N     N_1   0.544701 0.016272 0.210121 -0.315578
N2    N     N_1   0.296600 0.572991 0.667053 -0.318499
N3    N     N_1   0.708003 0.190668 0.754667 -0.330423
N4    N     N_1   0.279338 0.810537 0.251414 -0.286132
O1    O     O_3   0.500000 0.500000 0.500000 -0.441822
O2    O     O_R   0.596500 0.492780 0.688380 -0.545670
O3    O     O_R   0.388780 0.611210 0.325000 -0.526527
O4    O     O_R   0.499860 0.410860 0.661600 -0.521026
O5    O     O_R   0.514860 0.485140 0.325020 -0.550488
O6    O     O_R   0.707110 0.418540 0.472990 -0.540948
O7    O     O_R   0.267620 0.606720 0.435250 -0.543804
O8    O     O_R   0.540230 0.674660 0.578090 -0.538954
O9    O     O_R   0.485030 0.300080 0.513670 -0.547454
O10   O     O_R   0.403610 0.721990 0.472930 -0.524489
O11   O     O_R   0.571130 0.303270 0.435320 -0.546192
O12   O     O_R   0.717650 0.497270 0.578120 -0.537526
O13   O     O_R   0.307610 0.477470 0.513630 -0.526494
Zn1   Zn    Zn3+2 0.572030 0.427990 0.434470 0.929135
Zn2   Zn    Zn3+2 0.587090 0.540470 0.584680 0.950429
Zn3   Zn    Zn3+2 0.449010 0.423430 0.546420 0.960817
Zn4   Zn    Zn3+2 0.391880 0.608100 0.434430 0.967241

loop_
_geom_bond_atom_site_label_1
_geom_bond_atom_site_label_2
_ccdc_geom_bond_type
C40   C47   S    
C34   C56   A    
C13   C26   A    
O10   Zn4   S    
C29   C42   A    
C4    O9    A    
C19   C20   A    
C18   C26   A    
O1    Zn4   S    
O2    Zn2   S    
C12   C48   A    
C6    C9    A    
C54   H20   S    
C48   C57   S    
C62   C63   A    
C22   H37   S    
C24   H34   S    
C41   H5    S    
C36   C37   A    
C45   C64   A    
C5    C6    A    
C3    C54   S    
C2    C60   S    
O13   Zn3   S    
C11   C25   A    
C51   N1    T    
C50   H14   S    
C11   C24   A    
C25   H23   S    
C33   C36   A    
C9    H2    S    
C27   H4    S    
C33   C35   A    
O8    Zn2   S    
C14   C51   S    
C10   C20   A    
C1    C11   S    
C1    O10   A    
C55   H17   S    
C35   C43   A    
C15   H36   S    
C61   H28   S    
C40   O2    A    
C44   O3    A    
C39   C52   S    
O9    Zn3   S    
C13   C14   A    
C12   C59   S    
C36   C41   A    
C23   H9    S    
C58   H22   S    
C30   H6    S    
C44   C46   S    
C32   H7    S    
C38   C39   A    
C59   N4    T    
C57   H26   S    
C7    C8    A    
C12   C46   A    
O11   Zn1   S    
C5    C7    A    
C61   H30   S    
O3    Zn4   S    
C40   O4    A    
C16   C29   S    
C49   H15   S    
O5    Zn1   S    
O12   Zn2   S    
C13   H35   S    
C35   C39   A    
C60   H31   S    
C37   C38   A    
C16   O12   A    
C21   H33   S    
C31   C32   A    
O7    Zn4   S    
C23   C34   A    
C17   C18   A    
C34   C45   A    
C38   H3    S    
C55   H18   S    
C60   H32   S    
C10   C25   A    
C31   H8    S    
C9    C47   A    
C56   C62   A    
C4    O11   A    
C1    O8    A    
O1    Zn2   S    
C55   H19   S    
C50   H13   S    
O1    Zn1   S    
C16   O6    A    
O6    Zn1   S    
C45   C48   A    
C15   C17   A    
C54   C55   S    
C52   N2    T    
C57   H27   S    
C29   C41   A    
C18   C22   A    
C3    C5    A    
C28   O13   A    
C58   H24   S    
C8    C53   S    
C54   H21   S    
C4    C26   S    
C7    H12   S    
C63   H10   S    
C28   C43   S    
C49   H16   S    
C32   C33   A    
C6    C62   A    
C2    C3    A    
C8    C47   A    
C2    C56   A    
C50   H11   S    
C42   H38   S    
C27   C42   A    
C57   C58   S    
C30   C31   A    
C27   C37   A    
C64   H1    S    
C17   C19   A    
C19   C24   A    
C61   H29   S    
C30   C43   A    
C58   H25   S    
C28   O7    A    
C63   C64   A    
C44   O5    A    
C53   N3    T    
C20   C21   A    
C49   C50   S    
C23   C46   A    
C14   C15   A    
C60   C61   S    
O1    Zn3   S    
C21   C22   A    
C10   C49   S    
O4    Zn3   S    
