data_mof_unit_67704.cif
_audit_creation_date              2012-10-26T19:56:13-0400
_audit_creation_method            fapswitch 2.2
_symmetry_space_group_name_H-M    P1
_symmetry_Int_Tables_number       1
_space_group_crystal_system       triclinic
_cell_length_a                    10.869482
_cell_length_b                    10.703214
_cell_length_c                    9.50441
_cell_angle_alpha                 92.714585
_cell_angle_beta                  90.771383
_cell_angle_gamma                 93.237797
_cell_volume                      1102.57953528

loop_
_atom_site_label
_atom_site_type_symbol
_atom_type_description
_atom_site_fract_x
_atom_site_fract_y
_atom_site_fract_z
_atom_type_partial_charge
C1    C     C_R   0.496964 0.260114 0.497259 0.568620
C2    C     C_3   0.431972 0.043451 0.603844 0.200337
C3    C     C_3   0.504286 0.876028 0.506107 0.022792
C4    C     C_3   0.497126 0.124281 0.493296 0.027777
C5    C     C_3   0.549614 0.972865 0.623456 0.216683
C6    C     C_3   0.451920 0.027694 0.375684 0.227277
C7    C     C_3   0.432132 0.584801 0.053574 0.251220
C8    C     C_3   0.567682 0.415080 0.946723 0.257687
C9    C     C_3   0.390453 0.478624 0.947993 0.274947
C10   C     C_3   0.609371 0.521346 0.052029 0.329035
C11   C     C_3   0.541707 0.606251 0.957271 0.297086
C12   C     C_R   0.503645 0.739981 0.502660 0.567521
C13   C     C_3   0.458080 0.393700 0.042901 0.291972
C14   C     C_R   0.262567 0.494665 0.498600 0.585223
C15   C     C_R   0.737441 0.505390 0.501391 0.584955
C16   C     C_R   0.113716 0.238409 0.059142 0.332917
C17   C     C_R   0.885826 0.762555 0.939997 0.358177
C18   C     C_R   0.105812 0.342574 0.156144 0.249026
C19   C     C_R   0.893561 0.658229 0.843174 0.248008
C20   C     C_R   0.108299 0.324020 0.303231 0.016369
C21   C     C_R   0.891805 0.676657 0.696058 0.014206
C22   C     C_R   0.125203 0.203950 0.351094 0.023876
C23   C     C_R   0.871723 0.504533 0.502508 0.034186
C24   C     C_R   0.876036 0.796862 0.647943 0.021627
C25   C     C_R   0.138121 0.103377 0.254227 -0.053801
C26   C     C_R   0.863557 0.897674 0.744603 -0.055910
C27   C     C_R   0.133482 0.119026 0.109619 0.292919
C28   C     C_R   0.867251 0.882091 0.889253 0.313723
C29   C     C_R   0.925284 0.420800 0.406602 0.223231
C30   C     C_R   0.074759 0.579392 0.593252 0.224558
C31   C     C_R   0.128303 0.495599 0.497412 0.034700
C32   C     C_R   0.945446 0.583460 0.597273 -0.040259
C33   C     C_R   0.054599 0.416830 0.402469 -0.041211
C34   C     C_3   0.614496 0.052450 0.513201 0.017921
C35   C     C_3   0.386888 0.947981 0.485881 0.013614
C36   C     C_3   0.569452 0.956865 0.395378 0.203592
Cu1   Cu    Cu3+1 0.500030 0.499990 0.643150 1.127628
Cu2   Cu    Cu3+1 0.499970 0.500010 0.356850 1.162293
H1    H     H_    0.147171 0.010512 0.291344 0.193778
H2    H     H_    0.395214 0.224364 0.007487 0.367200
H3    H     H_    0.063887 0.330384 0.897168 0.399372
H4    H     H_    0.934761 0.670579 0.102305 0.395881
H5    H     H_    0.104239 0.524574 0.180474 0.344633
H6    H     H_    0.894339 0.476150 0.819093 0.345923
H7    H     H_    0.201887 0.145276 0.528267 0.301625
H8    H     H_    0.047877 0.115420 0.513962 0.239615
H9    H     H_    0.800840 0.856255 0.470267 0.301836
H10   H     H_    0.954988 0.884512 0.485433 0.239224
H11   H     H_    0.890624 0.275512 0.271864 0.322123
H12   H     H_    0.855555 0.990635 0.707310 0.194472
H13   H     H_    0.109488 0.724791 0.727861 0.319500
H14   H     H_    0.665540 0.984605 0.230941 0.348649
H15   H     H_    0.336242 0.015614 0.768534 0.338797
H16   H     H_    0.738473 0.183609 0.601188 0.267883
H17   H     H_    0.760273 0.146912 0.429787 0.264701
H18   H     H_    0.241509 0.852589 0.568966 0.263982
H19   H     H_    0.262663 0.817527 0.397107 0.267790
H20   H     H_    0.615162 0.028641 0.805022 0.367612
H21   H     H_    0.386209 0.973982 0.193506 0.362595
H22   H     H_    0.140984 0.037299 0.921972 0.373005
H23   H     H_    0.859825 0.964155 0.076743 0.375596
H24   H     H_    0.234645 0.534170 0.888206 0.368721
H25   H     H_    0.765228 0.465551 0.111209 0.366327
H26   H     H_    0.324467 0.719472 0.036226 0.309475
H27   H     H_    0.667887 0.274681 0.964133 0.327188
H28   H     H_    0.516333 0.771036 0.898870 0.352236
N1    N     N_3   0.500090 0.499970 0.858290 -0.263992
N2    N     N_3   0.499910 0.500030 0.141710 -0.242058
N3    N     N_3   0.119464 0.182561 0.498510 -0.585926
N4    N     N_3   0.882677 0.818098 0.500540 -0.584832
N5    N     N_3   0.739174 0.109061 0.526163 -0.644865
N6    N     N_3   0.262188 0.891409 0.472986 -0.646522
O1    O     O_R   0.500060 0.316850 0.620870 -0.438771
O2    O     O_3   0.856231 0.987249 0.977239 -0.674586
O3    O     O_3   0.273277 0.452624 0.888887 -0.599084
O4    O     O_3   0.726575 0.547123 0.111130 -0.583543
O5    O     O_3   0.359276 0.675224 0.115529 -0.662074
O6    O     O_3   0.640620 0.324486 0.885355 -0.664534
O7    O     O_3   0.588819 0.719912 0.908709 -0.603209
O8    O     O_3   0.412404 0.279902 0.092742 -0.617994
O9    O     O_3   0.098569 0.249141 0.915638 -0.644938
O10   O     O_3   0.900206 0.751830 0.083594 -0.634644
O11   O     O_3   0.088205 0.458917 0.104527 -0.661874
O12   O     O_R   0.499940 0.683150 0.379130 -0.431135
O13   O     O_3   0.910326 0.541819 0.895043 -0.662062
O14   O     O_3   0.846805 0.342526 0.320932 -0.711954
O15   O     O_3   0.153266 0.657679 0.678890 -0.717125
O16   O     O_3   0.640904 0.910780 0.285355 -0.635116
O17   O     O_3   0.360513 0.089426 0.713920 -0.662366
O18   O     O_3   0.599430 0.946283 0.753865 -0.662077
O19   O     O_3   0.403511 0.055934 0.245016 -0.635617
O20   O     O_R   0.500000 0.316860 0.379090 -0.450304
O21   O     O_R   0.500000 0.683140 0.620910 -0.484705
O22   O     O_R   0.319670 0.500010 0.620890 -0.425580
O23   O     O_R   0.680330 0.499990 0.379110 -0.425785
O24   O     O_R   0.319620 0.500010 0.379110 -0.500477
O25   O     O_R   0.680380 0.499990 0.620890 -0.499089
O26   O     O_3   0.144982 0.014095 0.021418 -0.687422

loop_
_geom_bond_atom_site_label_1
_geom_bond_atom_site_label_2
_ccdc_geom_bond_type
C2    C35   S    
C27   O26   S    
C8    C13   S    
C29   C33   A    
H5    O11   S    
H26   O5    S    
H4    O10   S    
C14   C31   S    
C28   O2    S    
Cu1   O25   S    
C24   N4    S    
C36   O16   S    
C7    C11   S    
H28   O7    S    
C23   C29   A    
C19   C21   A    
C24   C26   A    
H22   O26   S    
C26   H12   S    
C15   O23   A    
C30   C31   A    
H25   O4    S    
Cu2   N2    S    
C6    O19   S    
Cu2   O20   S    
C6    C35   S    
C12   O12   A    
C17   O10   S    
C9    C13   S    
H8    N3    S    
C3    C12   S    
C7    N2    S    
C10   O4    S    
H16   N5    S    
H18   N6    S    
C22   C25   A    
Cu2   O23   S    
C31   C33   A    
C22   N3    S    
C18   C20   A    
C5    O18   S    
C7    O5    S    
C16   C27   A    
C15   C23   S    
C13   O8    S    
C8    O6    S    
C15   O25   A    
C14   O24   A    
C11   N1    S    
C21   C32   S    
C4    C34   S    
H7    N3    S    
H14   O16   S    
C4    C6    S    
H13   O15   S    
C3    C5    S    
C2    O17   S    
C2    C4    S    
C9    N1    S    
H9    N4    S    
Cu1   Cu2   S    
C3    C35   S    
H3    O9    S    
C5    C34   S    
H2    O8    S    
C18   O11   S    
Cu1   O21   S    
H21   O19   S    
H20   O18   S    
C29   O14   S    
C11   O7    S    
C20   C33   S    
C16   C18   A    
C20   C22   A    
C35   N6    S    
C1    O20   A    
H15   O17   S    
H24   O3    S    
C2    C5    S    
H6    O13   S    
C7    C9    S    
Cu1   O1    S    
H27   O6    S    
Cu2   O12   S    
C17   C28   A    
H11   O14   S    
H10   N4    S    
C19   O13   S    
C10   N2    S    
H23   O2    S    
C25   C27   A    
C26   C28   A    
C1    C4    S    
C1    O1    A    
C23   C32   A    
C25   H1    S    
C30   C32   A    
C3    C36   S    
Cu1   N1    S    
C16   O9    S    
C17   C19   A    
C6    C36   S    
Cu1   O22   S    
C34   C36   S    
H19   N6    S    
C12   O21   A    
C10   C11   S    
C8    N1    S    
C8    C10   S    
C21   C24   A    
Cu2   O24   S    
C9    O3    S    
C30   O15   S    
C34   N5    S    
C14   O22   A    
H17   N5    S    
C13   N2    S    
