data_mof_unit_35610.cif
_audit_creation_date              2012-12-10T20:45:31-0500
_audit_creation_method            fapswitch 2.2
_symmetry_space_group_name_H-M    P1
_symmetry_Int_Tables_number       1
_space_group_crystal_system       triclinic
_cell_length_a                    10.780946
_cell_length_b                    10.670057
_cell_length_c                    9.855345
_cell_angle_alpha                 89.432856
_cell_angle_beta                  91.713777
_cell_angle_gamma                 89.74302
_cell_volume                      1133.11735769

loop_
_atom_site_label
_atom_site_type_symbol
_atom_type_description
_atom_site_fract_x
_atom_site_fract_y
_atom_site_fract_z
_atom_type_partial_charge
C1    C     C_R   0.499979 0.260323 0.500778 0.900856
C2    C     C_R   0.170929 0.591482 0.969303 -0.126610
C3    C     C_R   0.929347 0.528172 0.383719 -0.263153
C4    C     C_R   0.872581 0.500875 0.505910 -0.081686
C5    C     C_R   0.943550 0.470625 0.624252 -0.011617
C6    C     C_R   0.070371 0.466173 0.615603 -0.258874
C7    C     C_R   0.127240 0.494861 0.493617 -0.076970
C8    C     C_R   0.055963 0.523620 0.374895 -0.004144
C9    C     C_R   0.864065 0.544826 0.844986 -0.093972
C10   C     C_R   0.829172 0.521011 0.978236 -0.136335
C11   C     C_R   0.823394 0.397716 0.026787 -0.124771
C12   C     C_R   0.259859 0.498642 0.497621 0.883601
C13   C     C_R   0.850168 0.297966 0.941432 -0.159914
C14   C     C_R   0.885122 0.321383 0.808106 -0.166876
C15   C     C_R   0.892332 0.445000 0.759222 0.155777
C16   C     C_R   0.543157 0.062089 0.611805 0.135182
C17   C     C_R   0.489698 0.129020 0.503576 -0.164984
C18   C     C_R   0.418353 0.068840 0.403348 -0.278929
C19   C     C_R   0.415929 0.939259 0.401297 0.370595
C20   C     C_R   0.486111 0.872102 0.500810 -0.199269
C21   C     C_R   0.541263 0.934304 0.610286 0.090328
C22   C     C_3   0.671122 0.923371 0.666736 -0.480703
C23   C     C_R   0.496492 0.739909 0.499382 0.936705
C24   C     C_3   0.673769 0.065390 0.667235 -0.488901
C25   C     C_R   0.524097 0.392735 0.073017 0.201560
C26   C     C_R   0.487015 0.608687 0.070321 -0.098438
C27   C     C_R   0.486722 0.608734 0.926488 -0.151800
C28   C     C_R   0.524516 0.392800 0.930635 0.251478
C29   C     C_3   0.454649 0.272744 0.923485 -0.501372
C30   C     C_3   0.453920 0.272844 0.077584 -0.499237
C31   C     C_R   0.740065 0.500175 0.502321 0.862245
C32   C     C_R   0.137703 0.691791 0.050795 -0.104495
C33   C     C_R   0.103760 0.670059 0.184791 -0.087515
C34   C     C_R   0.105902 0.547982 0.239058 0.139000
C35   C     C_R   0.137924 0.447373 0.156184 -0.109282
C36   C     C_R   0.169951 0.469317 0.021623 -0.118764
H1    H     H_    0.196123 0.608396 0.865291 0.145383
H2    H     H_    0.797453 0.379361 0.130307 0.140012
H3    H     H_    0.845138 0.202564 0.979054 0.131592
H4    H     H_    0.908718 0.243639 0.743794 0.125813
H5    H     H_    0.367921 0.122057 0.325203 0.185601
H6    H     H_    0.674605 0.880874 0.770249 0.202080
H7    H     H_    0.735910 0.881133 0.594051 0.195114
H8    H     H_    0.680713 0.104738 0.771050 0.198602
H9    H     H_    0.739472 0.106169 0.594114 0.195089
H10   H     H_    0.474974 0.695989 0.122636 0.206595
H11   H     H_    0.136711 0.786219 0.009638 0.151146
H12   H     H_    0.473599 0.696129 0.871512 0.163293
H13   H     H_    0.361374 0.283552 0.873792 0.204798
H14   H     H_    0.511343 0.195385 0.883081 0.206372
H15   H     H_    0.359944 0.284160 0.119089 0.210046
H16   H     H_    0.510370 0.195586 0.124572 0.213075
H17   H     H_    0.074363 0.747972 0.245873 0.156221
H18   H     H_    0.135018 0.352075 0.194832 0.116977
H19   H     H_    0.191864 0.391447 0.957291 0.121659
H20   H     H_    0.874899 0.552713 0.292929 0.161998
H21   H     H_    0.124854 0.440970 0.706129 0.161476
H22   H     H_    0.871367 0.640778 0.809354 0.112908
H23   H     H_    0.807940 0.598150 0.044251 0.123257
N1    N     N_R   0.499160 0.499140 0.142800 -0.110960
N2    N     N_R   0.499160 0.499180 0.857150 -0.111022
O1    O     O_R   0.500020 0.316790 0.614690 -0.617691
O2    O     O_R   0.500000 0.316760 0.385350 -0.629163
O3    O     O_R   0.316770 0.500030 0.614670 -0.635924
O4    O     O_R   0.316750 0.499990 0.385330 -0.597916
O5    O     O_R   0.500000 0.683240 0.614650 -0.634560
O6    O     O_R   0.499980 0.683210 0.385310 -0.585400
O7    O     O_R   0.683250 0.500010 0.614670 -0.612249
O8    O     O_R   0.683230 0.499970 0.385330 -0.636105
Zn1   Zn    Zn3+2 0.500010 0.500020 0.653130 0.945112
Zn2   Zn    Zn3+2 0.499990 0.499980 0.346870 0.964257
Cl1   Cl    Cl    0.326889 0.867479 0.271986 -0.706205

loop_
_geom_bond_atom_site_label_1
_geom_bond_atom_site_label_2
_ccdc_geom_bond_type
N2    Zn1   S    
C27   H12   S    
C11   H2    S    
C30   H15   S    
C16   C21   A    
C29   C30   S    
C25   N1    A    
O3    Zn1   S    
C3    H20   S    
O5    Zn1   S    
C1    C17   S    
C35   C36   A    
C2    H1    S    
C20   C23   S    
C10   H23   S    
C28   N2    A    
C19   C20   A    
C33   C34   A    
C19   Cl1   S    
C7    C8    A    
C16   C24   S    
C36   H19   S    
C29   H13   S    
C13   C14   A    
C32   C33   A    
C35   H18   S    
C33   H17   S    
C11   C13   A    
C6    H21   S    
C26   C27   A    
C22   H6    S    
C12   O3    A    
C24   H9    S    
C1    O2    A    
C23   O5    A    
C2    C32   A    
C28   C29   S    
C16   C17   A    
O2    Zn2   S    
C9    H22   S    
C6    C7    A    
O6    Zn2   S    
C29   H14   S    
C3    C8    A    
C17   C18   A    
C5    C6    A    
C24   H8    S    
C32   H11   S    
C22   C24   S    
C7    C12   S    
C5    C15   S    
C4    C31   S    
C13   H3    S    
C10   C11   A    
C26   H10   S    
C14   H4    S    
C3    C4    A    
C9    C10   A    
C31   O8    A    
C2    C36   A    
C20   C21   A    
O1    Zn1   S    
C1    O1    A    
O7    Zn1   S    
C34   C35   A    
C12   O4    A    
C18   H5    S    
C23   O6    A    
C25   C30   S    
O8    Zn2   S    
C30   H16   S    
C14   C15   A    
C18   C19   A    
C8    C34   S    
C27   N2    A    
N1    Zn2   S    
C21   C22   S    
C26   N1    A    
C31   O7    A    
C22   H7    S    
C9    C15   A    
O4    Zn2   S    
C4    C5    A    
C25   C28   A    
