data_mof_unit_32325.cif
_audit_creation_date              2012-12-11T15:46:57-0500
_audit_creation_method            fapswitch 2.2
_symmetry_space_group_name_H-M    P1
_symmetry_Int_Tables_number       1
_space_group_crystal_system       triclinic
_cell_length_a                    11.536928
_cell_length_b                    11.526368
_cell_length_c                    19.560445
_cell_angle_alpha                 90.429489
_cell_angle_beta                  90.003664
_cell_angle_gamma                 59.997473
_cell_volume                      2252.50017997

loop_
_atom_site_label
_atom_site_type_symbol
_atom_type_description
_atom_site_fract_x
_atom_site_fract_y
_atom_site_fract_z
_atom_type_partial_charge
C1    C     C_R   0.640423 0.117316 0.599289 0.547062
C2    C     C_1   0.652930 0.149643 0.668663 0.003868
C3    C     C_R   0.673835 0.639717 0.198762 0.021579
C4    C     C_R   0.612443 0.745967 0.598658 0.545326
C5    C     C_R   0.582836 0.619240 0.236130 0.043891
C6    C     C_R   0.577294 0.628215 0.305698 0.024425
C7    C     C_R   0.772596 0.654086 0.305381 -0.171280
C8    C     C_R   0.775806 0.647403 0.234006 -0.171496
C9    C     C_3   0.435137 0.681758 0.227954 -0.271119
C10   C     C_3   0.427156 0.691222 0.304958 -0.261433
C11   C     C_R   0.663214 0.660639 0.340737 0.019508
C12   C     C_1   0.641158 0.703887 0.668018 0.004519
C13   C     C_R   0.156666 0.186448 0.188388 0.013199
C14   C     C_R   0.210152 0.256622 0.221200 0.016961
C15   C     C_R   0.234077 0.242013 0.290088 0.043516
C16   C     C_R   0.240921 0.145272 0.598202 0.547362
C17   C     C_R   0.176566 0.068304 0.294675 -0.168723
C18   C     C_R   0.151076 0.083263 0.224371 -0.156132
C19   C     C_3   0.164307 0.403097 0.224378 -0.272258
C20   C     C_3   0.188341 0.387181 0.300625 -0.265914
C21   C     C_R   0.208790 0.155497 0.328977 0.015665
C22   C     C_R   0.689539 0.196516 0.199940 0.004580
C23   C     C_1   0.126735 0.198855 0.859280 0.003763
C24   C     C_R   0.796903 0.093805 0.235094 0.026303
C25   C     C_R   0.791192 0.076328 0.303917 0.072805
C26   C     C_R   0.575315 0.277847 0.308733 -0.157878
C27   C     C_R   0.582296 0.295405 0.238274 -0.158546
C28   C     C_R   0.646100 0.113864 0.403472 0.543895
C29   C     C_3   0.874026 0.947093 0.219830 -0.223294
C30   C     C_3   0.867996 0.926687 0.295892 -0.041492
C31   C     C_R   0.674730 0.160444 0.340498 -0.001711
C32   C     C_R   0.081838 0.231160 0.928580 0.546333
C33   C     C_R   0.683976 0.604452 0.929485 0.545851
C34   C     C_1   0.171501 0.170204 0.727725 -0.030768
C35   C     C_R   0.708461 0.206689 0.930100 0.546772
C36   C     C_R   0.084401 0.234794 0.124745 0.549269
C37   C     C_R   0.684462 0.608143 0.126936 0.542923
C38   C     C_R   0.710755 0.213032 0.128402 0.546587
C39   C     C_R   0.618948 0.734722 0.404078 0.546364
C40   C     C_R   0.247164 0.139334 0.400321 0.545480
C41   C     C_1   0.670551 0.646440 0.860105 0.003984
C42   C     C_1   0.654756 0.683656 0.728435 -0.031001
C43   C     C_1   0.663554 0.666632 0.799677 -0.031102
C44   C     C_1   0.150166 0.182299 0.798940 -0.030772
C45   C     C_1   0.195264 0.160795 0.667402 0.003629
C46   C     C_1   0.678711 0.191282 0.860747 0.003582
C47   C     C_1   0.658552 0.167195 0.729035 -0.030717
C48   C     C_1   0.665765 0.180896 0.800327 -0.030657
Cr1   Cr    Cr6+3 0.404720 0.198220 0.499960 1.024688
Cr2   Cr    Cr6+3 0.698290 0.897110 0.500380 1.018166
Cr3   Cr    Cr6+3 0.396970 0.904720 0.499610 1.025605
Cr4   Cr    Cr6+3 0.926290 0.152010 0.028150 1.023171
Cr5   Cr    Cr6+3 0.921440 0.451830 0.027490 1.024296
Cr6   Cr    Cr6+3 0.626370 0.446880 0.028730 1.026097
H1    H     H_    0.846867 0.668392 0.331900 0.119951
H2    H     H_    0.164188 0.994345 0.322440 0.153526
H3    H     H_    0.115249 0.022589 0.200012 0.141960
H4    H     H_    0.057299 0.467264 0.211623 0.159332
H5    H     H_    0.487775 0.349981 0.336894 0.124787
H6    H     H_    0.502111 0.381919 0.213648 0.123013
H7    H     H_    0.976183 0.914574 0.200021 0.155995
H8    H     H_    0.809867 0.877345 0.309594 0.149861
H9    H     H_    0.052679 0.766488 0.313668 0.216783
H10   H     H_    0.986134 0.870519 0.380711 0.254635
H11   H     H_    0.393132 0.625473 0.328127 0.128461
H12   H     H_    0.233876 0.427568 0.197144 0.129954
H13   H     H_    0.269952 0.404816 0.317525 0.133433
H14   H     H_    0.094689 0.440020 0.331413 0.138837
H15   H     H_    0.815754 0.912625 0.188994 0.109123
H16   H     H_    0.853768 0.653759 0.206561 0.117784
H17   H     H_    0.404653 0.611772 0.206423 0.135750
H18   H     H_    0.389675 0.781070 0.202686 0.139659
H19   H     H_    0.372787 0.796810 0.322835 0.171580
N1    N     N_3   0.999657 0.867747 0.327771 -0.648721
O1    O     O_R   0.267750 0.231960 0.575440 -0.505238
O2    O     O_R   0.596230 0.579400 0.952760 -0.505073
O3    O     O_R   0.639160 0.321170 0.958690 -0.493392
O4    O     O_R   0.527290 0.186640 0.570530 -0.494530
O5    O     O_R   0.821370 0.124220 0.104400 -0.521747
O6    O     O_R   0.037020 0.167050 0.097880 -0.509712
O7    O     O_R   0.056310 0.349620 0.102920 -0.519732
O8    O     O_R   0.797790 0.564880 0.097980 -0.507919
O9    O     O_R   0.596000 0.584270 0.104310 -0.518448
O10   O     O_R   0.638950 0.325690 0.099180 -0.503590
O11   O     O_3   0.824700 0.350240 0.028120 -0.253141
O12   O     O_R   0.685950 0.784660 0.430010 -0.510557
O13   O     O_R   0.728110 0.003450 0.576380 -0.504912
O14   O     O_R   0.682980 0.789190 0.570500 -0.494421
O15   O     O_R   0.499300 0.771880 0.575540 -0.504974
O16   O     O_R   0.285350 0.030870 0.569740 -0.492530
O17   O     O_R   0.270960 0.227070 0.423890 -0.517956
O18   O     O_R   0.530270 0.182120 0.430040 -0.505202
O19   O     O_R   0.731320 0.998570 0.424830 -0.526123
O20   O     O_R   0.502510 0.767000 0.423980 -0.524190
O21   O     O_R   0.288320 0.026340 0.429250 -0.506798
O22   O     O_3   0.499990 0.000020 0.499980 -0.251821
O23   O     O_R   0.821590 0.119350 0.952850 -0.505226
O24   O     O_R   0.037230 0.162540 0.957390 -0.494661
O25   O     O_R   0.056530 0.344750 0.951370 -0.504838
O26   O     O_R   0.798000 0.560370 0.957490 -0.493708

loop_
_geom_bond_atom_site_label_1
_geom_bond_atom_site_label_2
_ccdc_geom_bond_type
C25   C31   A    
C16   O16   A    
C16   O1    A    
C20   H13   S    
C19   C20   S    
C9    H18   S    
C7    H1    S    
Cr6   O10   S    
C7    C8    A    
Cr5   O25   S    
C7    C11   A    
C26   C27   A    
C13   C18   A    
Cr4   O11   S    
C27   H6    S    
Cr3   O16   S    
C5    C6    A    
C30   N1    S    
C10   H19   S    
C38   O5    A    
C22   C38   S    
Cr4   O23   S    
Cr1   O4    S    
C19   H12   S    
Cr5   O7    S    
C1    C2    S    
C1    O13   A    
C24   C29   S    
C12   C42   T    
C33   O2    A    
Cr1   O1    S    
C4    C12   S    
Cr4   O5    S    
C9    C10   S    
Cr2   O14   S    
Cr3   O22   S    
Cr6   O3    S    
C26   C31   A    
Cr5   O26   S    
C13   C14   A    
C1    O4    A    
C41   C43   T    
Cr1   O17   S    
Cr6   O9    S    
C29   H15   S    
C19   H4    S    
C15   C20   S    
C29   H7    S    
C34   C44   S    
C24   C25   A    
C13   C36   S    
C3    C8    A    
C36   O6    A    
C6    C11   A    
C35   O3    A    
C17   C21   A    
C23   C44   T    
C28   O19   A    
C39   O20   A    
C5    C9    S    
C29   C30   S    
C18   H3    S    
C47   C48   S    
C36   O7    A    
C17   C18   A    
C28   O18   A    
C34   C45   T    
C11   C39   S    
C17   H2    S    
Cr2   O13   S    
Cr6   O2    S    
Cr1   O22   S    
C22   C27   A    
C30   H8    S    
C22   C24   A    
C37   O8    A    
C42   C43   S    
Cr1   O18   S    
C4    O15   A    
C26   H5    S    
C10   H11   S    
C25   C30   S    
C38   O10   A    
C14   C19   S    
C20   H14   S    
C28   C31   S    
C37   O9    A    
C9    H17   S    
C3    C5    A    
C16   C45   S    
C6    C10   S    
Cr6   O11   S    
Cr2   O19   S    
C4    O14   A    
H9    N1    S    
C2    C47   T    
C8    H16   S    
C32   O25   A    
C33   O26   A    
C33   C41   S    
C23   C32   S    
Cr4   O6    S    
Cr3   O15   S    
Cr2   O22   S    
C21   C40   S    
Cr4   O24   S    
C32   O24   A    
C40   O17   A    
Cr2   O12   S    
Cr3   O20   S    
C46   C48   T    
C15   C21   A    
C3    C37   S    
H10   N1    S    
C14   C15   A    
Cr5   O8    S    
Cr5   O11   S    
C40   O21   A    
C39   O12   A    
C35   O23   A    
C35   C46   S    
Cr3   O21   S    
