data_mof_unit_20574.cif
_audit_creation_date              2012-12-11T15:32:38-0500
_audit_creation_method            fapswitch 2.2
_symmetry_space_group_name_H-M    P1
_symmetry_Int_Tables_number       1
_space_group_crystal_system       triclinic
_cell_length_a                    6.952875
_cell_length_b                    20.480939
_cell_length_c                    24.250707
_cell_angle_alpha                 89.969149
_cell_angle_beta                  90.657484
_cell_angle_gamma                 89.389203
_cell_volume                      3452.9105066

loop_
_atom_site_label
_atom_site_type_symbol
_atom_type_description
_atom_site_fract_x
_atom_site_fract_y
_atom_site_fract_z
_atom_type_partial_charge
O1    O     O_R   0.507320 0.423560 0.460500 -0.537030
O2    O     O_R   0.170760 0.556250 0.437010 -0.537323
O3    O     O_R   0.004030 0.576440 0.539500 -0.535309
C1    C     C_R   0.338347 0.576364 0.420992 0.721531
O4    O     O_R   0.177370 0.422820 0.454110 -0.534614
O5    O     O_R   0.010680 0.442050 0.556720 -0.534307
C2    C     C_R   0.345823 0.398492 0.443780 0.709703
O6    O     O_R   0.500680 0.557950 0.443280 -0.535289
O7    O     O_3   0.340380 0.506470 0.533650 -0.366376
V1    V     V_3+5 0.064130 0.498800 0.493760 1.432894
O8    O     O_R   0.681160 0.443750 0.562990 -0.537759
C3    C     C_R   0.851094 0.423640 0.578791 0.732463
O9    O     O_R   0.674560 0.577180 0.545890 -0.536810
C4    C     C_R   0.842561 0.600968 0.557121 0.693469
V2    V     V_3+5 0.564560 0.501200 0.506240 1.430595
O10   O     O_3   0.838180 0.493530 0.466350 -0.366735
C5    C     C_R   0.974222 0.835736 0.913125 -0.127268
C6    C     C_R   0.843256 0.661673 0.590197 -0.044796
C7    C     C_R   0.013664 0.717898 0.910111 -0.130002
C8    C     C_R   0.023953 0.776569 0.939876 -0.016977
C9    C     C_R   0.916540 0.834729 0.857231 -0.214578
C10   C     C_R   0.894297 0.775081 0.827879 0.090874
C11   C     C_R   0.950818 0.716839 0.854882 0.059311
C12   C     C_R   0.826462 0.771890 0.771726 -0.055877
C13   C     C_R   0.848420 0.712409 0.741207 -0.035283
C14   C     C_R   0.877784 0.653682 0.772132 0.003728
C15   C     C_R   0.936453 0.657174 0.827522 -0.170104
C16   C     C_R   0.727141 0.824745 0.745998 -0.036908
C17   C     C_R   0.725229 0.829315 0.687848 0.132685
C18   C     C_R   0.768266 0.773264 0.655842 0.103514
C19   C     C_R   0.830534 0.714238 0.681958 0.045897
C20   C     C_R   0.741330 0.774333 0.597930 -0.148339
C21   C     C_R   0.772489 0.718858 0.566125 -0.162723
C22   C     C_R   0.882172 0.660605 0.647224 -0.219760
H1    H     H_    0.963840 0.612476 0.850464 0.163397
H2    H     H_    0.952129 0.617296 0.663269 0.112317
H3    H     H_    0.738561 0.720332 0.522405 0.107030
H4    H     H_    0.052957 0.672336 0.930291 0.158960
H5    H     H_    0.892384 0.881158 0.836875 0.111754
H6    H     H_    0.685967 0.817068 0.576635 0.126920
C23   C     C_3   0.803371 0.300237 0.765484 0.174671
C24   C     C_3   0.994022 0.278777 0.793128 0.189753
H7    H     H_    0.232637 0.288948 0.724651 0.124352
C25   C     C_1   0.960205 0.121634 0.875296 -0.183295
C26   C     C_1   0.864137 0.378095 0.624476 -0.176785
C27   C     C_3   0.736448 0.228475 0.763768 -0.177001
C28   C     C_3   0.929052 0.207347 0.791166 0.124000
C29   C     C_3   0.829546 0.220659 0.706104 -0.165203
C30   C     C_3   0.895323 0.292367 0.708555 0.124073
C31   C     C_3   0.022073 0.198924 0.734080 -0.164193
C32   C     C_3   0.087918 0.271230 0.735935 -0.171954
C33   C     C_1   0.947050 0.160061 0.837260 -0.033818
C34   C     C_1   0.877348 0.339572 0.662425 -0.026523
H8    H     H_    0.112485 0.156749 0.721195 0.133332
H9    H     H_    0.761630 0.196735 0.669845 0.130293
H10   H     H_    0.591568 0.211134 0.775311 0.125991
C35   C     C_3   0.493935 0.719100 0.207778 0.158623
C36   C     C_3   0.296777 0.700460 0.231851 -0.139621
H11   H     H_    0.202555 0.660580 0.216982 0.123274
C37   C     C_1   0.346650 0.621842 0.374862 -0.193574
C38   C     C_1   0.477332 0.877809 0.124782 -0.168918
C39   C     C_3   0.581595 0.724553 0.266452 -0.150514
C40   C     C_3   0.383833 0.707245 0.290507 0.097223
C41   C     C_3   0.524305 0.798211 0.267460 -0.205348
C42   C     C_3   0.438220 0.791914 0.208684 0.145027
C43   C     C_3   0.326409 0.780319 0.292285 -0.129361
C44   C     C_3   0.242824 0.773967 0.233179 0.165259
C45   C     C_1   0.360191 0.660186 0.336691 -0.040855
C46   C     C_1   0.463095 0.839227 0.162711 -0.012513
H12   H     H_    0.255054 0.805624 0.327103 0.127081
H13   H     H_    0.618187 0.838284 0.282095 0.141588
H14   H     H_    0.721384 0.703125 0.280252 0.122530
C47   C     C_R   0.472058 0.162456 0.088569 -0.046822
C48   C     C_R   0.347615 0.335999 0.413196 -0.048842
C49   C     C_R   0.548712 0.276977 0.095611 -0.162879
C50   C     C_R   0.538635 0.219849 0.064715 -0.168576
C51   C     C_R   0.411946 0.163014 0.143721 -0.229426
C52   C     C_R   0.408641 0.221740 0.175154 0.074726
C53   C     C_R   0.489289 0.277942 0.150740 0.149742
C54   C     C_R   0.341892 0.225494 0.231142 -0.029697
C55   C     C_R   0.390462 0.281286 0.264194 0.082023
C56   C     C_R   0.477068 0.334942 0.237872 -0.173426
C57   C     C_R   0.518178 0.333998 0.182029 -0.203355
C58   C     C_R   0.226741 0.176509 0.255324 -0.044811
C59   C     C_R   0.205731 0.174712 0.312538 -0.131244
C60   C     C_R   0.264986 0.226302 0.346699 0.022020
C61   C     C_R   0.349650 0.281950 0.322253 0.076463
C62   C     C_R   0.233192 0.224272 0.404667 0.013942
C63   C     C_R   0.278946 0.278672 0.438047 0.099617
C64   C     C_R   0.386572 0.336707 0.356633 -0.250420
H15   H     H_    0.582261 0.376789 0.163729 0.125463
H16   H     H_    0.436689 0.382331 0.340440 0.102316
H17   H     H_    0.130268 0.133788 0.329703 0.207148
H18   H     H_    0.607574 0.320251 0.076700 0.118067
H19   H     H_    0.587831 0.219949 0.022478 0.108798
H20   H     H_    0.379876 0.116444 0.162106 0.117529
H21   H     H_    0.515542 0.379072 0.259117 0.121459
O11   O     O_R   0.323550 0.942140 0.056770 -0.537474
O12   O     O_R   0.647080 0.077200 0.045890 -0.537185
O13   O     O_R   0.813610 0.057920 0.943260 -0.535779
C65   C     C_R   0.478373 0.101339 0.056525 0.699929
O14   O     O_R   0.653470 0.943760 0.063000 -0.535861
O15   O     O_R   0.820050 0.923540 0.960490 -0.535575
C66   C     C_R   0.485868 0.923560 0.078917 0.726182
O16   O     O_R   0.317110 0.076520 0.039540 -0.537522
O17   O     O_3   0.483830 0.993580 0.966380 -0.365673
V3    V     V_3+5 0.760140 0.001190 0.006240 1.442246
O18   O     O_R   0.149510 0.922740 0.954070 -0.539189
C67   C     C_R   0.981177 0.898682 0.943248 0.677982
O19   O     O_R   0.143120 0.056170 0.936970 -0.535512
C68   C     C_R   0.973197 0.076230 0.921111 0.728851
V4    V     V_3+5 0.259690 0.998700 0.993700 1.442265
O20   O     O_3   0.986130 0.006420 0.033620 -0.365593
C69   C     C_3   0.089055 0.311938 0.842295 -0.785811
H22   H     H_    0.120181 0.363486 0.831842 0.229371
H23   H     H_    0.991468 0.310571 0.878158 0.212834
H24   H     H_    0.225679 0.286159 0.852994 0.206663
C70   C     C_3   0.677664 0.357441 0.783396 -0.758455
H25   H     H_    0.630582 0.349820 0.826472 0.209485
H26   H     H_    0.760506 0.403328 0.780948 0.252527
H27   H     H_    0.549196 0.361208 0.755947 0.206614
C71   C     C_3   0.590774 0.684255 0.160089 -0.761003
H28   H     H_    0.614941 0.632112 0.170817 0.209058
H29   H     H_    0.497587 0.687689 0.122714 0.235405
H30   H     H_    0.731089 0.707336 0.151633 0.217005
C72   C     C_3   0.050881 0.802625 0.214109 -0.783357
H31   H     H_    0.934729 0.782759 0.239738 0.209156
H32   H     H_    0.052623 0.856553 0.218422 0.226114
H33   H     H_    0.024070 0.789719 0.170268 0.219888
C73   C     C_3   0.245054 0.275826 0.499787 -0.777268
H34   H     H_    0.292610 0.320123 0.522108 0.200983
H35   H     H_    0.089444 0.269294 0.507717 0.215461
H36   H     H_    0.327291 0.234210 0.518006 0.195834
C74   C     C_2   0.100136 0.133281 0.221958 0.371056
H37   H     H_    0.057335 0.147281 0.180395 0.058680
O21   O     O_2   0.039142 0.082272 0.240745 -0.521542
C75   C     C_2   0.146269 0.166497 0.431391 0.350263
H38   H     H_    0.223163 0.141274 0.464384 0.063468
O22   O     O_2   0.984195 0.149119 0.418788 -0.522288
C76   C     C_3   0.686419 0.894628 0.660140 -0.683514
H39   H     H_    0.794872 0.903467 0.627794 0.180092
H40   H     H_    0.539867 0.895547 0.641460 0.217016
H41   H     H_    0.702322 0.936088 0.689187 0.239170
C77   C     C_2   0.085369 0.775260 0.998876 0.355743
H42   H     H_    0.089225 0.819781 0.023030 0.043812
O23   O     O_2   0.132388 0.724140 0.021489 -0.533122
C78   C     C_2   0.813570 0.588914 0.751925 0.342172
H43   H     H_    0.702780 0.585763 0.720181 0.056376
O24   O     O_2   0.880895 0.538365 0.771137 -0.537590
C79   C     C_2   0.585564 0.863734 0.779090 0.361259
H44   H     H_    0.567668 0.853788 0.822623 0.063715
O25   O     O_2   0.476219 0.903780 0.757996 -0.527644

loop_
_geom_bond_atom_site_label_1
_geom_bond_atom_site_label_2
_ccdc_geom_bond_type
C13   C19   A    
C29   H9    S    
C18   C20   A    
C16   C79   S    
C72   H31   S    
C23   C24   S    
C4    C6    S    
C7    C11   A    
C78   H43   S    
C76   H41   S    
C1    O6    A    
C55   C56   A    
C35   C39   S    
O17   V4    S    
C59   C60   A    
C75   O22   D    
C58   C74   S    
C14   C15   A    
C31   H8    S    
C76   H39   S    
C48   C63   A    
C16   C17   A    
C78   O24   D    
C76   H40   S    
C50   H19   S    
O5    C3    A    
C18   C19   A    
C60   C62   A    
O17   V3    S    
V2    O10   S    
C5    C8    A    
O18   C67   A    
C41   H13   S    
C8    C77   S    
C70   H25   S    
V3    O20   S    
C39   C41   S    
C35   C71   S    
O19   C68   A    
O8    V2    S    
C24   C69   S    
C7    C8    A    
C42   C44   S    
C23   C27   S    
O1    V2    S    
C11   C15   A    
C23   C70   S    
C2    C48   S    
O7    V1    S    
C22   H2    S    
C54   C58   A    
C24   C32   S    
C25   C33   T    
C47   C65   S    
C43   C44   S    
C40   C43   S    
C26   C34   T    
O1    C2    A    
O9    C4    A    
C59   H17   S    
C23   C30   S    
V4    O20   S    
C69   H22   S    
C28   C31   S    
O19   V4    S    
C65   O16   A    
C27   C29   S    
O11   V4    S    
C38   C66   S    
C12   C13   A    
C77   O23   D    
C44   C72   S    
O4    C2    A    
C52   C53   A    
C54   C55   A    
C74   O21   D    
C72   H33   S    
C30   C32   S    
C13   C14   A    
C51   C52   A    
C21   H3    S    
C63   C73   S    
O18   V4    S    
C70   H27   S    
C41   C43   S    
C73   H35   S    
C49   C50   A    
C17   C18   A    
C7    H4    S    
C64   H16   S    
C9    H5    S    
C1    C37   S    
C39   C40   S    
C31   C32   S    
C19   C22   A    
C39   H14   S    
O14   V3    S    
C58   C59   A    
O14   C66   A    
C6    C22   A    
C55   C61   A    
O3    C4    A    
C29   C30   S    
O12   C65   A    
O16   V4    S    
O6    V2    S    
O9    V2    S    
C56   H21   S    
C10   C12   A    
C73   H36   S    
C71   H29   S    
O2    V1    S    
O12   V3    S    
C38   C46   T    
C36   C40   S    
C42   C46   S    
C17   C76   S    
C27   C28   S    
O13   V3    S    
C72   H32   S    
C51   H20   S    
C60   C61   A    
C12   C16   A    
C35   C42   S    
C77   H42   S    
C5    C67   S    
O5    V1    S    
C69   H23   S    
O8    C3    A    
C28   C33   S    
C3    C26   S    
C57   H15   S    
C75   H38   S    
C40   C45   S    
C74   H37   S    
C79   H44   S    
O15   C67   A    
C15   H1    S    
C41   C42   S    
C48   C64   A    
C71   H30   S    
C73   H34   S    
C36   H11   S    
O4    V1    S    
O3    V1    S    
V1    O10   S    
C20   C21   A    
C53   C57   A    
H7    C32   S    
C35   C36   S    
C43   H12   S    
C79   O25   D    
C30   C34   S    
O2    C1    A    
C29   C31   S    
C47   C50   A    
C52   C54   A    
C24   C28   S    
C20   H6    S    
O7    V2    S    
C14   C78   S    
C6    C21   A    
C70   H26   S    
C62   C75   S    
C69   H24   S    
C25   C68   S    
C36   C44   S    
C62   C63   A    
C37   C45   T    
O13   C68   A    
C56   C57   A    
C61   C64   A    
C27   H10   S    
C47   C51   A    
C10   C11   A    
O15   V3    S    
C71   H28   S    
C9    C10   A    
C49   C53   A    
O11   C66   A    
C49   H18   S    
C5    C9    A    
