data_mof_unit_64339.cif
_audit_creation_date              2012-12-10T18:34:15-0500
_audit_creation_method            fapswitch 2.2
_symmetry_space_group_name_H-M    P1
_symmetry_Int_Tables_number       1
_space_group_crystal_system       triclinic
_cell_length_a                    11.064858
_cell_length_b                    15.122158
_cell_length_c                    13.92134
_cell_angle_alpha                 89.465262
_cell_angle_beta                  103.750505
_cell_angle_gamma                 90.738248
_cell_volume                      2262.38658426

loop_
_atom_site_label
_atom_site_type_symbol
_atom_type_description
_atom_site_fract_x
_atom_site_fract_y
_atom_site_fract_z
_atom_type_partial_charge
C1    C     C_R   0.503555 0.329679 0.501012 0.835300
C2    C     C_R   0.499248 0.669549 0.499399 0.841830
C3    C     C_R   0.502784 0.046749 0.511588 -0.004150
C4    C     C_R   0.498574 0.949641 0.510946 -0.002767
C5    C     C_R   0.593654 0.535485 0.122560 -0.260832
C6    C     C_R   0.448182 0.433013 0.885147 -0.261028
C7    C     C_R   0.593167 0.540139 0.222852 0.358893
C8    C     C_R   0.442923 0.433622 0.783623 0.372289
C9    C     C_R   0.399587 0.465234 0.192685 0.014404
C10   C     C_R   0.548643 0.571130 0.797761 0.033737
C11   C     C_R   0.388982 0.470556 0.089507 0.081042
C12   C     C_R   0.540117 0.578327 0.897138 0.076860
C13   C     C_R   0.489812 0.504494 0.052526 0.056726
C14   C     C_R   0.491927 0.506482 0.943925 0.060321
C15   C     C_R   0.262305 0.501151 0.458996 0.827841
C16   C     C_R   0.737392 0.497923 0.541415 0.814581
C17   C     C_2   0.125869 0.497707 0.433763 -0.003915
C18   C     C_2   0.873324 0.498960 0.569587 -0.021999
C19   C     C_2   0.062892 0.516613 0.503696 0.144863
C20   C     C_2   0.938730 0.475116 0.503556 0.152669
C21   C     C_R   0.556566 0.094683 0.597580 0.159133
C22   C     C_R   0.385459 0.903172 0.476188 0.169691
C23   C     C_R   0.567289 0.187283 0.591747 0.100349
C24   C     C_R   0.387613 0.811190 0.464244 0.062451
C25   C     C_R   0.508481 0.232259 0.503108 -0.135490
C26   C     C_R   0.499927 0.765571 0.498860 -0.099427
C27   C     C_R   0.452325 0.182741 0.417610 0.123475
C28   C     C_R   0.612210 0.811841 0.536289 0.125103
C29   C     C_R   0.456579 0.090906 0.422256 -0.135115
C30   C     C_R   0.610940 0.903906 0.537715 -0.121687
Cu1   Cu    Cu3+1 0.500000 0.499990 0.596430 1.005019
Cu2   Cu    Cu3+1 0.500000 0.500010 0.403570 0.993911
H1    H     H_    0.419014 0.052688 0.356107 0.174675
H2    H     H_    0.697664 0.940510 0.561478 0.172742
H3    H     H_    0.674020 0.560553 0.099021 0.201888
H4    H     H_    0.412479 0.375794 0.917019 0.191061
H5    H     H_    0.323507 0.437147 0.219643 0.175466
H6    H     H_    0.588827 0.625355 0.764391 0.164406
N1    N     N_R   0.500000 0.500020 0.258690 -0.213212
N2    N     N_R   0.500000 0.499980 0.741310 -0.211189
O1    O     O_R   0.500010 0.371450 0.581440 -0.541691
O2    O     O_R   0.499990 0.628550 0.418560 -0.539657
O3    O     O_R   0.500010 0.371460 0.418560 -0.593344
O4    O     O_R   0.499990 0.628540 0.581440 -0.598245
O5    O     O_R   0.320690 0.500000 0.551510 -0.572771
O6    O     O_R   0.679310 0.500000 0.448490 -0.573438
O7    O     O_R   0.320690 0.500010 0.388630 -0.562307
O8    O     O_R   0.679310 0.499990 0.611370 -0.549546
C31   C     C_3   0.891031 0.395308 0.439458 -0.740723
H7    H     H_    0.834995 0.416539 0.366050 0.261983
H8    H     H_    0.969491 0.353299 0.431431 0.243831
H9    H     H_    0.831102 0.351949 0.474101 0.214179
C32   C     C_3   0.115203 0.589197 0.577691 -0.716122
H10   H     H_    0.163636 0.559927 0.649646 0.263221
H11   H     H_    0.183640 0.632211 0.552821 0.229313
H12   H     H_    0.040272 0.634308 0.586448 0.239008
I1    I     I_    0.211608 0.436980 0.998550 -0.230511
I2    I     I_    0.586282 0.704365 0.963101 -0.242076
I3    I     I_    0.953703 0.512543 0.725201 -0.253833
I4    I     I_    0.040507 0.471064 0.281633 -0.294069
I5    I     I_    0.611706 0.027575 0.737303 -0.209514
I6    I     I_    0.211281 0.970705 0.449619 -0.244790
I7    I     I_    0.686883 0.255574 0.713611 -0.202093
I8    I     I_    0.223924 0.741836 0.387757 -0.242865
C33   C     C_3   0.384897 0.224804 0.321081 -0.742041
H13   H     H_    0.313505 0.271202 0.334092 0.236164
H14   H     H_    0.452162 0.260165 0.286232 0.242324
H15   H     H_    0.335773 0.174867 0.267211 0.234384
C34   C     C_3   0.733534 0.764043 0.573013 -0.774760
H16   H     H_    0.753488 0.723204 0.512937 0.237612
H17   H     H_    0.812757 0.810803 0.598174 0.246595
H18   H     H_    0.727635 0.720420 0.636374 0.236557
I9    I     I_    0.729746 0.628873 0.303646 -0.248781
I10   I     I_    0.320690 0.335754 0.703799 -0.231907

loop_
_geom_bond_atom_site_label_1
_geom_bond_atom_site_label_2
_ccdc_geom_bond_type
C2    C26   S    
C34   H18   S    
C2    O4    A    
C15   C17   S    
C20   C31   S    
C27   C33   S    
C10   N2    A    
C22   I6    S    
C4    C22   A    
C5    C13   A    
C19   C20   S    
C15   O7    A    
C10   H6    S    
C33   H15   S    
C12   I2    S    
C16   O8    A    
C28   C34   S    
C28   C30   A    
C12   C14   A    
C4    C30   A    
C24   I8    S    
C16   C18   S    
Cu1   O1    S    
C13   C14   S    
C32   H12   S    
C1    C25   S    
C9    C11   A    
C19   C32   S    
C8    I10   S    
C10   C12   A    
C2    O2    A    
C5    H3    S    
C7    N1    A    
C9    H5    S    
C26   C28   A    
C17   C19   D    
Cu2   O3    S    
C6    H4    S    
C33   H13   S    
C18   C20   D    
Cu1   O8    S    
C32   H11   S    
C21   C23   A    
C34   H16   S    
Cu2   O7    S    
C22   C24   A    
C23   I7    S    
C3    C21   A    
C6    C14   A    
Cu1   O4    S    
C15   O5    A    
C17   I4    S    
C16   O6    A    
C3    C4    S    
C29   H1    S    
C18   I3    S    
C11   C13   A    
C23   C25   A    
Cu1   N2    S    
C3    C29   A    
C31   H7    S    
Cu1   O5    S    
Cu2   N1    S    
C1    O1    A    
C27   C29   A    
C5    C7    A    
Cu2   O2    S    
C30   H2    S    
C7    I9    S    
C6    C8    A    
C8    N2    A    
C31   H8    S    
C32   H10   S    
C21   I5    S    
Cu2   O6    S    
C1    O3    A    
C9    N1    A    
C11   I1    S    
Cu1   Cu2   S    
C31   H9    S    
C24   C26   A    
C34   H17   S    
C33   H14   S    
C25   C27   A    
