data_mof_unit_61627.cif
_audit_creation_date              2012-10-26T17:27:00-0400
_audit_creation_method            fapswitch 2.2
_symmetry_space_group_name_H-M    P1
_symmetry_Int_Tables_number       1
_space_group_crystal_system       triclinic
_cell_length_a                    44.639601
_cell_length_b                    39.021191
_cell_length_c                    21.74545
_cell_angle_alpha                 90.076111
_cell_angle_beta                  60.687016
_cell_angle_gamma                 90.053206
_cell_volume                      33028.1736668

loop_
_atom_site_label
_atom_site_type_symbol
_atom_type_description
_atom_site_fract_x
_atom_site_fract_y
_atom_site_fract_z
_atom_type_partial_charge
C1    C     C_R   0.066224 0.499945 0.431993 0.541745
C2    C     C_R   0.621991 0.469990 0.892427 -0.018410
C3    C     C_R   0.566062 0.500163 0.933888 0.571971
C4    C     C_R   0.933941 0.000131 0.066119 0.573041
C5    C     C_R   0.066059 0.000126 0.933893 0.573047
C6    C     C_R   0.500007 0.566035 0.000028 0.594102
C7    C     C_R   0.000000 0.066038 0.000035 0.595274
C8    C     C_R   0.510330 0.621844 0.042192 -0.094218
C9    C     C_R   0.489666 0.621815 0.958105 -0.093910
C10   C     C_R   0.009975 0.121858 0.042755 -0.093465
C11   C     C_R   0.989984 0.121825 0.957575 -0.093598
C12   C     C_R   0.510717 0.657737 0.042488 0.017565
C13   C     C_R   0.878023 0.969491 0.110707 -0.018744
C14   C     C_R   0.489262 0.657706 0.957956 0.017581
C15   C     C_R   0.010352 0.157750 0.043066 0.017699
C16   C     C_R   0.989589 0.157714 0.957400 0.017671
C17   C     C_R   0.499988 0.675941 0.000253 0.049426
C18   C     C_R   0.999970 0.175950 0.000260 0.049467
C19   C     C_R   0.500004 0.603774 0.000108 0.023148
C20   C     C_R   0.999988 0.103783 0.000124 0.023669
C21   C     C_R   0.526511 0.731694 0.944464 -0.126743
C22   C     C_R   0.473488 0.731721 0.056119 -0.126692
C23   C     C_R   0.026724 0.231694 0.944888 -0.126655
C24   C     C_R   0.121919 0.969458 0.889518 -0.018689
C25   C     C_R   0.973253 0.231730 0.055671 -0.126668
C26   C     C_R   0.000658 0.500189 0.684181 0.021072
C27   C     C_R   0.999399 0.500083 0.315765 0.021098
C28   C     C_R   0.500664 0.000191 0.684187 0.020706
C29   C     C_R   0.501287 0.999719 0.313242 0.017490
C30   C     C_R   0.026706 0.267435 0.944725 -0.115831
C31   C     C_R   0.973273 0.267472 0.055793 -0.115843
C32   C     C_R   0.526491 0.767435 0.944321 -0.115847
C33   C     C_R   0.473504 0.767464 0.056250 -0.115958
C34   C     C_R   0.999988 0.285711 0.000244 0.032984
C35   C     C_R   0.342087 0.470667 0.142904 -0.126027
C36   C     C_R   0.499995 0.785705 0.000278 0.032952
C37   C     C_R   0.499999 0.713724 0.000290 0.028994
C38   C     C_R   0.999986 0.213730 0.000284 0.028836
C39   C     C_R   0.030746 0.341925 0.977619 -0.118002
C40   C     C_R   0.969225 0.341887 0.022727 -0.118024
C41   C     C_R   0.530802 0.841918 0.976953 -0.118154
C42   C     C_R   0.469173 0.841878 0.023488 -0.118212
C43   C     C_R   0.030765 0.377676 0.977361 -0.126536
C44   C     C_R   0.969210 0.377640 0.022854 -0.126604
C45   C     C_R   0.530817 0.877669 0.976704 -0.126680
C46   C     C_R   0.657894 0.470752 0.857540 -0.126088
C47   C     C_R   0.469159 0.877632 0.023593 -0.126926
C48   C     C_R   0.999989 0.395877 0.000071 0.014970
C49   C     C_R   0.499989 0.895872 0.000104 0.014351
C50   C     C_R   0.999985 0.323653 0.000203 0.031833
C51   C     C_R   0.499988 0.823646 0.000250 0.031700
C52   C     C_R   0.489882 0.377932 0.956979 -0.135340
C53   C     C_R   0.509779 0.377765 0.042705 -0.135392
C54   C     C_R   0.991749 0.877767 0.954375 -0.136063
C55   C     C_R   0.008294 0.877802 0.045301 -0.136080
C56   C     C_R   0.489639 0.342184 0.957131 -0.134468
C57   C     C_R   0.842113 0.970129 0.146058 -0.126050
C58   C     C_R   0.509910 0.342007 0.042158 -0.134492
C59   C     C_R   0.991614 0.842009 0.954578 -0.134957
C60   C     C_R   0.008445 0.842047 0.044974 -0.135005
C61   C     C_R   0.499761 0.324119 0.999516 0.013987
C62   C     C_R   0.000030 0.824059 0.999751 0.013891
C63   C     C_R   0.024766 0.480175 0.692315 -0.148794
C64   C     C_R   0.975192 0.480170 0.307639 -0.148962
C65   C     C_R   0.524667 0.980043 0.692418 -0.148976
C66   C     C_R   0.484901 0.972843 0.297302 -0.144380
C67   C     C_R   0.499874 0.396028 0.999913 0.013766
C68   C     C_R   0.157825 0.970115 0.854736 -0.126043
C69   C     C_R   0.000016 0.895984 0.999874 0.013189
C70   C     C_R   0.472111 0.268192 0.054188 0.019221
C71   C     C_R   0.527504 0.268413 0.943523 0.018804
C72   C     C_R   0.971001 0.768268 0.051617 0.019276
C73   C     C_R   0.029032 0.768242 0.947863 0.019275
C74   C     C_R   0.971657 0.732231 0.051023 -0.096650
C75   C     C_R   0.028378 0.732203 0.948519 -0.096632
C76   C     C_R   0.472817 0.232157 0.053031 -0.098077
C77   C     C_R   0.526825 0.232381 0.943704 -0.096453
C78   C     C_R   0.000019 0.714143 0.999791 -0.008695
C79   C     C_R   0.324048 0.500688 0.174566 -0.001460
C80   C     C_R   0.499832 0.214192 0.998127 -0.009028
C81   C     C_R   0.499800 0.286275 0.999097 0.022104
C82   C     C_R   0.000018 0.786220 0.999731 0.022071
C83   C     C_R   0.029794 0.657894 0.986147 -0.117872
C84   C     C_R   0.970242 0.657842 0.013597 -0.117955
C85   C     C_R   0.530518 0.157994 0.977403 -0.125407
C86   C     C_R   0.469393 0.157828 0.017976 -0.119871
C87   C     C_R   0.029842 0.622135 0.985817 -0.131970
C88   C     C_R   0.970185 0.622087 0.014057 -0.132169
C89   C     C_R   0.530599 0.122247 0.977216 -0.133642
C90   C     C_R   0.675956 0.500687 0.825417 -0.001468
C91   C     C_R   0.469406 0.122074 0.018600 -0.135609
C92   C     C_R   0.000011 0.603923 0.999961 0.014372
C93   C     C_R   0.500001 0.103955 0.998379 0.010770
C94   C     C_R   0.000020 0.676139 0.999839 0.032096
C95   C     C_R   0.499916 0.176186 0.997770 0.029971
C96   C     C_R   0.025111 0.480428 0.756775 -0.147127
C97   C     C_R   0.974829 0.480451 0.243197 -0.147170
C98   C     C_R   0.525015 0.980281 0.756875 -0.147235
C99   C     C_R   0.483932 0.972886 0.233591 -0.148643
C100  C     C_R   0.000520 0.499709 0.814362 0.008821
C101  C     C_R   0.824052 0.000412 0.175634 -0.001561
C102  C     C_R   0.999491 0.499658 0.185626 0.008768
C103  C     C_R   0.500523 0.999679 0.814372 0.008950
C104  C     C_R   0.499687 0.999575 0.184845 0.013863
C105  C     C_R   0.977355 0.519011 0.803845 -0.019321
C106  C     C_R   0.022765 0.518842 0.196128 -0.019270
C107  C     C_R   0.477461 0.019106 0.803771 -0.019475
C108  C     C_R   0.515334 0.025483 0.202213 -0.021593
C109  C     C_3   0.946182 0.541036 0.840540 -0.088095
C110  C     C_3   0.054026 0.540762 0.159439 -0.087991
C111  C     C_3   0.446426 0.041308 0.840404 -0.088584
C112  C     C_R   0.933777 0.499938 0.567998 0.541745
C113  C     C_R   0.175942 0.000414 0.825589 -0.001509
C114  C     C_3   0.533802 0.058416 0.175087 -0.105572
C115  C     C_3   0.175253 0.556688 0.385785 -0.275355
C116  C     C_3   0.171460 0.553535 0.459250 -0.438095
C117  C     C_3   0.824767 0.556403 0.613766 -0.275309
C118  C     C_3   0.828542 0.552971 0.540343 -0.438131
C119  C     C_3   0.675038 0.054658 0.393317 -0.275453
C120  C     C_3   0.670881 0.049869 0.466779 -0.437479
C121  C     C_3   0.324715 0.056365 0.614014 -0.275677
C122  C     C_3   0.328595 0.053112 0.540475 -0.436711
C123  C     C_3   0.523715 0.675668 0.086712 -0.274985
C124  C     C_R   0.341927 0.531160 0.171649 0.037161
C125  C     C_3   0.561898 0.683939 0.042739 -0.426609
C126  C     C_3   0.476243 0.675599 0.913824 -0.274970
C127  C     C_3   0.438055 0.683822 0.957855 -0.426516
C128  C     C_3   0.022979 0.175684 0.087921 -0.275143
C129  C     C_3   0.061231 0.183808 0.044770 -0.426155
C130  C     C_3   0.976950 0.175606 0.912615 -0.275076
C131  C     C_3   0.938701 0.183718 0.955818 -0.426268
C132  C     C_3   0.442409 0.288120 0.112797 -0.271098
C133  C     C_3   0.412492 0.266712 0.167453 -0.454240
C134  C     C_3   0.557201 0.288568 0.885462 -0.271207
C135  C     C_R   0.658100 0.531072 0.827882 0.037104
C136  C     C_3   0.587183 0.267370 0.830363 -0.454666
C137  C     C_3   0.940000 0.788353 0.106291 -0.271107
C138  C     C_3   0.909038 0.767077 0.157875 -0.454636
C139  C     C_3   0.060031 0.788302 0.893157 -0.271118
C140  C     C_3   0.090979 0.767005 0.841554 -0.454590
C141  C     C_3   0.953575 0.574354 0.868654 -0.258374
C142  C     C_3   0.921550 0.596757 0.905333 -0.435381
C143  C     C_3   0.046759 0.574114 0.131386 -0.258424
C144  C     C_3   0.078879 0.596399 0.094678 -0.435332
C145  C     C_3   0.454043 0.074540 0.868415 -0.257979
C146  C     C_R   0.841914 0.031247 0.170213 0.037470
C147  C     C_3   0.422153 0.097113 0.905213 -0.434468
C148  C     C_3   0.511103 0.085449 0.166283 -0.257860
C149  C     C_3   0.530488 0.119091 0.137894 -0.427290
C150  C     C_3   0.916727 0.523321 0.767152 -0.251201
C151  C     C_3   0.882740 0.542535 0.807714 -0.428613
C152  C     C_3   0.083438 0.522917 0.232745 -0.251191
C153  C     C_3   0.117501 0.542018 0.192195 -0.428560
C154  C     C_3   0.416856 0.023829 0.767098 -0.251256
C155  C     C_3   0.382982 0.043233 0.807626 -0.428374
C156  C     C_3   0.574536 0.055534 0.225969 -0.275996
C157  C     C_R   0.158142 0.031246 0.830874 0.037402
C158  C     C_3   0.579189 0.045723 0.288471 -0.381005
C159  C     C_3   0.395922 0.436201 0.077003 -0.270845
C160  C     C_3   0.399162 0.429975 0.004740 -0.426989
C161  C     C_3   0.604038 0.436354 0.923916 -0.270658
C162  C     C_3   0.600920 0.430442 0.996136 -0.426773
C163  C     C_3   0.896036 0.935578 0.081920 -0.271798
C164  C     C_3   0.900247 0.928384 0.009154 -0.427357
C165  C     C_3   0.103856 0.935530 0.917887 -0.271709
C166  C     C_3   0.099593 0.928168 0.990606 -0.427511
C167  C     C_3   0.322331 0.563883 0.205826 -0.254740
C168  C     C_R   0.378311 0.530778 0.135706 0.064532
C169  C     C_3   0.318265 0.586108 0.152653 -0.422704
C170  C     C_3   0.677722 0.563704 0.793212 -0.254744
C171  C     C_3   0.681848 0.586243 0.846025 -0.422693
C172  C     C_3   0.822311 0.064173 0.202835 -0.254601
C173  C     C_3   0.818489 0.085746 0.148550 -0.422553
C174  C     C_3   0.177813 0.064208 0.798908 -0.254649
C175  C     C_3   0.181552 0.085505 0.853719 -0.422483
C176  C     C_R   0.621715 0.530694 0.863846 0.064517
C177  C     C_R   0.878299 0.030948 0.133874 0.064538
C178  C     C_R   0.121758 0.030934 0.866695 0.064471
C179  C     C_R   0.396223 0.500202 0.104034 0.034763
C180  C     C_R   0.566219 0.999930 0.432927 0.537703
C181  C     C_R   0.603779 0.500200 0.895966 0.034554
C182  C     C_R   0.896230 0.000140 0.104128 0.035445
C183  C     C_R   0.103771 0.000107 0.895987 0.035412
C184  C     C_R   0.268647 0.506009 0.173758 -0.114225
C185  C     C_R   0.731366 0.506268 0.826146 -0.114322
C186  C     C_R   0.768421 0.006240 0.176023 -0.113360
C187  C     C_R   0.231367 0.005557 0.826393 -0.113582
C188  C     C_R   0.232769 0.506477 0.209176 -0.122231
C189  C     C_R   0.767244 0.506716 0.790721 -0.122270
C190  C     C_R   0.732552 0.006766 0.211952 -0.122275
C191  C     C_R   0.433778 0.999938 0.568016 0.545917
C192  C     C_R   0.267243 0.006092 0.790912 -0.122217
C193  C     C_R   0.214311 0.500385 0.282022 0.022258
C194  C     C_R   0.785693 0.500341 0.717954 0.022250
C195  C     C_R   0.714294 0.000108 0.284611 0.021764
C196  C     C_R   0.285681 0.000152 0.717981 0.022179
C197  C     C_R   0.999796 0.500024 0.618892 0.547765
C198  C     C_R   0.000218 0.499987 0.381095 0.547729
C199  C     C_R   0.499794 0.000025 0.618898 0.549012
C200  C     C_R   0.500808 0.999986 0.380312 0.547187
C201  C     C_R   0.232011 0.492802 0.318725 -0.112615
C202  C     C_3   0.946802 0.542379 0.767926 0.106428
C203  C     C_R   0.767984 0.492502 0.681346 -0.112652
C204  C     C_R   0.732226 0.991891 0.320553 -0.113182
C205  C     C_R   0.267952 0.992631 0.681265 -0.112678
C206  C     C_R   0.267859 0.492378 0.283343 -0.125372
C207  C     C_R   0.732135 0.492096 0.716736 -0.125421
C208  C     C_R   0.768085 0.991459 0.284661 -0.125415
C209  C     C_R   0.232101 0.992161 0.716708 -0.125412
C210  C     C_R   0.286276 0.499411 0.210943 0.023451
C211  C     C_R   0.713727 0.499409 0.789046 0.023483
C212  C     C_R   0.786278 0.999043 0.212483 0.022968
C213  C     C_3   0.053432 0.542085 0.232035 0.106361
C214  C     C_R   0.213710 0.999051 0.789194 0.023062
C215  C     C_R   0.158766 0.476237 0.304620 -0.112701
C216  C     C_R   0.841229 0.476303 0.695484 -0.112703
C217  C     C_R   0.658767 0.976796 0.305223 -0.110207
C218  C     C_R   0.341262 0.976215 0.695484 -0.112269
C219  C     C_R   0.122924 0.475237 0.340098 0.067004
C220  C     C_R   0.877071 0.475313 0.660003 0.066971
C221  C     C_R   0.622934 0.975986 0.340044 0.068878
C222  C     C_R   0.377105 0.975291 0.660054 0.066735
C223  C     C_R   0.104095 0.500075 0.392105 0.004145
C224  C     C_3   0.447047 0.042691 0.767787 0.106704
C225  C     C_R   0.895907 0.500053 0.607858 0.004231
C226  C     C_R   0.604065 0.999973 0.393900 0.000270
C227  C     C_R   0.395910 0.000041 0.607919 0.003891
C228  C     C_R   0.121818 0.526097 0.405660 -0.130385
C229  C     C_R   0.878194 0.525962 0.594132 -0.130471
C230  C     C_R   0.621689 0.025057 0.410029 -0.138345
C231  C     C_R   0.378168 0.025934 0.594236 -0.129196
C232  C     C_R   0.157855 0.527191 0.370271 0.022086
C233  C     C_R   0.842158 0.527039 0.629506 0.022116
C234  C     C_R   0.657736 0.026020 0.375206 0.021789
C235  C     C_3   0.536559 0.058980 0.244120 0.114780
C236  C     C_R   0.342127 0.026966 0.629602 0.021556
C237  C     C_R   0.176474 0.501578 0.319692 0.007457
C238  C     C_R   0.823530 0.501532 0.680260 0.007458
C239  C     C_R   0.676432 0.001207 0.322639 0.008028
C240  C     C_R   0.323525 0.001410 0.680271 0.007706
C241  C     C_R   0.999996 0.433667 0.000013 0.551030
C242  C     C_R   0.499995 0.933665 0.000026 0.549796
C243  C     C_R   0.977913 0.519949 0.741186 0.030328
C244  C     C_R   0.022231 0.519756 0.258767 0.030275
C245  C     C_R   0.478029 0.020071 0.741104 0.030187
C246  C     C_R   0.377989 0.469908 0.108030 -0.018456
C247  C     C_R   0.516869 0.025577 0.262872 0.047617
C248  C     C_R   0.000053 0.499824 0.881136 0.554241
C249  C     C_R   0.999947 0.499808 0.118863 0.554211
C250  C     C_R   0.500054 0.999803 0.881139 0.553722
C251  C     C_R   0.499937 0.999848 0.118671 0.553562
C252  C     C_R   0.000004 0.566173 1.000000 0.535679
C253  C     C_R   0.500002 0.066183 0.999371 0.531685
C254  C     C_R   0.499971 0.433748 0.999984 0.522668
C255  C     C_R   0.000002 0.933733 0.999963 0.523542
C256  C     C_R   0.433939 0.500160 0.066112 0.572090
Cu1   Cu    Cu3+1 1.000000 0.534180 0.500000 1.029382
Cu2   Cu    Cu3+1 0.500020 0.499900 0.938180 0.949299
Cu3   Cu    Cu3+1 0.999980 0.999900 0.061820 0.948101
Cu4   Cu    Cu3+1 0.000020 0.999900 0.938180 0.947976
Cu5   Cu    Cu3+1 0.500000 0.034180 0.500000 1.014108
Cu6   Cu    Cu3+1 0.000000 0.465770 0.500000 1.028847
Cu7   Cu    Cu3+1 0.500000 0.965770 0.500000 1.025177
Cu8   Cu    Cu3+1 0.965770 0.499930 0.034210 0.914507
Cu9   Cu    Cu3+1 0.034230 0.499930 0.965790 0.914516
Cu10  Cu    Cu3+1 0.465770 0.999930 0.034210 0.913096
Cu11  Cu    Cu3+1 0.534230 0.999930 0.965790 0.920353
Cu12  Cu    Cu3+1 0.499980 0.499900 0.061820 0.948826
H1    H     H_    0.043329 0.464681 0.649046 0.128809
H2    H     H_    0.780646 0.512492 0.819676 0.107225
H3    H     H_    0.336380 0.080933 0.617650 0.145790
H4    H     H_    0.576894 0.660047 0.020430 0.165276
H5    H     H_    0.566595 0.701627 0.999015 0.162109
H6    H     H_    0.570947 0.696443 0.076583 0.139161
H7    H     H_    0.509052 0.699486 0.110692 0.154472
H8    H     H_    0.519915 0.659064 0.131495 0.138736
H9    H     H_    0.423075 0.659913 0.980066 0.165557
H10   H     H_    0.433354 0.701516 0.001652 0.162095
H11   H     H_    0.428989 0.696301 0.924080 0.139148
H12   H     H_    0.490887 0.699432 0.889934 0.154548
H13   H     H_    0.719005 0.012790 0.183435 0.110126
H14   H     H_    0.480045 0.658984 0.868977 0.138773
H15   H     H_    0.076193 0.159852 0.022972 0.166464
H16   H     H_    0.066283 0.201421 0.000718 0.162127
H17   H     H_    0.070000 0.196343 0.079053 0.139223
H18   H     H_    0.008344 0.199568 0.111452 0.154576
H19   H     H_    0.018802 0.159130 0.133031 0.138761
H20   H     H_    0.923736 0.159760 0.977572 0.166324
H21   H     H_    0.933663 0.201356 0.999904 0.162034
H22   H     H_    0.929922 0.196219 0.921585 0.139127
H23   H     H_    0.991588 0.199489 0.889127 0.154592
H24   H     H_    0.280652 0.011600 0.819969 0.107314
H25   H     H_    0.981109 0.159027 0.867474 0.138722
H26   H     H_    0.401173 0.250849 0.141519 0.148471
H27   H     H_    0.421165 0.250134 0.197202 0.151378
H28   H     H_    0.392188 0.284068 0.205691 0.142682
H29   H     H_    0.452491 0.303814 0.141312 0.150592
H30   H     H_    0.431805 0.305899 0.088353 0.152935
H31   H     H_    0.598469 0.251304 0.855995 0.148060
H32   H     H_    0.578589 0.251009 0.800095 0.151551
H33   H     H_    0.607489 0.284872 0.792638 0.142397
H34   H     H_    0.547133 0.304455 0.857259 0.150896
H35   H     H_    0.218058 0.487351 0.374664 0.113360
H36   H     H_    0.567742 0.306174 0.910404 0.152719
H37   H     H_    0.899466 0.751007 0.128924 0.148266
H38   H     H_    0.915900 0.750713 0.190884 0.151497
H39   H     H_    0.887992 0.784526 0.193482 0.142144
H40   H     H_    0.948176 0.804383 0.137718 0.151166
H41   H     H_    0.931119 0.805829 0.078152 0.152318
H42   H     H_    0.100570 0.751009 0.870486 0.148240
H43   H     H_    0.084093 0.750565 0.808597 0.151570
H44   H     H_    0.112020 0.784438 0.805901 0.142190
H45   H     H_    0.051846 0.804267 0.861743 0.151166
H46   H     H_    0.781930 0.486841 0.625473 0.113288
H47   H     H_    0.068930 0.805838 0.921265 0.152298
H48   H     H_    0.912032 0.603727 0.868487 0.189730
H49   H     H_    0.900913 0.582962 0.951192 0.137748
H50   H     H_    0.927779 0.620646 0.924542 0.141432
H51   H     H_    0.961667 0.567692 0.908012 0.162142
H52   H     H_    0.975011 0.589006 0.826090 0.188540
H53   H     H_    0.088430 0.603355 0.131513 0.189692
H54   H     H_    0.099456 0.582520 0.048828 0.137831
H55   H     H_    0.072749 0.620298 0.075446 0.141351
H56   H     H_    0.038616 0.567495 0.092055 0.162252
H57   H     H_    0.718452 0.985952 0.376281 0.113470
H58   H     H_    0.025398 0.588842 0.173987 0.188468
H59   H     H_    0.412714 0.104341 0.868361 0.189307
H60   H     H_    0.401414 0.083335 0.950936 0.137703
H61   H     H_    0.428513 0.120844 0.924665 0.143585
H62   H     H_    0.462150 0.067774 0.907703 0.163393
H63   H     H_    0.475535 0.089108 0.825787 0.188227
H64   H     H_    0.538886 0.129837 0.174225 0.188455
H65   H     H_    0.553481 0.114889 0.085496 0.138921
H66   H     H_    0.513479 0.137994 0.132023 0.156763
H67   H     H_    0.503724 0.075726 0.127545 0.154107
H68   H     H_    0.281881 0.987278 0.625265 0.113738
H69   H     H_    0.486875 0.089964 0.216315 0.188780
H70   H     H_    0.876042 0.546065 0.863669 0.144179
H71   H     H_    0.884212 0.567954 0.783572 0.183594
H72   H     H_    0.861992 0.527515 0.806084 0.147022
H73   H     H_    0.922542 0.520030 0.711650 0.180456
H74   H     H_    0.913636 0.497335 0.790534 0.155369
H75   H     H_    0.124202 0.545542 0.136253 0.144186
H76   H     H_    0.116138 0.567434 0.216379 0.183572
H77   H     H_    0.138193 0.526921 0.193777 0.147074
H78   H     H_    0.077619 0.519633 0.288236 0.180347
H79   H     H_    0.281284 0.487032 0.312399 0.111592
H80   H     H_    0.086419 0.496926 0.209326 0.155278
H81   H     H_    0.376320 0.046766 0.863561 0.144226
H82   H     H_    0.384593 0.068660 0.783403 0.184000
H83   H     H_    0.362141 0.028348 0.806076 0.146785
H84   H     H_    0.422638 0.020542 0.711613 0.180282
H85   H     H_    0.413620 0.997845 0.790559 0.155230
H86   H     H_    0.566223 0.064349 0.332246 0.204754
H87   H     H_    0.568983 0.019600 0.306519 0.174200
H88   H     H_    0.606995 0.045543 0.271954 0.132504
H89   H     H_    0.587849 0.035828 0.184251 0.136301
H90   H     H_    0.718702 0.486545 0.687750 0.111488
H91   H     H_    0.587617 0.080426 0.204615 0.154605
H92   H     H_    0.414418 0.450730 0.967658 0.176536
H93   H     H_    0.412386 0.405177 0.983239 0.130892
H94   H     H_    0.373337 0.428932 0.009033 0.147623
H95   H     H_    0.421855 0.435331 0.072102 0.152094
H96   H     H_    0.381161 0.414801 0.112823 0.136166
H97   H     H_    0.585775 0.451333 0.033007 0.176622
H98   H     H_    0.587630 0.405716 0.018025 0.130688
H99   H     H_    0.626785 0.429429 0.991644 0.147285
H100  H     H_    0.578061 0.435401 0.929037 0.152143
H101  H     H_    0.781689 0.985663 0.313164 0.111703
H102  H     H_    0.618731 0.414852 0.888280 0.135896
H103  H     H_    0.915875 0.948771 0.971443 0.177432
H104  H     H_    0.913502 0.903443 0.989352 0.131992
H105  H     H_    0.874728 0.927112 0.012041 0.148219
H106  H     H_    0.921637 0.934998 0.078659 0.152306
H107  H     H_    0.880942 0.914474 0.118285 0.136031
H108  H     H_    0.083963 0.948505 0.028533 0.177339
H109  H     H_    0.086314 0.903214 0.010087 0.132016
H110  H     H_    0.125094 0.926836 0.987784 0.147946
H111  H     H_    0.078264 0.935017 0.921102 0.152359
H112  H     H_    0.956558 0.464753 0.350912 0.128559
H113  H     H_    0.218656 0.986903 0.687628 0.111792
H114  H     H_    0.118940 0.914477 0.881280 0.136127
H115  H     H_    0.343726 0.593183 0.107929 0.182122
H116  H     H_    0.303389 0.572215 0.131867 0.148813
H117  H     H_    0.304252 0.609957 0.178854 0.137954
H118  H     H_    0.296436 0.558286 0.250624 0.143861
H119  H     H_    0.335347 0.578666 0.229580 0.174266
H120  H     H_    0.656407 0.593432 0.890690 0.182104
H121  H     H_    0.696735 0.572543 0.866949 0.148822
H122  H     H_    0.695877 0.610019 0.819468 0.137976
H123  H     H_    0.703599 0.557989 0.748453 0.143827
H124  H     H_    0.173014 0.456982 0.264987 0.141797
H125  H     H_    0.664699 0.578290 0.769301 0.174266
H126  H     H_    0.844006 0.092522 0.103686 0.182994
H127  H     H_    0.803662 0.071513 0.128101 0.147649
H128  H     H_    0.804528 0.109776 0.173689 0.137858
H129  H     H_    0.796323 0.058857 0.247605 0.144262
H130  H     H_    0.835242 0.079345 0.226271 0.173956
H131  H     H_    0.155998 0.092231 0.898542 0.182736
H132  H     H_    0.196265 0.071077 0.874108 0.148079
H133  H     H_    0.195594 0.109562 0.829076 0.138206
H134  H     H_    0.203825 0.058950 0.754164 0.144255
H135  H     H_    0.826974 0.457129 0.735240 0.141738
H136  H     H_    0.164983 0.079561 0.775590 0.174137
H137  H     H_    0.673040 0.958215 0.264030 0.141719
H138  H     H_    0.327036 0.957018 0.735208 0.141749
H139  H     H_    0.107473 0.545675 0.444439 0.134357
H140  H     H_    0.892546 0.545461 0.555224 0.134176
H141  H     H_    0.607246 0.044029 0.450236 0.131689
H142  H     H_    0.392502 0.045462 0.555385 0.138443
H143  H     H_    0.518833 0.607927 0.073968 0.135555
H144  H     H_    0.543148 0.964457 0.649221 0.128661
H145  H     H_    0.481164 0.607876 0.926280 0.135859
H146  H     H_    0.018221 0.107950 0.074971 0.136418
H147  H     H_    0.981743 0.107891 0.925308 0.136370
H148  H     H_    0.043900 0.465035 0.762070 0.131469
H149  H     H_    0.955961 0.465143 0.237908 0.131501
H150  H     H_    0.543726 0.964791 0.762244 0.131201
H151  H     H_    0.471267 0.952105 0.222234 0.124511
H152  H     H_    0.547078 0.717975 0.900964 0.111633
H153  H     H_    0.452918 0.718022 0.099613 0.111592
H154  H     H_    0.047464 0.217971 0.901730 0.111740
H155  H     H_    0.472387 0.952165 0.334388 0.141115
H156  H     H_    0.952507 0.218034 0.098833 0.111626
H157  H     H_    0.047356 0.280758 0.900733 0.105761
H158  H     H_    0.952621 0.280827 0.099763 0.105673
H159  H     H_    0.546959 0.780764 0.900013 0.105782
H160  H     H_    0.453031 0.780818 0.100545 0.105595
H161  H     H_    0.054767 0.328585 0.960996 0.106581
H162  H     H_    0.945203 0.328514 0.039397 0.106467
H163  H     H_    0.554871 0.828576 0.959755 0.106723
H164  H     H_    0.445104 0.828502 0.040737 0.106601
H165  H     H_    0.054864 0.391037 0.959888 0.130446
H166  H     H_    0.282687 0.511250 0.117694 0.108532
H167  H     H_    0.945114 0.390973 0.040283 0.130342
H168  H     H_    0.554961 0.891029 0.958660 0.131116
H169  H     H_    0.445016 0.890962 0.041588 0.130748
H170  H     H_    0.481939 0.391398 0.923837 0.124734
H171  H     H_    0.517775 0.391106 0.075962 0.124522
H172  H     H_    0.985094 0.891131 0.919110 0.125624
H173  H     H_    0.014941 0.891193 0.080621 0.125652
H174  H     H_    0.481667 0.328545 0.924136 0.110036
H175  H     H_    0.517867 0.328227 0.074954 0.109503
H176  H     H_    0.985005 0.828278 0.919543 0.110355
H177  H     H_    0.717334 0.511727 0.882141 0.108478
H178  H     H_    0.015054 0.828347 0.079973 0.110334
H179  H     H_    0.950345 0.717773 0.090817 0.114711
H180  H     H_    0.049691 0.717721 0.908755 0.114721
H181  H     H_    0.452622 0.217610 0.095172 0.113833
H182  H     H_    0.547048 0.218012 0.901199 0.115338
H183  H     H_    0.052957 0.671270 0.976505 0.101921
H184  H     H_    0.947080 0.671173 0.023196 0.101875
H185  H     H_    0.554341 0.171392 0.962627 0.102476
H186  H     H_    0.445532 0.171107 0.032672 0.102467
H187  H     H_    0.924367 0.526204 0.882122 0.137359
H188  H     H_    0.782278 0.011858 0.120110 0.108992
H189  H     H_    0.075774 0.525860 0.117821 0.137358
H190  H     H_    0.424530 0.026586 0.882046 0.137471
H191  H     H_    0.558452 0.054150 0.125475 0.131028
H192  H     H_    0.053121 0.608754 0.975318 0.122595
H193  H     H_    0.946899 0.608667 0.024616 0.122684
H194  H     H_    0.554551 0.108955 0.961600 0.125968
H195  H     H_    0.445491 0.108639 0.034387 0.125066
H196  H     H_    0.327963 0.447512 0.145954 0.121036
H197  H     H_    0.672000 0.447660 0.854827 0.120954
H198  H     H_    0.828002 0.946708 0.151014 0.120821
H199  H     H_    0.217350 0.010667 0.882529 0.108617
H200  H     H_    0.171888 0.946692 0.849864 0.120813
H201  H     H_    0.143976 0.554700 0.500403 0.154318
H202  H     H_    0.182610 0.529003 0.464357 0.150405
H203  H     H_    0.185232 0.575003 0.468175 0.140170
H204  H     H_    0.202981 0.558405 0.346527 0.154221
H205  H     H_    0.163530 0.581204 0.382235 0.144483
H206  H     H_    0.856024 0.554083 0.499164 0.154252
H207  H     H_    0.817373 0.528373 0.535467 0.150393
H208  H     H_    0.814777 0.574347 0.531248 0.140130
H209  H     H_    0.797043 0.558162 0.653027 0.154254
H210  H     H_    0.219376 0.512048 0.180145 0.107217
H211  H     H_    0.836508 0.580981 0.617091 0.144408
H212  H     H_    0.643337 0.050866 0.507638 0.154145
H213  H     H_    0.681812 0.024906 0.470388 0.150419
H214  H     H_    0.684650 0.070699 0.477548 0.139614
H215  H     H_    0.702819 0.056591 0.354579 0.153935
H216  H     H_    0.663442 0.079547 0.391352 0.141524
H217  H     H_    0.356089 0.054374 0.499406 0.157250
H218  H     H_    0.317555 0.028506 0.535227 0.150469
H219  H     H_    0.314770 0.074484 0.531544 0.140602
H220  H     H_    0.296973 0.058043 0.653188 0.154028
I1    I     I_    0.406892 0.576463 0.127191 -0.442007
I2    I     I_    0.040691 0.589868 0.290065 -0.413550
I3    I     I_    0.460267 0.090400 0.709678 -0.411653
I4    I     I_    0.509056 0.099028 0.320386 -0.426546
I5    I     I_    0.593168 0.576284 0.871811 -0.441512
I6    I     I_    0.906856 0.076984 0.122646 -0.444310
I7    I     I_    0.093284 0.076999 0.878034 -0.444106
I8    I     I_    0.099901 0.436786 0.307449 -0.401137
I9    I     I_    0.900095 0.437040 0.692824 -0.401450
I10   I     I_    0.599867 0.939576 0.303258 -0.388898
I11   I     I_    0.400180 0.937122 0.692988 -0.401462
I12   I     I_    0.959757 0.590125 0.709954 -0.413670
O1    O     O_R   0.049900 0.528860 0.450120 -0.509752
O2    O     O_R   0.549930 0.499980 0.002290 -0.508948
O3    O     O_R   0.950070 0.999980 0.997710 -0.508025
O4    O     O_R   0.049930 0.999980 0.002290 -0.507890
O5    O     O_R   0.500010 0.549820 0.052280 -0.493327
O6    O     O_R   0.499990 0.549820 0.947720 -0.493109
O7    O     O_R   0.000010 0.049820 0.052280 -0.493172
O8    O     O_R   0.999990 0.049820 0.947720 -0.493370
O9    O     O_R   0.049870 0.471090 0.450150 -0.475494
O10   O     O_R   0.950130 0.471090 0.549850 -0.475496
O11   O     O_R   0.549870 0.971090 0.450150 -0.473358
O12   O     O_R   0.950100 0.528860 0.549880 -0.509921
O13   O     O_R   0.450130 0.971090 0.549850 -0.474264
O14   O     O_R   1.000000 0.528860 0.590170 -0.481241
O15   O     O_R   0.000000 0.528860 0.409830 -0.481149
O16   O     O_R   0.500000 0.028860 0.590170 -0.479562
O17   O     O_R   0.500000 0.028860 0.409830 -0.483601
O18   O     O_R   0.999960 0.471090 0.590200 -0.501796
O19   O     O_R   0.000040 0.471090 0.409800 -0.501887
O20   O     O_R   0.499960 0.971090 0.590200 -0.501499
O21   O     O_R   0.500040 0.971090 0.409800 -0.504403
O22   O     O_R   0.971090 0.450020 0.028880 -0.512002
O23   O     O_R   0.549900 0.028860 0.450120 -0.529385
O24   O     O_R   0.028910 0.450020 0.971120 -0.512006
O25   O     O_R   0.471090 0.950020 0.028880 -0.511819
O26   O     O_R   0.528910 0.950020 0.971120 -0.512044
O27   O     O_R   0.971090 0.499930 0.938720 -0.514675
O28   O     O_R   0.028910 0.499930 0.061280 -0.514785
O29   O     O_R   0.471090 0.999930 0.938720 -0.514319
O30   O     O_R   0.528910 0.999930 0.061280 -0.508789
O31   O     O_R   0.028860 0.499970 0.880980 -0.507507
O32   O     O_R   0.971140 0.499970 0.119020 -0.507563
O33   O     O_R   0.528860 0.999970 0.880980 -0.508336
O34   O     O_R   0.450100 0.028860 0.549880 -0.503389
O35   O     O_R   0.471140 0.999970 0.119020 -0.507724
O36   O     O_R   0.971090 0.549840 0.028900 -0.516293
O37   O     O_R   0.028910 0.549840 0.971100 -0.516253
O38   O     O_R   0.471090 0.049840 0.028900 -0.520231
O39   O     O_R   0.528910 0.049840 0.971100 -0.512857
O40   O     O_R   0.499950 0.450000 0.052130 -0.520758
O41   O     O_R   0.500050 0.450000 0.947870 -0.520805
O42   O     O_R   0.999950 0.950000 0.052130 -0.521540
O43   O     O_R   0.000050 0.950000 0.947870 -0.521523
O44   O     O_R   0.450070 0.499910 0.102090 -0.488211
O45   O     O_R   0.549930 0.499910 0.897910 -0.487895
O46   O     O_R   0.950070 0.999910 0.102090 -0.489577
O47   O     O_R   0.049930 0.999910 0.897910 -0.489646
O48   O     O_R   0.450070 0.499980 0.997710 -0.508770

loop_
_geom_bond_atom_site_label_1
_geom_bond_atom_site_label_2
_ccdc_geom_bond_type
C201  H35   S    
Cu3   O42   S    
C40   H162  S    
C77   H182  S    
C4    O3    A    
C126  C127  S    
C112  O10   A    
C218  C240  A    
C27   C244  A    
C249  O32   A    
C125  H5    S    
C99   H151  S    
C143  H56   S    
C85   H185  S    
C97   H149  S    
C250  O29   A    
C166  H109  S    
C156  C235  S    
C143  C144  S    
C23   H154  S    
C33   C36   A    
C193  C201  A    
Cu6   O10   S    
C60   C62   A    
C129  H15   S    
C26   C197  S    
C43   H165  S    
C253  O39   A    
C124  C168  A    
C138  H37   S    
C189  C194  A    
C9    C19   A    
C173  H128  S    
C204  C208  A    
C10   C20   A    
C116  H201  S    
Cu10  O25   S    
C171  H122  S    
C91   H195  S    
C201  C206  A    
C185  H177  S    
C231  C236  A    
C9    H145  S    
Cu10  O35   S    
C40   C44   A    
C147  H59   S    
C58   C61   A    
C73   C75   A    
C161  H102  S    
C27   C198  S    
C13   C163  S    
C101  C212  S    
C217  C221  A    
Cu9   O24   S    
C251  O35   A    
C11   C20   A    
C74   H179  S    
C28   C199  S    
C158  H88   S    
C131  H21   S    
C136  H33   S    
C165  H111  S    
C63   C96   A    
C188  H210  S    
C186  C190  A    
C160  H92   S    
C229  H140  S    
C117  H209  S    
C251  O30   A    
C88   H193  S    
C39   H161  S    
C119  H215  S    
C255  O42   A    
C154  C155  S    
C137  H40   S    
C110  H189  S    
C242  O26   A    
C64   C97   A    
C198  O19   A    
C176  I5    S    
C112  O12   A    
C151  H72   S    
C168  C179  A    
C172  H130  S    
C213  I2    S    
C153  H76   S    
C84   C88   A    
C39   C43   A    
C53   C58   A    
C175  H133  S    
C14   C126  S    
C1    C223  S    
C216  C238  A    
C156  C158  S    
C24   C165  S    
C41   H163  S    
Cu4   O47   S    
C21   H152  S    
C121  H3    S    
C186  H188  S    
C203  C207  A    
C222  C227  A    
C78   C94   S    
C116  H203  S    
C5    O47   A    
C111  H190  S    
C129  H17   S    
C171  H120  S    
C230  C234  A    
C111  C224  S    
C127  H10   S    
C18   C38   S    
C110  C143  S    
C109  H187  S    
C27   C64   A    
C164  H104  S    
C236  C240  A    
C248  O31   A    
C165  H114  S    
C161  H100  S    
C41   C45   A    
C168  I1    S    
C103  C107  A    
C5    O4    A    
Cu3   O46   S    
C113  C157  A    
C159  H95   S    
C105  C243  A    
C174  H136  S    
C44   C48   A    
C152  H78   S    
C219  I8    S    
C25   C31   A    
C79   C210  S    
C227  C231  A    
C191  O34   A    
C158  H86   S    
C89   H194  S    
Cu2   Cu12  S    
C128  C129  S    
C59   H176  S    
C167  C169  S    
C6    C19   S    
C132  H30   S    
C32   C36   A    
Cu2   O45   S    
C195  C239  S    
C109  C202  S    
C32   H159  S    
C56   H174  S    
Cu2   O6    S    
C228  H139  S    
C90   C211  S    
C54   H172  S    
C117  H211  S    
C140  H43   S    
C13   C57   A    
C170  C171  S    
C108  C114  S    
C115  C116  S    
C256  O48   A    
C208  H101  S    
Cu7   O21   S    
C135  C170  S    
C122  H217  S    
C57   H198  S    
C163  H106  S    
C144  H53   S    
C6    O5    A    
C175  H132  S    
Cu8   Cu9   S    
C130  H23   S    
C185  C211  A    
C215  C237  A    
C151  H70   S    
C46   H197  S    
C169  H115  S    
C47   H169  S    
C157  C174  S    
C75   H180  S    
C252  O37   A    
C207  C211  A    
C14   C17   A    
C113  C214  S    
C123  H7    S    
C115  H204  S    
C54   C59   A    
C92   C252  S    
C139  C140  S    
Cu4   O43   S    
C76   H181  S    
C30   C34   A    
C142  H50   S    
C144  H54   S    
Cu4   O8    S    
Cu8   O22   S    
C86   C95   A    
C150  H73   S    
C118  H207  S    
C24   C68   A    
C26   C243  A    
C170  H123  S    
C160  H94   S    
C73   C139  S    
C226  C230  A    
C156  H89   S    
Cu12  O5    S    
C177  I6    S    
C2    C181  A    
C254  O40   A    
C149  H66   S    
C26   C63   A    
C122  H219  S    
C25   C38   A    
C206  C210  A    
C130  C131  S    
C117  C233  S    
C8    C12   A    
C121  C236  S    
C166  H108  S    
C70   C132  S    
C187  C192  A    
C31   C34   A    
C11   H147  S    
Cu7   O20   S    
Cu6   O18   S    
C55   C69   A    
C133  H26   S    
C194  C238  S    
C80   C95   S    
C115  C232  S    
C174  H134  S    
C52   C67   A    
C190  C195  A    
C120  H213  S    
C139  H47   S    
C152  H80   S    
Cu9   O28   S    
C52   H170  S    
C188  C193  A    
C53   H171  S    
C154  H84   S    
C232  C237  A    
Cu11  O26   S    
C138  H39   S    
C255  O43   A    
C71   C77   A    
C177  C182  A    
C67   C254  S    
C105  C109  S    
C173  H126  S    
C112  C225  S    
C199  O16   A    
C22   H153  S    
C107  C111  S    
C213  C244  S    
C97   C102  A    
C106  C244  A    
C185  C189  A    
C114  C235  S    
C57   C101  A    
C79   C124  A    
C7    O8    A    
C190  H13   S    
C209  H113  S    
C135  C176  A    
C63   H1    S    
C144  H55   S    
C61   C81   S    
C117  C118  S    
C90   C135  A    
C85   C95   A    
C166  H110  S    
C12   C123  S    
C96   C100  A    
C44   H167  S    
C180  C226  S    
C198  O15   A    
C41   C51   A    
C157  C178  A    
C229  C233  A    
C53   C67   A    
C138  H38   S    
C173  H127  S    
C152  C153  S    
C116  H202  S    
C205  H68   S    
C171  H121  S    
C143  H58   S    
C150  C151  S    
C1    O1    A    
C35   C79   A    
C148  H67   S    
C127  H11   S    
C55   C60   A    
C71   C81   A    
C83   C87   A    
C197  O18   A    
C186  C212  A    
C15   C18   A    
C102  C249  S    
C142  H48   S    
C71   C134  S    
C161  C162  S    
C200  O17   A    
C172  C173  S    
C170  H125  S    
C248  O27   A    
C156  H91   S    
C256  O44   A    
C141  H52   S    
C86   H186  S    
C192  C196  A    
C96   H148  S    
C65   C98   A    
C86   C91   A    
C106  C110  S    
C131  H20   S    
C93   C253  S    
Cu11  O30   S    
C123  C125  S    
C154  H85   S    
C98   C103  A    
C133  H28   S    
Cu2   O48   S    
C145  H63   S    
C155  H82   S    
Cu8   O36   S    
C139  H45   S    
C140  H42   S    
C12   C17   A    
C16   C130  S    
C217  C239  A    
C163  H107  S    
C178  C183  A    
C131  H22   S    
C136  H31   S    
C68   C113  A    
C191  O13   A    
C99   C104  A    
C62   C82   S    
C187  C214  A    
C42   H164  S    
C87   C92   A    
C24   C183  A    
Cu5   O17   S    
C103  C250  S    
C230  H141  S    
C151  H71   S    
C145  C147  S    
C107  C245  A    
C4    O46   A    
C125  H6    S    
C55   H173  S    
C176  C181  A    
C125  H4    S    
Cu1   Cu6   S    
C216  C220  A    
C35   H196  S    
C153  H75   S    
C60   H178  S    
C85   C89   A    
C114  H191  S    
C115  H205  S    
C195  C204  A    
C22   C37   A    
C221  C226  A    
C8    H143  S    
Cu5   O16   S    
C225  C229  A    
Cu6   O9    S    
C129  H16   S    
C233  C238  A    
Cu4   O3    S    
C100  C248  S    
C167  H118  S    
C215  C219  A    
C91   C93   A    
C124  C167  S    
C11   C16   A    
C189  H2    S    
C159  C160  S    
C108  C247  A    
C45   C49   A    
C29   C200  S    
C84   C94   A    
C148  H69   S    
C127  H9    S    
C169  H117  S    
C3    C181  S    
C121  C122  S    
Cu12  O40   S    
Cu2   O41   S    
C72   C74   A    
C224  I3    S    
Cu5   O23   S    
C65   H144  S    
C15   C128  S    
Cu7   O13   S    
C203  H46   S    
Cu3   O4    S    
C150  C202  S    
C73   C82   A    
C104  C108  A    
C179  C246  A    
C204  H57   S    
C77   C80   A    
C35   C246  A    
C241  O22   A    
C158  H87   S    
Cu9   O31   S    
C128  H19   S    
C187  H199  S    
C119  C120  S    
C184  C210  A    
C46   C90   A    
C3    O2    A    
C23   C38   A    
C152  C213  S    
C10   H146  S    
C209  C214  A    
C162  H97   S    
C111  C145  S    
C28   C65   A    
C114  C148  S    
C120  H212  S    
C121  H220  S    
Cu1   O1    S    
C83   C94   A    
C249  O28   A    
C140  H44   S    
C54   C69   A    
Cu12  O2    S    
C202  C243  S    
C126  H14   S    
C178  I7    S    
C98   H150  S    
C180  O11   A    
C119  H216  S    
C25   H156  S    
C137  H41   S    
C6    O6    A    
C219  C223  A    
C242  O25   A    
C175  H131  S    
C21   C37   A    
C7    C20   S    
C74   C78   A    
C199  O20   A    
C56   C61   A    
C4    C182  S    
C64   H112  S    
C5    C183  S    
C172  H129  S    
C30   H157  S    
C165  C166  S    
C146  C172  S    
C206  H79   S    
C153  H77   S    
C163  C164  S    
Cu11  O39   S    
C9    C14   A    
C202  I12   S    
C217  H137  S    
C49   C242  S    
C241  O24   A    
C159  C246  S    
C253  O38   A    
C130  H25   S    
C100  C105  A    
C162  H98   S    
C200  O21   A    
Cu3   O7    S    
Cu8   O27   S    
C10   C15   A    
C150  H74   S    
C118  H208  S    
C3    O45   A    
C68   H200  S    
C120  H214  S    
C87   H192  S    
C180  O23   A    
C228  C232  A    
C254  O41   A    
C149  H65   S    
C196  C205  A    
C70   C81   A    
C2    C46   A    
C58   H175  S    
C174  C175  S    
C164  H103  S    
C88   C92   A    
C197  O14   A    
C222  I11   S    
Cu6   O19   S    
C31   H158  S    
C220  I9    S    
C231  H142  S    
C155  H83   S    
Cu1   O12   S    
C208  C212  A    
C42   C51   A    
C160  H93   S    
C252  O36   A    
C104  C251  S    
C89   C93   A    
C29   C247  A    
C149  H64   S    
C134  H36   S    
C84   H184  S    
C122  H218  S    
C2    C161  S    
C235  C247  S    
C42   C47   A    
C8    C19   A    
C218  C222  A    
C83   H183  S    
C21   C32   A    
C101  C146  A    
C34   C50   S    
C132  H29   S    
Cu9   O37   S    
C23   C30   A    
C110  C213  S    
C148  C149  S    
Cu5   Cu7   S    
C223  C228  A    
C132  C133  S    
C134  C136  S    
C126  H12   S    
C184  C188  A    
C146  C177  A    
C28   C245  A    
C66   C99   A    
C207  H90   S    
C235  I4    S    
C119  C234  S    
C205  C209  A    
C192  H24   S    
C43   C48   A    
C221  I10   S    
C147  H60   S    
C40   C50   A    
C17   C37   S    
C162  H99   S    
C169  H116  S    
C193  C237  S    
Cu8   O32   S    
C36   C51   S    
C167  H119  S    
C66   H155  S    
C179  C256  S    
C72   C137  S    
C216  H135  S    
C70   C76   A    
C76   C80   A    
Cu10  O29   S    
Cu3   Cu4   S    
C147  H61   S    
C123  H8    S    
C69   C255  S    
Cu1   O14   S    
C196  C240  S    
C22   C33   A    
C59   C62   A    
C191  C227  S    
C45   H168  S    
Cu7   O11   S    
C142  H49   S    
C215  H124  S    
Cu5   O34   S    
C48   C241  S    
C118  H206  S    
C109  C141  S    
C47   C49   A    
C137  C138  S    
C141  H51   S    
C218  H138  S    
C159  H96   S    
Cu10  O38   S    
C128  H18   S    
C184  H166  S    
C141  C142  S    
Cu12  O44   S    
C164  H105  S    
C194  C203  A    
C1    O9    A    
C220  C225  A    
C102  C106  A    
C234  C239  A    
C133  H27   S    
C154  C224  S    
C145  H62   S    
C75   C78   A    
C155  H81   S    
Cu10  Cu11  S    
C29   C66   A    
C250  O33   A    
C136  H32   S    
C224  C245  S    
C39   C50   A    
C16   C18   A    
C13   C182  A    
C134  H34   S    
Cu1   O15   S    
C33   H160  S    
Cu11  O33   S    
C72   C82   A    
C52   C56   A    
C7    O7    A    
