data_mof_unit_55862.cif
_audit_creation_date              2013-03-05T16:19:45-0500
_audit_creation_method            fapswitch 2.2
_symmetry_space_group_name_H-M    P1
_symmetry_Int_Tables_number       1
_space_group_crystal_system       triclinic
_cell_length_a                    10.925885
_cell_length_b                    9.917542
_cell_length_c                    27.582341
_cell_angle_alpha                 88.588022
_cell_angle_beta                  91.080683
_cell_angle_gamma                 91.147889
_cell_volume                      2986.75366671

loop_
_atom_site_label
_atom_site_type_symbol
_atom_site_description
_atom_site_fract_x
_atom_site_fract_y
_atom_site_fract_z
_atom_type_partial_charge
O1    O     O_R   0.314910 0.616040 0.499990 -0.612428
O2    O     O_R   0.314910 0.383960 0.499990 -0.665096
C1    C     C_R   0.259001 0.498493 0.501030 0.908941
O3    O     O_R   0.500140 0.616020 0.428740 -0.522125
O4    O     O_R   0.500140 0.383980 0.428740 -0.625907
C2    C     C_R   0.501659 0.501149 0.406416 0.973209
Zn1   Zn    Zn3+2 0.500150 0.654960 0.499980 1.032700
Zn2   Zn    Zn3+2 0.500150 0.345040 0.499980 0.950616
O5    O     O_R   0.685320 0.616040 0.499970 -0.591206
O6    O     O_R   0.685320 0.383960 0.499970 -0.624099
O7    O     O_R   0.500090 0.616050 0.571230 -0.619998
O8    O     O_R   0.500090 0.383950 0.571230 -0.665979
C3    C     C_R   0.743480 0.500874 0.501871 0.888587
C4    C     C_R   0.500168 0.498623 0.593869 0.915771
C5    C     C_R   0.499634 0.393636 0.181919 0.554721
O9    O     O_2   0.424169 0.312680 0.208367 -0.528199
N1    N     N_R   0.580836 0.478609 0.204664 -0.333904
C6    C     C_R   0.660980 0.559454 0.179312 0.599494
C7    C     C_R   0.650404 0.430179 0.289249 0.033387
C8    C     C_R   0.625980 0.437650 0.338578 -0.322090
C9    C     C_R   0.440115 0.563257 0.320797 -0.039408
C10   C     C_R   0.468225 0.562711 0.271792 -0.218992
C11   C     C_R   0.570008 0.493995 0.255704 0.307744
C12   C     C_R   0.573067 0.476269 0.104314 -0.051218
C13   C     C_R   0.492295 0.392900 0.131364 -0.029418
C14   C     C_R   0.403743 0.313876 0.107564 -0.114273
C15   C     C_R   0.660137 0.557986 0.128473 -0.079931
C16   C     C_R   0.521444 0.502073 0.354473 -0.011812
H1    H     H_    0.405964 0.607632 0.245204 0.139614
H2    H     H_    0.342128 0.247220 0.127604 0.202523
C17   C     C_R   0.503603 0.495785 0.646990 -0.002291
C18   C     C_R   0.451433 0.424767 0.978984 -0.018957
C19   C     C_R   0.652638 0.538343 0.975053 0.040842
C20   C     C_R   0.547540 0.482493 0.951565 0.103717
C21   C     C_R   0.342176 0.385363 0.954980 -0.253435
C22   C     C_R   0.329449 0.395454 0.904754 0.452219
C23   C     C_R   0.429491 0.441684 0.876537 -0.121490
C24   C     C_R   0.539610 0.482585 0.900376 -0.094413
C25   C     C_R   0.642592 0.523121 0.873195 -0.007947
C26   C     C_R   0.634483 0.522876 0.822676 0.638757
N2    N     N_R   0.526584 0.488142 0.800178 -0.334394
C27   C     C_R   0.424928 0.449209 0.825458 0.655005
C28   C     C_R   0.528336 0.369407 0.722936 -0.005208
C29   C     C_R   0.517231 0.373388 0.672535 -0.246049
C30   C     C_R   0.495881 0.615828 0.672290 -0.219388
C31   C     C_R   0.501796 0.615102 0.722845 -0.007185
C32   C     C_R   0.519800 0.491106 0.748383 0.269104
O10   O     O_2   0.321167 0.417673 0.800705 -0.460953
C33   C     C_R   0.467732 0.408463 0.029646 0.079362
C34   C     C_R   0.564820 0.479724 0.053194 0.093645
C35   C     C_R   0.651751 0.556283 0.025940 -0.051011
C36   C     C_R   0.390565 0.322572 0.057510 -0.198991
H3    H     H_    0.521131 0.280307 0.653123 0.178169
H4    H     H_    0.262838 0.351020 0.974898 0.184104
H5    H     H_    0.321384 0.257945 0.041232 0.164410
O11   O     O_2   0.739405 0.642227 0.203255 -0.528841
C37   C     C_R   0.738115 0.643274 0.101630 -0.087100
H6    H     H_    0.687394 0.390293 0.364984 0.150946
H7    H     H_    0.799646 0.712324 0.120402 0.228317
C38   C     C_R   0.757099 0.566928 0.947192 -0.221278
C39   C     C_R   0.751928 0.560358 0.896983 -0.073770
O12   O     O_2   0.732971 0.558050 0.796013 -0.493648
C40   C     C_R   0.732337 0.647531 0.050816 -0.050052
H8    H     H_    0.844864 0.590711 0.963929 0.171196
H9    H     H_    0.483667 0.710720 0.652626 0.161669
H10   H     H_    0.833818 0.585689 0.876887 0.213376
C41   C     C_3   0.080929 0.641293 0.495927 -0.413781
C42   C     C_3   0.078365 0.441841 0.552589 -0.444804
H11   H     H_    0.106519 0.673101 0.458283 0.185762
H12   H     H_    0.129473 0.349591 0.563756 0.164524
H13   H     H_    0.131132 0.711158 0.520701 0.207044
H14   H     H_    0.101396 0.516585 0.580951 0.239411
C43   C     C_3   0.943653 0.649994 0.503963 0.299404
C44   C     C_3   0.937036 0.415170 0.549716 0.367490
H15   H     H_    0.110147 0.442997 0.425528 0.242563
H16   H     H_    0.086110 0.304887 0.467289 0.175014
H17   H     H_    0.906786 0.494199 0.423775 0.186474
H18   H     H_    0.881579 0.335511 0.450234 0.257844
C45   C     C_3   0.067944 0.413145 0.460628 -0.404842
C46   C     C_3   0.124107 0.496599 0.502785 0.003380
C47   C     C_3   0.882974 0.500772 0.503790 -0.116071
C48   C     C_3   0.928447 0.433227 0.456869 -0.580701
C49   C     C_3   0.373607 0.082303 0.488707 -0.257699
C50   C     C_3   0.370369 0.919354 0.495153 -0.206819
H19   H     H_    0.310617 0.120836 0.516253 0.132403
H20   H     H_    0.321613 0.893847 0.529436 0.115089
H21   H     H_    0.566141 0.136931 0.426465 0.187775
H22   H     H_    0.495429 0.925549 0.423895 0.197082
C51   C     C_3   0.582540 0.083642 0.461728 0.229780
C52   C     C_3   0.558420 0.929457 0.455549 0.281898
C53   C     C_3   0.532606 0.075403 0.547942 -0.204269
C54   C     C_3   0.547856 0.916549 0.545422 -0.239643
N3    N     N_3   0.499750 0.138610 0.498940 -0.151669
N4    N     N_3   0.499750 0.861390 0.498940 -0.140436
H23   H     H_    0.454357 0.090729 0.572572 0.138284
H24   H     H_    0.491134 0.872302 0.575263 0.164962
C55   C     C_2   0.320427 0.617188 0.334174 0.508413
H25   H     H_    0.276978 0.693151 0.311067 0.086959
O13   O     O_2   0.265746 0.572112 0.369357 -0.585006
C56   C     C_2   0.757578 0.351621 0.274846 0.487230
H26   H     H_    0.819407 0.311280 0.302610 0.073299
O14   O     O_2   0.777925 0.329060 0.232490 -0.533868
C57   C     C_2   0.487840 0.746144 0.747058 0.500541
H27   H     H_    0.485599 0.838919 0.725332 0.070341
O15   O     O_2   0.476506 0.753205 0.790844 -0.548783
C58   C     C_2   0.795870 0.762687 0.025750 0.406400
H28   H     H_    0.762789 0.799736 0.990669 0.095467
O16   O     O_2   0.884618 0.819215 0.044381 -0.529895
Cl1   Cl    Cl    0.928371 0.733409 0.560579 -0.484499
Cl2   Cl    Cl    0.866475 0.460442 0.605702 -0.444257
C59   C     C_2   0.901187 0.743575 0.463866 0.491648
H29   H     H_    0.866127 0.703092 0.430255 0.093276
O17   O     O_2   0.922215 0.864924 0.465850 -0.491476
C60   C     C_2   0.922107 0.262478 0.546733 0.413822
H30   H     H_    0.940946 0.211364 0.513819 0.125064
O18   O     O_2   0.905802 0.191947 0.583070 -0.458632
C61   C     C_2   0.320653 0.138636 0.440767 0.440922
H31   H     H_    0.250676 0.213271 0.441044 0.095776
O19   O     O_2   0.354403 0.101835 0.401381 -0.573547
C62   C     C_2   0.285360 0.860670 0.456724 0.497909
H32   H     H_    0.189904 0.888830 0.456582 0.066963
O20   O     O_2   0.320530 0.789055 0.424869 -0.504117
C63   C     C_2   0.634585 0.144341 0.575885 0.522246
H33   H     H_    0.682230 0.230507 0.561551 0.181316
O21   O     O_2   0.661172 0.105370 0.617036 -0.536713
C64   C     C_2   0.674078 0.869330 0.556580 0.685009
H34   H     H_    0.746301 0.890632 0.531274 0.165200
O22   O     O_2   0.695931 0.810292 0.595073 -0.472885
Cl3   Cl    Cl    0.740593 0.116217 0.472503 -0.649846
Cl4   Cl    Cl    0.670207 0.840539 0.426183 -0.567672
C65   C     C_2   0.549651 0.235910 0.747075 0.522344
H35   H     H_    0.543226 0.145070 0.725902 0.083270
O23   O     O_2   0.576858 0.224733 0.790079 -0.544099
Cl5   Cl    Cl    0.185362 0.345001 0.880502 -0.463230

loop_
_geom_bond_atom_site_label_1
_geom_bond_atom_site_label_2
_geom_bond_distance
_ccdc_geom_bond_type
C42   C46   1.552421 S    
C64   H34   1.077647 S    
C10   H1    1.084563 S    
C3    C47   1.524033 S    
N2    C27   1.366618 A    
C21   C22   1.391046 A    
C12   C15   1.406295 A    
C4    C17   1.464579 S    
C45   C48   1.542251 S    
C47   C48   1.565500 S    
C26   O12   1.350047 S    
C63   H33   1.063413 S    
C30   C31   1.394546 A    
Zn1   O7    1.993430 S    
N1    C11   1.427151 S    
C22   C23   1.416019 A    
C50   H20   1.115235 S    
C61   O19   1.220430 D    
O4    C2    1.301562 A    
O7    C4    1.307804 A    
C63   O21   1.221712 D    
C58   H28   1.084686 S    
C42   C44   1.562264 S    
C5    O9    1.350524 S    
C44   C60   1.523913 S    
C55   H25   1.085542 S    
C54   H24   1.115637 S    
C51   Cl3   1.771380 S    
C50   C62   1.515429 S    
N1    C6    1.365996 A    
C23   C27   1.409032 A    
O5    C3    1.317557 A    
C39   H10   1.083386 S    
C57   O15   1.220264 D    
C2    C16   1.452726 S    
C7    C8    1.395497 A    
C41   C46   1.525761 S    
H16   C45   1.106050 S    
C52   N4    1.506910 S    
C41   C43   1.524734 S    
C36   H5    1.079674 S    
C6    O11   1.349596 S    
C53   C63   1.505316 S    
C9    C10   1.391912 A    
C21   H4    1.079887 S    
O3    Zn1   2.011870 S    
C1    C46   1.475273 S    
C29   H3    1.080500 S    
C43   C47   1.609546 S    
C55   O13   1.219949 D    
C62   O20   1.215945 D    
C43   C59   1.499030 S    
C12   C34   1.410791 A    
C25   C39   1.399503 A    
C17   C29   1.397582 A    
Zn2   N3    2.048103 S    
C18   C21   1.407231 A    
C35   C40   1.428577 A    
C12   C13   1.408665 A    
O3    C2    1.308811 A    
C15   C37   1.397717 A    
C53   C54   1.590905 S    
C20   C24   1.412907 A    
C27   O10   1.347703 S    
C8    C16   1.402453 A    
C34   C35   1.419027 A    
C13   C14   1.397237 A    
C54   C64   1.489522 S    
C42   H14   1.112869 S    
O1    C1    1.305177 A    
C18   C20   1.409566 A    
C7    C11   1.411028 A    
C28   C29   1.392847 A    
C23   C24   1.417103 A    
C14   C36   1.386125 A    
C53   N3    1.515775 S    
C9    C55   1.479269 S    
H18   C48   1.104630 S    
C49   C50   1.621189 S    
Zn2   O8    2.012096 S    
C33   C36   1.410867 A    
C54   N4    1.488910 S    
C19   C20   1.417469 A    
N2    C32   1.428777 S    
C59   O17   1.223042 D    
C50   N4    1.537424 S    
C40   C58   1.487137 S    
C43   Cl1   1.797202 S    
Zn2   O6    2.052032 S    
C26   N2    1.363879 A    
C49   H19   1.114224 S    
C9    C16   1.408306 A    
H22   C52   1.102449 S    
C14   H2    1.083478 S    
C19   C38   1.408163 A    
H21   C51   1.108737 S    
C30   H9    1.083880 S    
H15   C45   1.111205 S    
C44   C47   1.616528 S    
C8    H6    1.085661 S    
C65   H35   1.086039 S    
C25   C26   1.394645 A    
C62   H32   1.084987 S    
C56   O14   1.220264 D    
C5    N1    1.366018 A    
Zn1   N4    2.046864 S    
C31   C32   1.417353 A    
C64   O22   1.221680 D    
C59   H29   1.079897 S    
O1    Zn1   2.052783 S    
O2    Zn2   2.067977 S    
C6    C15   1.402523 A    
C37   C40   1.401440 A    
O8    C4    1.310819 A    
C65   O23   1.220285 D    
O6    C3    1.312711 A    
C22   Cl5   1.766737 S    
C44   Cl2   1.809283 S    
O4    Zn2   1.993196 S    
C60   O18   1.221790 D    
C7    C56   1.485045 S    
C60   H30   1.075826 S    
C19   C35   1.419406 A    
C31   C57   1.487554 S    
C38   H8    1.080685 S    
C49   C61   1.530695 S    
C28   C65   1.487775 S    
O2    C1    1.301641 A    
C61   H31   1.075020 S    
C24   C25   1.410168 A    
C58   O16   1.221566 D    
H17   C48   1.106919 S    
C56   H26   1.085851 S    
C41   H13   1.114380 S    
C51   N3    1.500420 S    
C18   C33   1.411093 A    
C37   H7    1.083928 S    
C53   H23   1.117023 S    
C45   C46   1.553647 S    
C52   Cl4   1.743899 S    
Zn1   O5    2.067226 S    
C5    C13   1.395390 A    
C42   H12   1.115262 S    
C33   C34   1.418856 A    
C17   C30   1.399517 A    
C57   H27   1.086017 S    
C10   C11   1.400688 A    
C38   C39   1.388064 A    
C41   H11   1.116709 S    
C51   C52   1.559401 S    
C28   C32   1.416609 A    
C49   N3    1.501089 S    
