data_mof_unit_35835.cif
_audit_creation_date              2013-03-05T16:41:35-0500
_audit_creation_method            fapswitch 2.2
_symmetry_space_group_name_H-M    P1
_symmetry_Int_Tables_number       1
_space_group_crystal_system       triclinic
_cell_length_a                    12.849739
_cell_length_b                    10.673186
_cell_length_c                    9.872733
_cell_angle_alpha                 89.825944
_cell_angle_beta                  97.153383
_cell_angle_gamma                 90.482537
_cell_volume                      1343.43258954

loop_
_atom_site_label
_atom_site_type_symbol
_atom_site_description
_atom_site_fract_x
_atom_site_fract_y
_atom_site_fract_z
_atom_type_partial_charge
O1    O     O_R   0.500010 0.316790 0.614690 -0.604686
O2    O     O_R   0.500000 0.316760 0.385350 -0.620835
C1    C     C_R   0.503641 0.259962 0.500643 0.899495
O3    O     O_R   0.346360 0.499990 0.595720 -0.610738
O4    O     O_R   0.346350 0.499960 0.366370 -0.627171
C2    C     C_R   0.298220 0.501639 0.473055 0.901053
Zn1   Zn    Zn3+2 0.500010 0.500020 0.653130 0.965485
Zn2   Zn    Zn3+2 0.499990 0.499980 0.346870 0.946697
O5    O     O_R   0.500000 0.683240 0.614650 -0.611998
O6    O     O_R   0.499990 0.683210 0.385310 -0.621254
O7    O     O_R   0.653650 0.500040 0.633630 -0.627917
O8    O     O_R   0.653640 0.500010 0.404280 -0.628828
C3    C     C_R   0.504127 0.740030 0.500528 0.869136
C4    C     C_R   0.701803 0.500256 0.526791 0.875062
C5    C     C_R   0.813955 0.504926 0.542776 -0.045323
C6    C     C_R   0.186004 0.502497 0.455600 -0.034534
C7    C     C_R   0.021745 0.439001 0.330348 -0.206357
C8    C     C_R   0.129593 0.450139 0.338738 -0.195707
C9    C     C_R   0.135304 0.548958 0.561428 -0.212228
C10   C     C_R   0.028281 0.534750 0.556065 0.199792
C11   C     C_R   0.971233 0.479029 0.439631 0.179444
C12   C     C_R   0.864446 0.464119 0.434234 -0.274438
C13   C     C_R   0.870099 0.557546 0.659797 -0.201209
C14   C     C_R   0.977725 0.572990 0.666210 -0.191663
H1    H     H_    0.820405 0.421875 0.344682 0.157537
H2    H     H_    0.830560 0.589883 0.743764 0.152914
H3    H     H_    0.978368 0.396698 0.240569 0.146529
H4    H     H_    0.021112 0.614960 0.756171 0.139818
H5    H     H_    0.168914 0.414083 0.256597 0.159479
H6    H     H_    0.179488 0.592757 0.649687 0.133863
C15   C     C_R   0.521977 0.063763 0.626101 0.042986
C16   C     C_R   0.521687 0.128780 0.503832 -0.099087
C17   C     C_R   0.542072 0.065493 0.385664 -0.205353
H7    H     H_    0.549974 0.114861 0.291378 0.174711
C18   C     C_R   0.542301 0.935845 0.385658 -0.207764
H8    H     H_    0.550099 0.887188 0.291307 0.170678
C19   C     C_R   0.522592 0.871408 0.504018 -0.138188
C20   C     C_R   0.523724 0.935671 0.626748 0.122185
C21   C     C_3   0.449071 0.928101 0.732225 0.021501
C22   C     C_3   0.446715 0.070406 0.729664 -0.421859
H9    H     H_    0.372497 0.883727 0.693328 0.130938
H10   H     H_    0.369442 0.107817 0.685024 0.230687
H11   H     H_    0.481451 0.116934 0.825429 0.225683
C23   C     C_R   0.432131 0.424669 0.060963 0.188962
N1    N     N_R   0.499290 0.499140 0.142710 -0.105251
C24   C     C_R   0.573241 0.565716 0.083515 -0.132204
H12   H     H_    0.630937 0.621154 0.146838 0.145190
C25   C     C_R   0.573272 0.565645 0.939606 -0.104319
H13   H     H_    0.631166 0.620517 0.894423 0.152550
N2    N     N_R   0.499290 0.499180 0.857070 -0.130164
C26   C     C_R   0.432869 0.422849 0.918404 0.138374
C27   C     C_3   0.315387 0.425047 0.896144 0.120607
C28   C     C_3   0.315802 0.429339 0.050085 -0.571901
H14   H     H_    0.283131 0.510639 0.842731 0.109693
H15   H     H_    0.287391 0.519951 0.086239 0.188369
H16   H     H_    0.282523 0.344976 0.095527 0.234754
N3    N     N_2   0.493842 0.875564 0.863210 -0.270031
H17   H     H_    0.444839 0.883450 0.937885 0.240726
C29   C     C_3   0.603520 0.898328 0.912974 -0.754225
H18   H     H_    0.623672 0.849043 0.011868 0.214195
H19   H     H_    0.619190 0.999829 0.929740 0.234562
H20   H     H_    0.654752 0.861167 0.840064 0.243388
N4    N     N_R   0.270362 0.308274 0.836257 0.231263
O9    O     O_R   0.292143 0.200963 0.895737 -0.435540
O10   O     O_R   0.202269 0.311884 0.727336 -0.397531

loop_
_geom_bond_atom_site_label_1
_geom_bond_atom_site_label_2
_geom_bond_distance
_ccdc_geom_bond_type
O4    Zn2   2.007316 S    
C13   C14   1.384990 A    
N4    O10   1.299786 A    
Zn1   O5    1.990966 S    
C19   C20   1.392603 A    
C3    C19   1.419983 S    
C9    C10   1.376747 A    
C4    C5    1.430533 S    
C15   C20   1.367500 A    
Zn2   O8    1.985107 S    
C16   C17   1.403497 A    
C10   C11   1.414003 A    
C25   N2    1.367554 A    
C17   H7    1.083563 S    
C29   H18   1.110509 S    
C21   H9    1.113151 S    
C8    H5    1.080865 S    
O6    C3    1.285744 A    
N1    C24   1.368890 A    
C27   C28   1.519992 S    
C10   C14   1.397926 A    
Zn1   O7    2.007315 S    
C21   N3    1.460632 S    
N3    H17   1.031505 S    
C1    C16   1.420738 S    
O3    Zn1   1.985107 S    
C23   C26   1.408860 A    
C22   H10   1.111856 S    
C25   H13   1.081256 S    
C18   C19   1.403029 A    
C27   H14   1.110607 S    
C7    C8    1.382083 A    
O2    C1    1.283881 A    
C28   H15   1.111982 S    
C6    C9    1.392869 A    
O4    C2    1.286359 A    
C17   C18   1.383793 A    
O7    C4    1.287614 A    
C24   C25   1.420825 A    
N3    C29   1.452287 S    
O3    C2    1.289597 A    
C29   H19   1.109360 S    
Zn2   N1    2.014565 S    
C5    C13   1.400069 A    
C2    C6    1.430843 S    
C26   C27   1.498578 S    
C7    H3    1.084126 S    
C14   H4    1.084062 S    
C20   C21   1.502692 S    
C23   N1    1.358950 A    
Zn2   O6    1.993261 S    
C5    C12   1.392739 A    
C28   H16   1.110736 S    
O2    Zn2   1.990966 S    
C21   C22   1.519480 S    
C13   H2    1.083541 S    
O5    C3    1.284461 A    
C24   H12   1.081677 S    
C29   H20   1.110405 S    
C18   H8    1.083737 S    
C15   C22   1.494509 S    
N2    C26   1.368518 A    
C11   C12   1.374479 A    
O1    Zn1   1.993263 S    
C9    H6    1.083946 S    
C23   C28   1.486496 S    
C27   N4    1.464509 S    
C22   H11   1.110753 S    
C7    C11   1.396343 A    
C15   C16   1.390166 A    
Zn1   N2    2.014610 S    
O8    C4    1.288228 A    
N4    O9    1.302066 A    
O1    C1    1.286679 A    
C12   H1    1.085703 S    
C6    C8    1.399167 A    
