data_mof_unit_14382.cif
_audit_creation_date              2012-12-10T18:24:01-0500
_audit_creation_method            fapswitch 2.2
_symmetry_space_group_name_H-M    P1
_symmetry_Int_Tables_number       1
_space_group_crystal_system       triclinic
_cell_length_a                    15.727207
_cell_length_b                    14.888745
_cell_length_c                    14.163141
_cell_angle_alpha                 90.289972
_cell_angle_beta                  91.913872
_cell_angle_gamma                 89.239113
_cell_volume                      3314.24039457

loop_
_atom_site_label
_atom_site_type_symbol
_atom_type_description
_atom_site_fract_x
_atom_site_fract_y
_atom_site_fract_z
_atom_type_partial_charge
C1    C     C_R   0.502825 0.327390 0.499847 0.994753
C2    C     C_R   0.499135 0.047172 0.514351 -0.039253
C3    C     C_R   0.414663 0.910055 0.502063 -0.051809
C4    C     C_R   0.578550 0.090669 0.531264 -0.057798
C5    C     C_R   0.647579 0.945282 0.554817 0.394297
C6    C     C_R   0.344433 0.056872 0.488351 0.406901
C7    C     C_R   0.653969 0.038216 0.545766 -0.136589
C8    C     C_R   0.339370 0.963212 0.485717 -0.145444
C9    C     C_R   0.440632 0.551054 0.796842 -0.027375
C10   C     C_R   0.551085 0.439264 0.203167 -0.041792
C11   C     C_R   0.558731 0.450017 0.800970 0.549132
C12   C     C_R   0.495813 0.672633 0.500134 1.001314
C13   C     C_R   0.447663 0.557223 0.199461 0.533315
C14   C     C_R   0.548543 0.436353 0.899967 -0.210635
C15   C     C_R   0.437989 0.548690 0.099361 -0.211365
C16   C     C_R   0.338071 0.499173 0.498296 0.943154
C17   C     C_R   0.661928 0.500945 0.501528 0.949228
C18   C     C_R   0.493212 0.493371 0.949362 0.002090
C19   C     C_R   0.492240 0.490561 0.050235 0.004275
C20   C     C_R   0.440384 0.554630 0.898064 -0.150416
C21   C     C_R   0.545628 0.430258 0.101890 -0.158859
C22   C     C_R   0.589630 0.365254 0.949928 0.386423
C23   C     C_R   0.492358 0.768382 0.501579 -0.233021
C24   C     C_R   0.376431 0.599567 0.047327 0.412487
C25   C     C_R   0.589898 0.362774 0.049749 -0.116902
C26   C     C_R   0.385441 0.612554 0.949943 -0.140090
C27   C     C_3   0.979437 0.444711 0.560910 -0.190174
C28   C     C_3   0.020655 0.566727 0.429555 -0.215940
C29   C     C_3   0.025576 0.422969 0.469185 -0.175997
C30   C     C_3   0.974062 0.588539 0.521252 -0.208131
C31   C     C_1   0.249199 0.500973 0.493240 -0.057502
C32   C     C_1   0.750780 0.502855 0.505237 -0.077539
C33   C     C_3   0.036347 0.527016 0.577977 0.422629
C34   C     C_R   0.506278 0.231820 0.499476 -0.228621
C35   C     C_3   0.962904 0.484100 0.412485 0.428193
C36   C     C_3   0.082957 0.505116 0.486902 -0.064523
C37   C     C_3   0.916819 0.505967 0.504136 -0.065180
C38   C     C_1   0.173950 0.503110 0.488279 0.180830
C39   C     C_1   0.826008 0.504673 0.506871 0.173442
C40   C     C_R   0.414201 0.815157 0.506636 -0.136514
C41   C     C_R   0.578359 0.185369 0.535502 -0.133950
C42   C     C_2   0.052656 0.331377 0.436437 0.961736
C43   C     C_2   0.946113 0.681406 0.548961 0.954730
C44   C     C_3   0.561906 0.237730 0.863608 0.130167
C45   C     C_R   0.569857 0.811749 0.506509 0.395161
C46   C     C_3   0.593806 0.140224 0.865454 -0.286688
C47   C     C_3   0.533077 0.078748 0.809986 -0.934414
C48   C     C_3   0.250161 0.574170 0.117915 0.173187
C49   C     C_3   0.190590 0.547902 0.034482 -0.370488
C50   C     C_3   0.138656 0.465422 0.056877 -0.967352
C51   C     C_2   0.627563 0.281531 0.094934 0.963682
C52   C     C_2   0.344887 0.694710 0.909187 0.979116
C53   C     C_2   0.959187 0.375906 0.633226 0.951147
C54   C     C_2   0.046863 0.637805 0.361871 0.943404
C55   C     C_3   0.952347 0.471548 0.247367 0.131082
C56   C     C_R   0.432971 0.187890 0.469279 0.375891
C57   C     C_3   0.895600 0.537790 0.191275 -0.296494
C58   C     C_3   0.934848 0.565135 0.099167 -0.981656
C59   C     C_3   0.028046 0.567671 0.735988 0.087366
C60   C     C_3   0.070444 0.635854 0.802591 -0.283830
C61   C     C_3   0.011446 0.665150 0.880475 -0.968262
C62   C     C_2   0.334920 0.764538 0.522214 0.969892
C63   C     C_2   0.648783 0.235804 0.583378 0.977771
C64   C     C_3   0.676557 0.786260 0.402133 0.132415
C65   C     C_3   0.701916 0.700987 0.348895 -0.335343
C66   C     C_3   0.729986 0.722201 0.249445 -0.941862
C67   C     C_R   0.570877 0.903222 0.527463 -0.112375
C68   C     C_3   0.378194 0.223017 0.323449 0.149113
C69   C     C_3   0.332759 0.299573 0.269823 -0.318752
C70   C     C_3   0.345982 0.292119 0.163783 -0.955379
C71   C     C_3   0.706055 0.860754 0.676349 0.149526
C72   C     C_3   0.741637 0.925049 0.752091 -0.348605
C73   C     C_3   0.730902 0.887888 0.851132 -0.956552
C74   C     C_3   0.257533 0.155395 0.567962 0.151575
C75   C     C_3   0.201128 0.102317 0.633014 -0.342288
C76   C     C_3   0.184407 0.154431 0.723717 -0.884883
C77   C     C_2   0.740390 0.075690 0.535452 0.994984
C78   C     C_R   0.424814 0.097528 0.491384 -0.112529
C79   C     C_2   0.256379 0.925342 0.453394 1.009016
C80   C     C_2   0.371393 0.595209 0.741906 0.989642
C81   C     C_2   0.623486 0.397383 0.256070 1.007820
C82   C     C_3   0.705297 0.450696 0.792642 0.138715
C83   C     C_3   0.715647 0.551701 0.773322 -0.370876
C84   C     C_3   0.792721 0.588641 0.828149 -0.977588
C85   C     C_3   0.452238 0.708236 0.226422 0.101307
C86   C     C_3   0.395664 0.788229 0.251074 -0.225985
C87   C     C_3   0.442050 0.877126 0.243351 -0.963263
C88   C     C_R   0.494570 0.953550 0.515798 -0.021093
H1    H     H_    0.147330 0.250331 0.393114 0.361395
H2    H     H_    0.210807 0.602994 0.174386 0.186470
H3    H     H_    0.281928 0.513421 0.149265 0.129636
H4    H     H_    0.146803 0.605157 0.017914 0.255508
H5    H     H_    0.227647 0.532389 0.970938 0.254122
H6    H     H_    0.180722 0.405233 0.063461 0.275009
H7    H     H_    0.090896 0.453461 0.998818 0.279921
H8    H     H_    0.105384 0.475369 0.123885 0.264306
H9    H     H_    0.607753 0.168111 0.167755 0.355131
H10   H     H_    0.237427 0.767296 0.883922 0.350467
H11   H     H_    0.869902 0.306928 0.699282 0.338763
H12   H     H_    0.849357 0.767427 0.571649 0.371448
H13   H     H_    0.142086 0.697249 0.295126 0.344664
H14   H     H_    0.955920 0.407530 0.206982 0.181108
H15   H     H_    0.018673 0.496125 0.254978 0.096988
H16   H     H_    0.832992 0.506551 0.175054 0.262709
H17   H     H_    0.884430 0.598708 0.234654 0.260859
H18   H     H_    0.996215 0.599475 0.113626 0.288035
H19   H     H_    0.890960 0.612321 0.060668 0.275565
H20   H     H_    0.945244 0.505113 0.053944 0.269933
H21   H     H_    0.017783 0.504473 0.775204 0.163499
H22   H     H_    0.964869 0.595222 0.712035 0.126079
H23   H     H_    0.546956 0.257872 0.789359 0.193529
H24   H     H_    0.088456 0.695973 0.761909 0.256496
H25   H     H_    0.129213 0.605281 0.834865 0.260435
H26   H     H_    0.954863 0.701219 0.849819 0.277678
H27   H     H_    0.045521 0.711118 0.930261 0.286044
H28   H     H_    0.990607 0.605585 0.919747 0.272071
H29   H     H_    0.230678 0.750304 0.599760 0.360963
H30   H     H_    0.726214 0.248706 0.698841 0.365829
H31   H     H_    0.734022 0.827973 0.413940 0.208732
H32   H     H_    0.630688 0.825367 0.355969 0.097483
H33   H     H_    0.754587 0.665769 0.388348 0.256722
H34   H     H_    0.501675 0.240924 0.903394 0.105845
H35   H     H_    0.646744 0.655574 0.343026 0.243115
H36   H     H_    0.679210 0.760125 0.209708 0.254548
H37   H     H_    0.742252 0.658622 0.210749 0.272158
H38   H     H_    0.789090 0.762275 0.252760 0.293680
H39   H     H_    0.349725 0.157974 0.300964 0.155731
H40   H     H_    0.446464 0.222958 0.303740 0.185911
H41   H     H_    0.263588 0.298227 0.282968 0.248971
H42   H     H_    0.358067 0.364882 0.295432 0.250887
H43   H     H_    0.414795 0.293340 0.149007 0.302416
H44   H     H_    0.314555 0.349833 0.127119 0.254426
H45   H     H_    0.657785 0.135403 0.834843 0.269930
H46   H     H_    0.318269 0.228881 0.135398 0.274928
H47   H     H_    0.741085 0.795719 0.682583 0.178647
H48   H     H_    0.638320 0.845559 0.690328 0.135583
H49   H     H_    0.810384 0.935652 0.740940 0.271628
H50   H     H_    0.707887 0.990892 0.746275 0.244212
H51   H     H_    0.662545 0.877070 0.864162 0.272196
H52   H     H_    0.756276 0.936536 0.904293 0.283268
H53   H     H_    0.766338 0.823261 0.859720 0.267187
H54   H     H_    0.224977 0.220051 0.550396 0.208775
H55   H     H_    0.317756 0.173297 0.607022 0.114305
H56   H     H_    0.599695 0.117113 0.939922 0.223901
H57   H     H_    0.139375 0.088300 0.595755 0.283639
H58   H     H_    0.232999 0.037497 0.651858 0.250083
H59   H     H_    0.245162 0.166815 0.763649 0.252836
H60   H     H_    0.142392 0.114898 0.768783 0.282120
H61   H     H_    0.152613 0.219747 0.707105 0.306270
H62   H     H_    0.816891 0.152831 0.459085 0.381718
H63   H     H_    0.190790 0.854295 0.354512 0.362428
H64   H     H_    0.246899 0.597217 0.703914 0.361053
H65   H     H_    0.668808 0.294817 0.336242 0.376413
H66   H     H_    0.758292 0.414221 0.759209 0.193222
H67   H     H_    0.468782 0.081819 0.840093 0.267515
H68   H     H_    0.714101 0.437555 0.869381 0.159480
H69   H     H_    0.725107 0.562680 0.697167 0.252306
H70   H     H_    0.658440 0.590507 0.794249 0.217859
H71   H     H_    0.782557 0.585885 0.905317 0.273596
H72   H     H_    0.802417 0.659615 0.807912 0.269061
H73   H     H_    0.850642 0.548869 0.811912 0.264910
H74   H     H_    0.468402 0.715011 0.150809 0.119574
H75   H     H_    0.512711 0.711231 0.268931 0.146143
H76   H     H_    0.338234 0.789385 0.203197 0.264166
H77   H     H_    0.374930 0.780180 0.324099 0.276506
H78   H     H_    0.557101 0.008387 0.813813 0.272444
H79   H     H_    0.496847 0.879293 0.294653 0.251826
H80   H     H_    0.397945 0.933526 0.259705 0.289019
H81   H     H_    0.464957 0.885995 0.170694 0.270404
H82   H     H_    0.528375 0.099030 0.734617 0.275916
N1    N     N_R   0.500040 0.500070 0.750030 -0.188092
N2    N     N_R   0.499960 0.499930 0.249970 -0.196753
O1    O     O_R   0.500020 0.367860 0.580280 -0.626217
O2    O     O_R   0.137450 0.314337 0.415360 -0.840010
O3    O     O_2   0.999426 0.739132 0.564237 -0.577571
O4    O     O_R   0.859693 0.701813 0.556054 -0.825523
O5    O     O_3   0.626496 0.294122 0.901778 -0.617008
O6    O     O_3   0.308642 0.640655 0.091502 -0.613031
O7    O     O_2   0.703473 0.264852 0.088296 -0.574501
O8    O     O_R   0.575199 0.222030 0.141159 -0.823497
O9    O     O_2   0.389178 0.751850 0.874356 -0.603536
O10   O     O_R   0.257097 0.708584 0.913872 -0.801228
O11   O     O_2   0.017125 0.337035 0.676474 -0.630459
O12   O     O_R   0.499980 0.632140 0.419720 -0.618397
O13   O     O_R   0.874750 0.355183 0.649603 -0.802367
O14   O     O_2   0.993514 0.689733 0.327952 -0.627953
O15   O     O_R   0.132325 0.645777 0.339891 -0.790479
O16   O     O_3   0.913687 0.453863 0.333509 -0.594896
O17   O     O_3   0.083003 0.549920 0.661252 -0.620854
O18   O     O_2   0.315388 0.701432 0.470803 -0.628129
O19   O     O_R   0.282763 0.789431 0.596287 -0.744289
O20   O     O_2   0.680174 0.300044 0.544771 -0.598923
O21   O     O_R   0.679284 0.208873 0.672644 -0.819829
O22   O     O_3   0.644180 0.762976 0.491086 -0.629630
O23   O     O_R   0.500020 0.367840 0.419730 -0.587400
O24   O     O_3   0.368407 0.235337 0.421725 -0.629688
O25   O     O_3   0.718583 0.895373 0.584665 -0.610570
O26   O     O_3   0.269852 0.108028 0.481980 -0.604513
O27   O     O_2   0.798055 0.056724 0.592184 -0.580495
O28   O     O_R   0.756010 0.131239 0.458767 -0.789777
O29   O     O_2   0.192707 0.939395 0.498667 -0.570460
O30   O     O_R   0.250582 0.876003 0.369424 -0.834896
O31   O     O_2   0.384425 0.664829 0.700229 -0.577906
O32   O     O_R   0.289484 0.560050 0.742832 -0.805469
O33   O     O_2   0.693391 0.432108 0.253894 -0.627862
O34   O     O_R   0.499980 0.632160 0.580270 -0.594945
O35   O     O_R   0.613850 0.316739 0.304154 -0.766925
O36   O     O_3   0.627916 0.415103 0.754181 -0.592995
O37   O     O_3   0.408920 0.627607 0.246161 -0.576079
O38   O     O_R   0.376770 0.500000 0.580260 -0.625570
O39   O     O_R   0.623230 0.500000 0.419740 -0.631240
O40   O     O_R   0.376780 0.499980 0.419710 -0.595038
O41   O     O_R   0.623220 0.500020 0.580290 -0.587942
O42   O     O_2   0.999886 0.272168 0.427459 -0.571635
Zn1   Zn    Zn3+2 0.499990 0.500020 0.607200 1.020937
Zn2   Zn    Zn3+2 0.500010 0.499980 0.392800 1.004358

loop_
_geom_bond_atom_site_label_1
_geom_bond_atom_site_label_2
_ccdc_geom_bond_type
O34   Zn1   S    
C57   H17   S    
C74   H55   S    
C34   C56   A    
C23   C45   A    
C29   C42   S    
C27   C29   S    
C14   C18   A    
C5    C67   A    
C59   H22   S    
C82   O36   S    
C84   H72   S    
C56   C78   A    
C62   O18   D    
C73   H53   S    
C85   C86   S    
C27   C33   S    
C16   C31   S    
C15   C19   A    
C86   H77   S    
C29   C36   S    
C1    O1    A    
C67   C88   A    
C64   H31   S    
C20   C26   A    
C42   O42   D    
C81   O33   D    
C1    O23   A    
C52   O10   S    
C58   H19   S    
C26   C52   S    
C53   O11   D    
C71   H47   S    
C11   C14   A    
C17   O41   A    
C50   H7    S    
O12   Zn2   S    
C80   O31   D    
C4    C41   A    
C10   N2    A    
C23   C40   A    
C87   H81   S    
C55   H15   S    
C33   C36   S    
C40   C62   S    
C33   O17   S    
C18   C19   A    
C32   C39   T    
C44   H34   S    
H30   O21   S    
C53   O13   S    
H29   O19   S    
C56   O24   S    
C43   O3    D    
C13   N2    A    
C87   H79   S    
O40   Zn2   S    
C76   H59   S    
C68   C69   S    
C79   O29   D    
C22   C25   A    
C64   O22   S    
C61   H27   S    
C8    C79   S    
C63   O21   S    
C2    C88   A    
C65   H33   S    
C68   H40   S    
C58   H20   S    
C81   O35   S    
N1    Zn1   S    
C72   H50   S    
O39   Zn2   S    
C74   H54   S    
C59   C60   S    
C75   H58   S    
H65   O35   S    
C85   H74   S    
C60   H25   S    
C34   C41   A    
H1    O2    S    
C22   O5    S    
C51   O7    D    
H62   O28   S    
C84   H71   S    
C44   C46   S    
C1    C34   S    
C71   O25   S    
O41   Zn1   S    
C10   C21   A    
C72   H49   S    
C55   H14   S    
C74   C75   S    
C74   O26   S    
C16   O40   A    
C52   O9    D    
C28   C35   S    
C3    C8    A    
C42   O2    S    
C71   H48   S    
C5    C7    A    
C47   H78   S    
C28   C54   S    
C86   C87   S    
C69   H42   S    
H9    O8    S    
C46   H56   S    
C73   H51   S    
C4    C7    A    
C48   H3    S    
C75   H57   S    
C66   H38   S    
C30   C37   S    
C60   C61   S    
C58   H18   S    
C9    C80   S    
C12   O34   A    
H10   O10   S    
C2    C4    A    
C75   C76   S    
C25   C51   S    
C45   C67   A    
C60   H24   S    
C13   O37   S    
C43   O4    S    
C9    C20   A    
C83   C84   S    
C83   H69   S    
C66   H37   S    
C79   O30   S    
C61   H28   S    
C70   H44   S    
C68   O24   S    
C55   O16   S    
C77   O27   D    
C68   H39   S    
C76   H60   S    
O23   Zn2   S    
C16   O38   A    
C15   C24   A    
C3    C40   A    
C65   C66   S    
C54   O15   S    
C13   C15   A    
C87   H80   S    
C24   O6    S    
C44   H23   S    
C85   H75   S    
C5    O25   S    
C66   H36   S    
C30   C43   S    
C9    N1    A    
C86   H76   S    
C11   O36   S    
C41   C63   S    
C49   H4    S    
C51   O8    S    
C11   N1    A    
H11   O13   S    
C47   H82   S    
C2    C78   A    
C35   C37   S    
C6    O26   S    
C45   O22   S    
C57   H16   S    
C21   C25   A    
C46   C47   S    
C48   C49   S    
C30   C33   S    
O1    Zn1   S    
C3    C88   A    
C50   H6    S    
C24   C26   A    
C72   C73   S    
C17   O39   A    
C85   O37   S    
C44   O5    S    
C6    C8    A    
C27   C53   S    
C62   O19   S    
C73   H52   S    
C29   C35   S    
C10   C81   S    
C64   H32   S    
C31   C38   T    
C7    C77   S    
C49   H5    S    
C64   C65   S    
C14   C22   A    
C55   C57   S    
C82   H68   S    
C28   C30   S    
C37   C39   S    
N2    Zn2   S    
C46   H45   S    
C35   O16   S    
C50   H8    S    
C57   C58   S    
C12   O12   A    
C83   H70   S    
C47   H67   S    
C76   H61   S    
C27   C37   S    
C48   O6    S    
C36   C38   S    
C70   H43   S    
C59   H21   S    
C18   C20   A    
C65   H35   S    
C69   C70   S    
C77   O28   S    
H12   O4    S    
C6    C78   A    
C82   H66   S    
C59   O17   S    
C12   C23   S    
C71   C72   S    
C28   C36   S    
C69   H41   S    
C49   C50   S    
C54   O14   D    
C61   H26   S    
C70   H46   S    
C17   C32   S    
H64   O32   S    
C48   H2    S    
H63   O30   S    
C82   C83   S    
O38   Zn1   S    
H13   O15   S    
C84   H73   S    
C63   O20   D    
C19   C21   A    
C80   O32   S    
