data_mof_unit_21320.cif
_audit_creation_date              2012-12-10T18:27:19-0500
_audit_creation_method            fapswitch 2.2
_symmetry_space_group_name_H-M    P1
_symmetry_Int_Tables_number       1
_space_group_crystal_system       triclinic
_cell_length_a                    14.875727
_cell_length_b                    14.175354
_cell_length_c                    26.86258
_cell_angle_alpha                 89.095553
_cell_angle_beta                  89.800282
_cell_angle_gamma                 89.998823
_cell_volume                      5663.73707504

loop_
_atom_site_label
_atom_site_type_symbol
_atom_type_description
_atom_site_fract_x
_atom_site_fract_y
_atom_site_fract_z
_atom_type_partial_charge
C1    C     C_R   0.327360 0.500133 0.499468 0.935160
C2    C     C_R   0.307479 0.460939 0.869136 -0.011644
C3    C     C_R   0.474664 0.505874 0.351542 -0.171263
C4    C     C_R   0.471118 0.498175 0.646653 -0.176301
C5    C     C_R   0.283953 0.477665 0.973104 0.085568
C6    C     C_R   0.364300 0.634286 0.019493 0.086361
C7    C     C_R   0.348401 0.637021 0.967624 -0.022893
C8    C     C_R   0.282273 0.484128 0.025739 -0.022546
C9    C     C_R   0.317094 0.554889 0.944246 0.087231
C10   C     C_R   0.330125 0.557844 0.048518 0.087575
C11   C     C_R   0.259859 0.394132 0.948482 -0.192390
C12   C     C_R   0.672654 0.499953 0.500152 0.948740
C13   C     C_R   0.419242 0.701701 0.042646 -0.194533
C14   C     C_R   0.273088 0.385489 0.897498 -0.112915
C15   C     C_R   0.442045 0.692120 0.092501 -0.116372
C16   C     C_R   0.495623 0.500913 0.405263 0.907167
C17   C     C_R   0.498717 0.499375 0.594556 0.967522
C18   C     C_R   0.238333 0.417048 0.056437 -0.252765
C19   C     C_R   0.366874 0.717527 0.938019 -0.254077
C20   C     C_R   0.812476 0.511641 0.455906 -0.305712
C21   C     C_R   0.187389 0.508038 0.543390 -0.300127
C22   C     C_R   0.767902 0.500014 0.500972 -0.123829
C23   C     C_R   0.347425 0.552905 0.100289 -0.107698
C24   C     C_R   0.232140 0.501170 0.498266 -0.113239
C25   C     C_R   0.813355 0.492068 0.546218 0.321744
C26   C     C_R   0.187037 0.501300 0.452721 0.319843
C27   C     C_R   0.906928 0.499922 0.546154 -0.003981
C28   C     C_R   0.093220 0.506353 0.452896 -0.000748
C29   C     C_R   0.953125 0.506548 0.499980 -0.035962
C30   C     C_R   0.046917 0.507248 0.499143 -0.042094
C31   C     C_R   0.905444 0.511231 0.454610 0.028685
C32   C     C_R   0.094463 0.508520 0.544587 0.038814
C33   C     C_R   0.955196 0.502173 0.590869 -0.268113
C34   C     C_R   0.324166 0.548037 0.891874 -0.105308
C35   C     C_R   0.044687 0.510568 0.408221 -0.246190
C36   C     C_R   0.048533 0.510681 0.590323 0.457806
C37   C     C_R   0.951306 0.515850 0.408856 0.451587
C38   C     C_R   0.579778 0.800004 0.496090 0.442034
C39   C     C_R   0.424391 0.200515 0.514463 0.447762
C40   C     C_R   0.420368 0.799902 0.503362 0.443832
C41   C     C_R   0.575985 0.201815 0.485582 0.458951
C42   C     C_R   0.328613 0.479214 0.181738 0.635441
C43   C     C_R   0.367933 0.613019 0.811448 0.615510
C44   C     C_R   0.420078 0.899954 0.507204 -0.083939
C45   C     C_R   0.307221 0.481877 0.130497 -0.139071
C46   C     C_R   0.579273 0.101511 0.488927 -0.096042
C47   C     C_R   0.580187 0.900380 0.492410 -0.083453
C48   C     C_R   0.421193 0.100623 0.510740 -0.094275
C49   C     C_R   0.500175 0.950342 0.499834 0.020559
C50   C     C_R   0.500193 0.050913 0.499742 0.025023
C51   C     C_R   0.340653 0.950713 0.516887 -0.157484
C52   C     C_R   0.659237 0.050646 0.481253 -0.170117
C53   C     C_R   0.659609 0.951850 0.482776 -0.156454
C54   C     C_R   0.341306 0.049355 0.518944 -0.167454
C55   C     C_R   0.434438 0.604335 0.170812 0.539403
C56   C     C_R   0.352151 0.626644 0.862621 -0.124641
C57   C     C_R   0.331389 0.449592 0.819144 0.552743
C58   C     C_R   0.419651 0.601634 0.282367 -0.136300
C59   C     C_R   0.348888 0.475996 0.705405 -0.150060
C60   C     C_R   0.448166 0.593618 0.331269 -0.232449
C61   C     C_R   0.383205 0.469022 0.657501 -0.317098
C62   C     C_R   0.471962 0.425426 0.321102 0.371924
C63   C     C_R   0.526316 0.532691 0.684591 0.388695
C64   C     C_R   0.454193 0.436510 0.269900 0.343641
C65   C     C_R   0.493948 0.532061 0.733827 0.341649
C66   C     C_R   0.423676 0.524149 0.250922 0.149953
C67   C     C_R   0.248756 0.416245 0.108025 0.459670
C68   C     C_R   0.403154 0.509189 0.743698 0.148754
C69   C     C_3   0.401290 0.293637 0.350011 0.184907
C70   C     C_3   0.413681 0.190690 0.365401 -0.804669
C71   C     C_3   0.615477 0.661317 0.671669 0.153759
C72   C     C_3   0.712609 0.694449 0.674332 -0.746582
C73   C     C_3   0.081854 0.605407 0.655353 0.076563
C74   C     C_3   0.149040 0.620228 0.697041 -0.759248
C75   C     C_3   0.900243 0.611431 0.346670 0.057709
C76   C     C_3   0.840045 0.615724 0.301054 -0.718395
C77   C     C_3   0.703747 0.756016 0.540622 0.116119
C78   C     C_R   0.367353 0.713755 0.886255 0.461480
C79   C     C_3   0.805129 0.748878 0.533506 -0.842531
C80   C     C_3   0.345745 0.240999 0.583723 0.081885
C81   C     C_3   0.251508 0.265940 0.601240 -0.777431
C82   C     C_3   0.300919 0.759220 0.455299 0.130605
C83   C     C_3   0.199058 0.751695 0.459495 -0.814863
C84   C     C_3   0.655564 0.244880 0.416173 0.084116
C85   C     C_3   0.715537 0.322735 0.395269 -0.680570
C86   C     C_R   0.407505 0.617583 0.121439 -0.007257
Cl1   Cl    Cl    0.751993 0.471758 0.601962 -0.590751
Cl2   Cl    Cl    0.249243 0.498377 0.396354 -0.714474
Cl3   Cl    Cl    0.472612 0.340294 0.230166 -0.515687
Cl4   Cl    Cl    0.568102 0.558206 0.782932 -0.518376
Cl5   Cl    Cl    0.190610 0.326305 0.141016 -0.482593
Cl6   Cl    Cl    0.392954 0.820348 0.854382 -0.490998
H1    H     H_    0.921384 0.498997 0.626563 0.217401
H2    H     H_    0.395221 0.669119 0.268641 0.181893
H3    H     H_    0.258549 0.318302 0.880617 0.197999
H4    H     H_    0.487696 0.743170 0.108180 0.196733
H5    H     H_    0.237058 0.331708 0.968234 0.159457
H6    H     H_    0.450848 0.758922 0.022203 0.161173
H7    H     H_    0.194125 0.364731 0.041037 0.181902
H8    H     H_    0.380759 0.784891 0.954588 0.182858
H9    H     H_    0.774050 0.519792 0.421900 0.185347
H10   H     H_    0.225708 0.511579 0.577537 0.182506
H11   H     H_    0.358097 0.295276 0.316177 0.198425
H12   H     H_    0.078112 0.510311 0.372399 0.226951
H13   H     H_    0.365523 0.330206 0.380619 0.192513
H14   H     H_    0.446679 0.185397 0.402241 0.216041
H15   H     H_    0.347100 0.155567 0.368267 0.225065
H16   H     H_    0.455185 0.153687 0.337352 0.277265
H17   H     H_    0.578186 0.694645 0.702890 0.180547
H18   H     H_    0.585771 0.686722 0.636016 0.120278
H19   H     H_    0.753150 0.662299 0.644312 0.261305
H20   H     H_    0.715471 0.772428 0.670014 0.191899
H21   H     H_    0.741892 0.673788 0.710880 0.287151
H22   H     H_    0.012900 0.610557 0.671266 0.158343
H23   H     H_    0.277693 0.914395 0.523568 0.180510
H24   H     H_    0.091966 0.663147 0.627143 0.141422
H25   H     H_    0.218461 0.620048 0.681740 0.256550
H26   H     H_    0.136508 0.689280 0.714740 0.224715
H27   H     H_    0.142207 0.563360 0.725718 0.256087
H28   H     H_    0.968294 0.637413 0.335778 0.156201
H29   H     H_    0.871028 0.658894 0.375249 0.143587
H30   H     H_    0.771335 0.591012 0.311024 0.252061
H31   H     H_    0.836004 0.689467 0.286668 0.211036
H32   H     H_    0.867841 0.570257 0.271431 0.271167
H33   H     H_    0.680907 0.695204 0.563828 0.189517
H34   H     H_    0.722348 0.086838 0.474734 0.175462
H35   H     H_    0.690000 0.821663 0.561768 0.115354
H36   H     H_    0.831415 0.814308 0.515527 0.239093
H37   H     H_    0.838417 0.739023 0.570152 0.211511
H38   H     H_    0.822096 0.688443 0.509606 0.270803
H39   H     H_    0.394440 0.290436 0.600404 0.182495
H40   H     H_    0.360969 0.168618 0.598213 0.138506
H41   H     H_    0.202498 0.213658 0.587232 0.250782
H42   H     H_    0.248996 0.265572 0.642565 0.232309
H43   H     H_    0.232493 0.336938 0.587131 0.263444
H44   H     H_    0.326353 0.700268 0.432380 0.193952
H45   H     H_    0.722583 0.916115 0.476043 0.178976
H46   H     H_    0.316312 0.826580 0.434906 0.110186
H47   H     H_    0.171120 0.817001 0.475754 0.231151
H48   H     H_    0.169420 0.741991 0.422037 0.222868
H49   H     H_    0.179912 0.691138 0.483844 0.270040
H50   H     H_    0.588980 0.252387 0.398216 0.203832
H51   H     H_    0.684936 0.176138 0.405416 0.132868
H52   H     H_    0.781750 0.321588 0.414240 0.257910
H53   H     H_    0.726130 0.312570 0.354767 0.226285
H54   H     H_    0.682634 0.392047 0.400546 0.231050
H55   H     H_    0.278707 0.085283 0.526711 0.181116
H56   H     H_    0.339706 0.444790 0.628221 0.168998
H57   H     H_    0.445563 0.656276 0.353782 0.183819
H58   H     H_    0.279471 0.457166 0.712553 0.199979
N1    N     N_R   0.395611 0.535390 0.199891 -0.336357
N2    N     N_R   0.365115 0.524191 0.792195 -0.338199
N3    N     N_R   0.500000 0.750030 0.500000 -0.189729
N4    N     N_R   0.500000 0.249970 0.500000 -0.182084
O1    O     O_R   0.367850 0.580280 0.500010 -0.573139
O2    O     O_2   0.389217 0.686387 0.781127 -0.487303
O3    O     O_2   0.324204 0.364029 0.798197 -0.541738
O4    O     O_2   0.500045 0.659178 0.189443 -0.553533
O5    O     O_3   0.486134 0.336052 0.340880 -0.610985
O6    O     O_3   0.613213 0.561593 0.674205 -0.537084
O7    O     O_3   0.095613 0.515493 0.634610 -0.613694
O8    O     O_3   0.904718 0.517310 0.364404 -0.601710
O9    O     O_3   0.660880 0.753083 0.493568 -0.578662
O10   O     O_3   0.349649 0.248417 0.531155 -0.576602
O11   O     O_3   0.339065 0.753211 0.503598 -0.581206
O12   O     O_R   0.632150 0.419720 0.499990 -0.536834
O13   O     O_3   0.650042 0.251871 0.468609 -0.573854
O14   O     O_R   0.632150 0.580280 0.499990 -0.579224
O15   O     O_R   0.367850 0.419720 0.500010 -0.562906
O16   O     O_R   0.500010 0.580260 0.428760 -0.629372
O17   O     O_R   0.499990 0.419740 0.571240 -0.611513
O18   O     O_R   0.499990 0.580260 0.571240 -0.632470
O19   O     O_R   0.500010 0.419740 0.428760 -0.587267
O20   O     O_2   0.283598 0.421484 0.213407 -0.458723
Zn1   Zn    Zn3+2 0.500000 0.607200 0.500000 0.995886
Zn2   Zn    Zn3+2 0.500000 0.392800 0.500000 1.037077

loop_
_geom_bond_atom_site_label_1
_geom_bond_atom_site_label_2
_ccdc_geom_bond_type
C16   O19   A    
C77   O9    S    
O14   Zn1   S    
C79   H36   S    
C63   C65   A    
C4    C61   A    
C34   C56   A    
C23   C45   A    
C12   C22   S    
C27   C29   A    
C73   C74   S    
C72   H20   S    
C17   O18   A    
C81   H42   S    
C47   C49   A    
C27   C33   A    
C48   C54   A    
C71   O6    S    
C4    C63   A    
C73   H24   S    
C75   O8    S    
C80   H40   S    
C63   O6    S    
C35   C37   A    
C61   H56   S    
C85   H53   S    
C5    C11   A    
C70   H15   S    
C12   O12   A    
C11   C14   A    
C3    C62   A    
C58   C60   A    
C79   H37   S    
C71   H18   S    
C46   C52   A    
C25   Cl1   S    
C33   C36   A    
C56   C78   A    
C74   H27   S    
C13   H6    S    
C1    O1    A    
C80   O10   S    
C62   C64   A    
C69   O5    S    
C58   C66   A    
C55   O4    S    
C28   C35   A    
O12   Zn2   S    
C22   C25   A    
C45   C67   A    
C73   O7    S    
C41   C46   A    
C77   H35   S    
O18   Zn1   S    
C47   C53   A    
C3    C60   A    
C2    C34   A    
C48   C50   A    
C72   H19   S    
C80   H39   S    
C71   H17   S    
C64   Cl3   S    
C85   H52   S    
C83   H47   S    
C83   H48   S    
C81   H43   S    
O16   Zn1   S    
C77   C79   S    
C65   Cl4   S    
C74   H26   S    
C21   C32   A    
C2    C57   A    
C59   C61   A    
C39   N4    A    
C76   H32   S    
C84   C85   S    
C35   H12   S    
C42   O20   S    
C15   H4    S    
C83   H49   S    
C52   H34   S    
C20   H9    S    
C84   H51   S    
C78   Cl6   S    
C18   C67   A    
C79   H38   S    
C72   H21   S    
C23   C86   A    
C44   C49   A    
C51   H23   S    
C73   H22   S    
C31   C37   A    
C66   N1    S    
C42   C45   A    
C64   C66   A    
C19   C78   A    
C75   C76   S    
C5    C9    A    
C29   C30   A    
C68   N2    S    
C59   C68   A    
C84   H50   S    
C65   C68   A    
C67   Cl5   S    
C40   O11   S    
C85   H54   S    
C81   H41   S    
C42   N1    A    
C38   C47   A    
C15   C86   A    
C4    C17   S    
C44   C51   A    
C8    C10   A    
C38   O9    S    
C20   C22   A    
C82   C83   S    
C7    C19   A    
C13   C15   A    
C70   H14   S    
C9    C34   A    
C53   H45   S    
C40   N3    A    
C18   H7    S    
C21   H10   S    
C43   O2    S    
C32   C36   A    
C14   H3    S    
C77   H33   S    
C52   C53   A    
C41   N4    A    
C59   H58   S    
O1    Zn1   S    
C7    C9    A    
C74   H25   S    
C57   O3    S    
C69   H13   S    
C75   H29   S    
C76   H31   S    
C57   N2    A    
C75   H28   S    
C24   C26   A    
C80   C81   S    
C39   C48   A    
C33   H1    S    
C12   O14   A    
C5    C8    A    
C19   H8    S    
C17   O17   A    
C55   N1    A    
C6    C7    A    
C10   C23   A    
C25   C27   A    
O17   Zn2   S    
C46   C50   A    
C26   C28   A    
N4    Zn2   S    
C11   H5    S    
C51   C54   A    
C76   H30   S    
C55   C86   A    
C28   C30   A    
C58   H2    S    
C71   C72   S    
C29   C31   A    
C84   O13   S    
C70   H16   S    
C82   H46   S    
C6    C13   A    
C30   C32   A    
C69   H11   S    
C36   O7    S    
C41   O13   S    
C1    O15   A    
O19   Zn2   S    
O15   Zn2   S    
N3    Zn1   S    
C60   H57   S    
C82   H44   S    
C69   C70   S    
C2    C14   A    
C8    C18   A    
C6    C10   A    
C3    C16   S    
C16   O16   A    
C43   C56   A    
C40   C44   A    
C1    C24   S    
C26   Cl2   S    
C49   C50   A    
C21   C24   A    
C62   O5    S    
C37   O8    S    
C38   N3    A    
C39   O10   S    
C20   C31   A    
C43   N2    A    
C54   H55   S    
C82   O11   S    
