data_mof_unit_53882.cif
_audit_creation_date              2013-03-05T15:54:32-0500
_audit_creation_method            fapswitch 2.2
_symmetry_space_group_name_H-M    P1
_symmetry_Int_Tables_number       1
_space_group_crystal_system       triclinic
_cell_length_a                    19.055675
_cell_length_b                    18.463157
_cell_length_c                    12.351713
_cell_angle_alpha                 89.998389
_cell_angle_beta                  129.162287
_cell_angle_gamma                 90.003064
_cell_volume                      3369.46593465

loop_
_atom_site_label
_atom_site_type_symbol
_atom_site_description
_atom_site_fract_x
_atom_site_fract_y
_atom_site_fract_z
_atom_type_partial_charge
O1    O     O_R   0.608610 0.924520 0.551740 -0.579724
O2    O     O_R   0.608610 0.075480 0.551740 -0.579586
O3    O     O_R   0.108610 0.424520 0.551740 -0.579679
O4    O     O_R   0.108610 0.575480 0.551740 -0.579596
O5    O     O_R   0.564110 0.924510 0.685150 -0.601676
O6    O     O_R   0.564110 0.075490 0.685150 -0.601460
O7    O     O_R   0.064110 0.424510 0.685150 -0.601548
O8    O     O_R   0.064110 0.575490 0.685150 -0.601466
C1    C     C_R   0.612089 0.898121 0.652763 0.780641
C2    C     C_R   0.612185 0.101807 0.652882 0.780575
C3    C     C_R   0.112161 0.398176 0.652855 0.780486
C4    C     C_R   0.112203 0.601793 0.652905 0.780492
Cu1   Cu    Cu3+1 0.526340 0.000000 0.421010 0.930730
Cu2   Cu    Cu3+1 0.026340 0.500000 0.421010 0.930748
Cu3   Cu    Cu3+1 0.473640 0.000000 0.578990 0.916741
Cu4   Cu    Cu3+1 0.973640 0.500000 0.578990 0.916804
O9    O     O_R   0.435880 0.075470 0.314850 -0.582117
O10   O     O_R   0.435880 0.924530 0.314850 -0.582118
O11   O     O_R   0.935880 0.575470 0.314850 -0.582199
O12   O     O_R   0.935880 0.424530 0.314850 -0.582097
O13   O     O_R   0.391380 0.075460 0.448260 -0.593583
O14   O     O_R   0.391380 0.924540 0.448260 -0.593616
O15   O     O_R   0.891380 0.575460 0.448260 -0.593624
O16   O     O_R   0.891380 0.424540 0.448260 -0.593556
C5    C     C_R   0.384284 0.098728 0.342496 0.793769
C6    C     C_R   0.384284 0.901273 0.342498 0.793716
C7    C     C_R   0.884290 0.598738 0.342504 0.793838
C8    C     C_R   0.884284 0.401271 0.342499 0.793784
C9    C     C_R   0.656265 0.312194 0.112776 -0.193721
C10   C     C_R   0.656615 0.688466 0.113896 -0.193742
C11   C     C_R   0.156203 0.812323 0.112565 -0.193699
C12   C     C_R   0.156337 0.187935 0.113023 -0.193736
H1    H     H_    0.225252 0.878647 0.295596 0.146498
H2    H     H_    0.225462 0.121667 0.296135 0.146553
H3    H     H_    0.725348 0.378492 0.295846 0.146545
H4    H     H_    0.725884 0.622323 0.297183 0.146711
H5    H     H_    0.520093 0.246351 0.880490 0.136716
H6    H     H_    0.520374 0.754563 0.882034 0.136830
H7    H     H_    0.020045 0.746530 0.880206 0.136601
H8    H     H_    0.020153 0.253853 0.880859 0.136763
H9    H     H_    0.594301 0.311633 0.099418 0.131172
H10   H     H_    0.594887 0.689422 0.101208 0.131107
H11   H     H_    0.094197 0.811836 0.099084 0.131311
H12   H     H_    0.094427 0.188579 0.099821 0.131118
C13   C     C_R   0.310913 0.852048 0.242503 -0.048068
C14   C     C_R   0.310921 0.147964 0.242515 -0.048167
C15   C     C_R   0.810919 0.352036 0.242516 -0.048160
C16   C     C_R   0.810954 0.648014 0.242568 -0.048282
C17   C     C_R   0.754334 0.165504 0.748509 -0.186111
C18   C     C_R   0.753561 0.833617 0.747100 -0.186327
C19   C     C_R   0.254470 0.665346 0.748757 -0.186025
C20   C     C_R   0.254137 0.334277 0.748148 -0.186180
C21   C     C_R   0.324535 0.711657 0.844659 -0.149459
C22   C     C_R   0.324070 0.287800 0.843770 -0.149395
C23   C     C_R   0.824348 0.211879 0.844306 -0.149430
C24   C     C_R   0.823269 0.786858 0.842252 -0.149353
C25   C     C_R   0.321311 0.750179 0.938038 -0.184254
C26   C     C_R   0.320906 0.249366 0.937292 -0.184176
C27   C     C_R   0.821149 0.250363 0.937743 -0.184180
C28   C     C_R   0.820213 0.748577 0.936017 -0.184204
C29   C     C_R   0.745296 0.245045 0.933810 0.081248
C30   C     C_R   0.744785 0.754492 0.933044 0.081167
C31   C     C_R   0.245387 0.744965 0.933941 0.081300
C32   C     C_R   0.245164 0.254836 0.933611 0.081213
C33   C     C_R   0.669474 0.204150 0.825203 0.079625
C34   C     C_R   0.669122 0.795691 0.824926 0.079651
C35   C     C_R   0.169538 0.704123 0.825252 0.079656
C36   C     C_R   0.169384 0.295810 0.825134 0.079622
C37   C     C_R   0.241846 0.779455 0.033258 0.073468
C38   C     C_R   0.241734 0.220469 0.033134 0.073465
C39   C     C_R   0.741802 0.279481 0.033214 0.073476
C40   C     C_R   0.741554 0.720350 0.032935 0.073414
C41   C     C_R   0.660469 0.278343 0.015295 0.167314
C42   C     C_R   0.660533 0.721995 0.015877 0.167407
C43   C     C_R   0.160458 0.778412 0.015183 0.167335
C44   C     C_R   0.160475 0.221721 0.015422 0.167335
C45   C     C_R   0.583620 0.245026 0.898618 -0.241467
C46   C     C_R   0.583705 0.755511 0.899533 -0.241670
C47   C     C_R   0.083606 0.745131 0.898447 -0.241425
C48   C     C_R   0.083633 0.255090 0.898833 -0.241522
C49   C     C_R   0.587505 0.209521 0.803705 -0.199158
C50   C     C_R   0.587371 0.790761 0.804182 -0.199151
C51   C     C_R   0.087530 0.709574 0.803618 -0.199225
C52   C     C_R   0.087468 0.290545 0.803823 -0.199140
C53   C     C_R   0.317148 0.814554 0.150995 -0.253866
C54   C     C_R   0.317042 0.185320 0.150760 -0.253926
C55   C     C_R   0.817105 0.314605 0.150901 -0.253895
C56   C     C_R   0.816867 0.685101 0.150358 -0.254032
C57   C     C_R   0.231033 0.849511 0.225421 -0.194789
C58   C     C_R   0.231159 0.150687 0.225763 -0.194794
C59   C     C_R   0.731092 0.349410 0.225582 -0.194741
C60   C     C_R   0.731421 0.651108 0.226437 -0.194880
C61   C     C_R   0.677596 0.159634 0.740102 -0.104956
C62   C     C_R   0.677192 0.840037 0.739565 -0.105083
C63   C     C_R   0.177669 0.659573 0.740200 -0.104904
C64   C     C_R   0.177495 0.340287 0.739971 -0.104943
H13   H     H_    0.381792 0.814521 0.173752 0.147266
H14   H     H_    0.381609 0.185236 0.173259 0.147398
H15   H     H_    0.881714 0.314631 0.173543 0.147336
H16   H     H_    0.881284 0.684777 0.172373 0.147612
H17   H     H_    0.761404 0.132800 0.683062 0.150897
H18   H     H_    0.760568 0.866134 0.681390 0.151109
H19   H     H_    0.261551 0.632608 0.683358 0.150860
H20   H     H_    0.261192 0.366934 0.682633 0.150931
H21   H     H_    0.378546 0.784678 0.009829 0.128445
H22   H     H_    0.378025 0.214716 0.008841 0.128555
H23   H     H_    0.878341 0.284918 0.009444 0.128524
H24   H     H_    0.877135 0.713674 0.007164 0.128603
H25   H     H_    0.383139 0.716045 0.849606 0.130358
H26   H     H_    0.382531 0.283205 0.848381 0.130330
H27   H     H_    0.882898 0.216349 0.849125 0.130316
H28   H     H_    0.881483 0.781913 0.846298 0.130425
H29   H     H_    0.524567 0.188024 0.711674 0.176129
H30   H     H_    0.524413 0.812384 0.712410 0.176500
H31   H     H_    0.024597 0.688099 0.711543 0.176030
H32   H     H_    0.024527 0.312074 0.711859 0.176231
C65   C     C_R   0.686370 0.999990 0.289862 0.093134
C66   C     C_R   0.186370 0.499984 0.289863 0.093143
H33   H     H_    0.703464 0.999993 0.480101 0.122967
H34   H     H_    0.203463 0.499982 0.480101 0.122888
H35   H     H_    0.721422 0.999987 0.109418 0.166957
H36   H     H_    0.221423 0.499982 0.109421 0.166973
N1    N     N_R   0.566260 0.000000 0.302220 -0.199173
N2    N     N_R   0.066260 0.500000 0.302220 -0.199150
C67   C     C_R   0.343811 0.000004 0.627844 0.068698
C68   C     C_R   0.843810 0.500014 0.627844 0.068608
C69   C     C_R   0.309939 0.000007 0.700103 -0.253100
C70   C     C_R   0.809938 0.500030 0.700103 -0.253108
C71   C     C_R   0.368952 0.000005 0.845777 -0.187657
C72   C     C_R   0.868952 0.500028 0.845777 -0.187796
C73   C     C_R   0.463479 1.000000 0.922053 0.006551
C74   C     C_R   0.963480 0.500010 0.922054 0.006528
C75   C     C_R   0.494934 0.999998 0.842934 0.286129
C76   C     C_R   0.994934 0.500000 0.842934 0.286228
C77   C     C_R   0.527692 0.999997 0.073092 -0.076779
C78   C     C_R   0.027692 0.500004 0.073092 -0.076755
C79   C     C_R   0.621981 0.999992 0.141735 0.154682
C80   C     C_R   0.121981 0.499991 0.141736 0.154699
C81   C     C_R   0.650367 0.999990 0.061363 -0.266023
C82   C     C_R   0.150368 0.499988 0.061364 -0.266062
C83   C     C_R   0.588769 0.999995 0.916824 -0.178518
C84   C     C_R   0.088770 0.499994 0.916825 -0.178497
C85   C     C_R   0.502533 0.000001 0.159740 -0.006598
C86   C     C_R   0.002534 0.500008 0.159741 -0.006710
C87   C     C_R   0.655807 0.999994 0.367101 0.060841
C88   C     C_R   0.155807 0.499988 0.367101 0.061008
N3    N     N_R   0.434410 0.000000 0.697680 -0.206540
N4    N     N_R   0.934410 0.500000 0.697680 -0.206498
H37   H     H_    0.432644 0.000005 0.116315 0.136168
H38   H     H_    0.932644 0.500016 0.116315 0.136116
H39   H     H_    0.297355 0.000006 0.514898 0.119706
H40   H     H_    0.797355 0.500017 0.514898 0.119739
H41   H     H_    0.338703 0.000008 0.895709 0.138463
H42   H     H_    0.838703 0.500042 0.895709 0.138440
H43   H     H_    0.237522 0.000011 0.642880 0.145932
H44   H     H_    0.737522 0.500044 0.642880 0.145946
C89   C     C_3   0.787120 0.999986 0.367646 -0.918838
H45   H     H_    0.806449 0.049168 0.340179 0.243514
H46   H     H_    0.826427 0.999988 0.482628 0.227347
H47   H     H_    0.806438 0.950801 0.340177 0.243493
C90   C     C_3   0.287121 0.499968 0.367648 -0.918829
H48   H     H_    0.326423 0.499963 0.482625 0.227346
H49   H     H_    0.306432 0.450783 0.340176 0.243503
H50   H     H_    0.306461 0.549148 0.340199 0.243517
H51   H     H_    0.618461 0.999997 0.867248 0.209243
H52   H     H_    0.118462 0.499994 0.867248 0.209206

loop_
_geom_bond_atom_site_label_1
_geom_bond_atom_site_label_2
_geom_bond_distance
_ccdc_geom_bond_type
C7    C16   1.457959 S    
C3    C64   1.469101 S    
C25   H21   1.077032 S    
C66   C90   1.509719 S    
H34   C88   1.082531 S    
C89   H45   1.110440 S    
C23   C27   1.389045 A    
C13   C53   1.393040 A    
O10   C6    1.300656 A    
C48   C52   1.385394 A    
H2    C58   1.083296 S    
C90   H48   1.111037 S    
C14   C54   1.393074 A    
C8    C15   1.457816 S    
H3    C59   1.083286 S    
C11   C43   1.403074 A    
O7    C3    1.302043 A    
C79   C81   1.398703 A    
C17   C61   1.403224 A    
C36   C64   1.417754 A    
C11   H11   1.084169 S    
Cu1   O10   1.943552 S    
C32   C36   1.417425 A    
C65   C87   1.396818 A    
C82   C84   1.385033 A    
C73   C77   1.447214 A    
C17   H17   1.083434 S    
C10   C42   1.403125 A    
C84   H52   1.064293 S    
C19   H19   1.083430 S    
C22   H26   1.082289 S    
C28   C30   1.418646 A    
O2    Cu1   1.951871 S    
Cu3   N3    2.022935 S    
C86   H38   1.076635 S    
C67   H39   1.081698 S    
C6    C13   1.457781 S    
C90   H49   1.110408 S    
O6    Cu3   1.943903 S    
C68   H40   1.081699 S    
C76   C84   1.403238 A    
Cu3   O14   1.951555 S    
C12   C58   1.391883 A    
C31   C37   1.421103 A    
C11   C57   1.391859 A    
C68   N4    1.357836 A    
C85   H37   1.076635 S    
C16   C60   1.399459 A    
C44   C48   1.390764 A    
C16   C56   1.393131 A    
C4    C63   1.468990 S    
C20   C64   1.403285 A    
C75   N3    1.391252 A    
C32   C38   1.421089 A    
O4    C4    1.301577 A    
O11   C7    1.300714 A    
C28   H24   1.077118 S    
C53   H13   1.076605 S    
O8    C4    1.302032 A    
C34   C62   1.417886 A    
C9    H9    1.084195 S    
H4    C60   1.083313 S    
C33   C61   1.417716 A    
Cu4   O16   1.951555 S    
C35   C63   1.417681 A    
N1    C87   1.351592 A    
H33   C87   1.082531 S    
C40   C56   1.399220 A    
C20   C22   1.385392 A    
C25   C31   1.418636 A    
C55   H15   1.076621 S    
C19   C63   1.403193 A    
C26   C32   1.418654 A    
C31   C35   1.417438 A    
C27   C29   1.418640 A    
Cu2   N2    2.035009 S    
C30   C34   1.417382 A    
C65   C89   1.509719 S    
C36   C52   1.412936 A    
C51   H31   1.079876 S    
C66   C88   1.396824 A    
O1    C1    1.301719 A    
C50   H30   1.079807 S    
C40   C42   1.420593 A    
C67   N3    1.357834 A    
C69   H43   1.082555 S    
C39   C41   1.420635 A    
C21   C25   1.389054 A    
H1    C57   1.083277 S    
C18   C62   1.403372 A    
O12   C8    1.300671 A    
C2    C61   1.469028 S    
C17   C23   1.385373 A    
N2    C88   1.351587 A    
C18   C24   1.385400 A    
C24   C28   1.389020 A    
C26   H22   1.077081 S    
H7    C47   1.083400 S    
C89   H46   1.111071 S    
C72   C74   1.410250 A    
C69   C71   1.395170 A    
O5    C1    1.302043 A    
Cu2   O12   1.943552 S    
C34   C50   1.413014 A    
C46   C50   1.385437 A    
C33   C49   1.412908 A    
C45   C49   1.385360 A    
C74   C78   1.447214 A    
H8    C48   1.083451 S    
C12   H12   1.084218 S    
C30   C40   1.421056 A    
C72   H42   1.077792 S    
C35   C51   1.412881 A    
C56   H16   1.076654 S    
O3    Cu2   1.951927 S    
C80   C82   1.398701 A    
C74   C76   1.433218 A    
C39   C55   1.399316 A    
C78   C80   1.422333 A    
O7    Cu4   1.943983 S    
C18   H18   1.083434 S    
Cu4   O15   1.951609 S    
O15   C7    1.298603 A    
Cu1   Cu3   2.700218 S    
C38   C44   1.420631 A    
Cu2   Cu4   2.700218 S    
C52   H32   1.079858 S    
O1    Cu1   1.951927 S    
C49   H29   1.079867 S    
C38   C54   1.399302 A    
C9    C59   1.391872 A    
C90   H50   1.110404 S    
C37   C53   1.399332 A    
C22   C26   1.389043 A    
C21   H25   1.082229 S    
C77   C79   1.422331 A    
O13   C5    1.298574 A    
C20   H20   1.083438 S    
C68   C70   1.393137 A    
C13   C57   1.399307 A    
C23   H27   1.082242 S    
C15   C59   1.399348 A    
Cu2   O11   1.943629 S    
C65   C79   1.420420 A    
O16   C8    1.298565 A    
C73   C75   1.433217 A    
C70   C72   1.395170 A    
C12   C44   1.403102 A    
C14   C58   1.399381 A    
C89   H47   1.110436 S    
H6    C46   1.083482 S    
C83   H51   1.064290 S    
Cu1   O9    1.943629 S    
Cu4   N4    2.022935 S    
O9    C5    1.300684 A    
H35   C81   1.081915 S    
C76   N4    1.391254 A    
H36   C82   1.081919 S    
C78   C86   1.422448 A    
C71   H41   1.077791 S    
C81   C83   1.385027 A    
C29   C39   1.421097 A    
H5    C45   1.083422 S    
Cu1   N1    2.035009 S    
C1    C62   1.469267 S    
C77   C85   1.422449 A    
C37   C43   1.420632 A    
C10   H10   1.084259 S    
O4    Cu2   1.951871 S    
C54   H14   1.076648 S    
C27   H23   1.077043 S    
O5    Cu3   1.943983 S    
O3    C3    1.301625 A    
O6    C2    1.302033 A    
C70   H44   1.082556 S    
O14   C6    1.298564 A    
C47   C51   1.385344 A    
C29   C33   1.417430 A    
Cu3   O13   1.951609 S    
C9    C41   1.403088 A    
O8    Cu4   1.943903 S    
C42   C46   1.390739 A    
N1    C85   1.368410 A    
C67   C69   1.393136 A    
C41   C45   1.390754 A    
N2    C86   1.368409 A    
C75   C83   1.403235 A    
C19   C21   1.385373 A    
C66   C80   1.420419 A    
C43   C47   1.390751 A    
C5    C14   1.457856 S    
C24   H28   1.082314 S    
C15   C55   1.393044 A    
C71   C73   1.410246 A    
C10   C60   1.391895 A    
O2    C2    1.301599 A    
