data_mof_unit_66469.cif
_audit_creation_date              2012-12-10T16:40:33-0500
_audit_creation_method            fapswitch 2.2
_symmetry_space_group_name_H-M    P1
_symmetry_Int_Tables_number       1
_space_group_crystal_system       triclinic
_cell_length_a                    10.866718
_cell_length_b                    10.816539
_cell_length_c                    19.511851
_cell_angle_alpha                 97.420665
_cell_angle_beta                  91.365976
_cell_angle_gamma                 98.572292
_cell_volume                      2246.64144272

loop_
_atom_site_label
_atom_site_type_symbol
_atom_type_description
_atom_site_fract_x
_atom_site_fract_y
_atom_site_fract_z
_atom_type_partial_charge
C1    C     C_R   0.475403 0.161769 0.484418 0.503472
C2    C     C_2   0.494815 0.436676 0.015503 -0.134077
C3    C     C_2   0.489345 0.537511 0.982892 -0.133714
C4    C     C_R   0.524681 0.838873 0.515546 0.504011
C5    C     C_R   0.483202 0.519671 0.763547 0.038780
C6    C     C_2   0.534125 0.975333 0.521743 -0.117616
C7    C     C_2   0.466523 0.027076 0.478521 -0.100557
C8    C     C_2   0.971660 0.537073 0.517248 -0.133598
C9    C     C_2   0.031568 0.453493 0.479238 0.053818
C10   C     C_R   0.164764 0.472918 0.485206 0.496580
C11   C     C_R   0.836588 0.525577 0.515187 0.527472
C12   C     C_R   0.498445 0.448328 0.091297 0.040077
C13   C     C_R   0.486759 0.513572 0.688379 0.503776
C14   C     C_R   0.512716 0.485766 0.311620 0.507427
C15   C     C_R   0.510920 0.473967 0.235963 0.038242
C16   C     C_R   0.439373 0.546590 0.201510 -0.118681
C17   C     C_R   0.432638 0.533455 0.129860 -0.109259
C18   C     C_2   0.972832 0.327333 0.444400 0.610058
C19   C     C_R   0.568118 0.373792 0.125333 -0.113341
C20   C     C_R   0.575111 0.387064 0.197448 -0.118595
C21   C     C_R   0.423720 0.422249 0.865089 -0.108895
C22   C     C_R   0.422116 0.417663 0.793465 -0.124134
C23   C     C_R   0.543177 0.627476 0.806026 -0.120473
C24   C     C_R   0.543249 0.632690 0.877548 -0.115920
C25   C     C_R   0.485758 0.529407 0.907385 0.040412
H1    H     H_    0.387525 0.613090 0.229832 0.141760
H2    H     H_    0.375499 0.342822 0.887244 0.110989
H3    H     H_    0.629787 0.328973 0.222924 0.143581
H4    H     H_    0.503570 0.345975 0.986395 0.120471
H5    H     H_    0.374717 0.589053 0.104740 0.111990
H6    H     H_    0.857053 0.165201 0.450413 0.339084
H7    H     H_    0.590124 0.716528 0.909638 0.107929
H8    H     H_    0.596259 0.033977 0.561603 0.115727
H9    H     H_    0.404188 0.970702 0.438096 0.129894
H10   H     H_    0.024538 0.619338 0.548470 0.087960
H11   H     H_    0.374756 0.333888 0.761573 0.135126
H12   H     H_    0.589862 0.707847 0.783995 0.135095
H13   H     H_    0.495146 0.630646 0.012486 0.120814
H14   H     H_    0.618420 0.306861 0.096137 0.110904
O1    O     O_3   0.500000 0.500000 0.500000 -0.452151
O2    O     O_R   0.410860 0.431690 0.648970 -0.546192
O3    O     O_R   0.578570 0.421470 0.344370 -0.545057
O4    O     O_R   0.567340 0.590030 0.662290 -0.546933
O5    O     O_R   0.443230 0.556810 0.344370 -0.543669
O6    O     O_2   0.003323 0.289437 0.386446 -0.518081
O7    O     O_R   0.889059 0.249134 0.479344 -0.673063
O8    O     O_R   0.229880 0.548640 0.449830 -0.533261
O9    O     O_R   0.775840 0.445670 0.468570 -0.501222
O10   O     O_R   0.404020 0.217050 0.524780 -0.529169
O11   O     O_R   0.590260 0.788640 0.556820 -0.537271
O12   O     O_R   0.555650 0.222860 0.449830 -0.522467
O13   O     O_R   0.450070 0.771450 0.468560 -0.543209
O14   O     O_R   0.213590 0.407490 0.524780 -0.534531
O15   O     O_R   0.780700 0.598200 0.556830 -0.537599
Zn1   Zn    Zn3+2 0.407400 0.592620 0.441700 0.950125
Zn2   Zn    Zn3+2 0.384130 0.390950 0.548790 0.961135
Zn3   Zn    Zn3+2 0.607710 0.617180 0.567810 0.947643
Zn4   Zn    Zn3+2 0.600760 0.399250 0.441700 0.978383

loop_
_geom_bond_atom_site_label_1
_geom_bond_atom_site_label_2
_ccdc_geom_bond_type
C12   C17   A    
C23   C24   A    
C24   H7    S    
O2    Zn2   S    
O9    Zn4   S    
C6    C7    D    
C23   H12   S    
O10   Zn2   S    
C22   H11   S    
C9    C10   S    
C5    C13   S    
C19   C20   A    
C5    C23   A    
O13   Zn1   S    
C3    C25   S    
C14   O3    A    
O1    Zn1   S    
C2    C12   S    
O3    Zn4   S    
C13   O2    A    
C2    C3    D    
C21   H2    S    
O8    Zn1   S    
O12   Zn4   S    
C6    H8    S    
C21   C22   A    
O15   Zn3   S    
C17   H5    S    
C1    O12   A    
O5    Zn1   S    
C11   O9    A    
C11   O15   A    
C19   H14   S    
C4    O13   A    
C8    C11   S    
C18   O7    S    
C12   C19   A    
C4    C6    S    
C2    H4    S    
C16   H1    S    
C15   C20   A    
C7    H9    S    
O1    Zn4   S    
O4    Zn3   S    
C15   C16   A    
C18   O6    D    
C9    C18   S    
C13   O4    A    
C24   C25   A    
C14   O5    A    
O14   Zn2   S    
C10   O8    A    
C10   O14   A    
C21   C25   A    
C14   C15   S    
C16   C17   A    
O1    Zn3   S    
C20   H3    S    
C1    C7    S    
O11   Zn3   S    
C1    O10   A    
H6    O7    S    
C5    C22   A    
C3    H13   S    
C4    O11   A    
C8    C9    D    
O1    Zn2   S    
C8    H10   S    
