data_mof_unit_36697.cif
_audit_creation_date              2012-12-10T20:32:40-0500
_audit_creation_method            fapswitch 2.2
_symmetry_space_group_name_H-M    P1
_symmetry_Int_Tables_number       1
_space_group_crystal_system       triclinic
_cell_length_a                    11.514467
_cell_length_b                    10.692828
_cell_length_c                    9.945435
_cell_angle_alpha                 90.067453
_cell_angle_beta                  91.353817
_cell_angle_gamma                 90.992308
_cell_volume                      1223.97704761

loop_
_atom_site_label
_atom_site_type_symbol
_atom_type_description
_atom_site_fract_x
_atom_site_fract_y
_atom_site_fract_z
_atom_type_partial_charge
C1    C     C_R   0.500056 0.260728 0.499970 0.906956
C2    C     C_R   0.499230 0.129073 0.497462 -0.115882
C3    C     C_R   0.561224 0.068871 0.398401 -0.228964
C4    C     C_R   0.567217 0.939762 0.397617 0.365362
C5    C     C_R   0.505648 0.871985 0.496791 -0.302887
C6    C     C_R   0.432700 0.933709 0.584190 0.056648
C7    C     C_3   0.424783 0.927077 0.734438 0.313763
C8    C     C_3   0.424220 0.069147 0.734910 -0.493143
C9    C     C_R   0.398517 0.489839 0.066629 0.100995
C10   C     C_R   0.597833 0.525704 0.077238 -0.047817
C11   C     C_R   0.598411 0.532497 0.934859 0.380212
C12   C     C_R   0.282143 0.499907 0.498728 0.921918
C13   C     C_R   0.398612 0.492401 0.925801 0.146828
C14   C     C_3   0.302685 0.399205 0.910227 -0.486383
C15   C     C_3   0.302006 0.392517 0.063824 0.254590
C16   C     C_R   0.504491 0.739573 0.499712 0.961908
C17   C     C_R   0.717851 0.499283 0.501213 0.927510
C18   C     C_1   0.161596 0.499986 0.496752 -0.107513
C19   C     C_1   0.059338 0.499973 0.498281 0.051027
C20   C     C_1   0.940691 0.499763 0.501520 0.069092
C21   C     C_1   0.838430 0.499464 0.503028 -0.048721
C22   C     C_R   0.431121 0.061509 0.585518 0.079402
H1    H     H_    0.610722 0.123231 0.327148 0.212543
H2    H     H_    0.331276 0.313690 0.858053 0.225442
H3    H     H_    0.220318 0.427776 0.106295 0.118894
H4    H     H_    0.502541 0.886937 0.785255 0.092125
H5    H     H_    0.341280 0.110399 0.766314 0.262047
H6    H     H_    0.503612 0.111703 0.783105 0.196467
H7    H     H_    0.675996 0.544721 0.136363 0.219274
H8    H     H_    0.222928 0.441458 0.866177 0.215581
N1    N     N_R   0.499240 0.499140 0.142800 -0.113458
N2    N     N_R   0.499240 0.499180 0.857150 -0.152436
O1    O     O_R   0.500010 0.316790 0.614690 -0.645752
O2    O     O_R   0.500000 0.316760 0.385350 -0.549129
O3    O     O_R   0.334450 0.500030 0.614670 -0.589851
O4    O     O_R   0.334440 0.500000 0.385330 -0.613711
O5    O     O_R   0.500000 0.683240 0.614650 -0.585153
O6    O     O_R   0.499990 0.683210 0.385310 -0.549298
O7    O     O_R   0.665560 0.500000 0.614670 -0.530013
O8    O     O_R   0.665550 0.499970 0.385330 -0.616449
Zn1   Zn    Zn3+2 0.500010 0.500020 0.653130 1.054226
Zn2   Zn    Zn3+2 0.499990 0.499980 0.346870 1.081549
S1    S     S_3+6 0.338772 0.239672 0.123047 0.061110
O9    O     O_2   0.304187 0.226170 0.266984 -0.265895
O10   O     O_2   0.272141 0.143814 0.040139 -0.244068
O11   O     O_3   0.482076 0.216354 0.108729 -0.563849
H9    H     H_    0.490032 0.124448 0.102489 0.393619
S2    S     S_3+6 0.661114 0.870735 0.280299 0.067425
O12   O     O_2   0.589200 0.813480 0.167419 -0.248275
O13   O     O_2   0.742054 0.967377 0.222464 -0.261639
O14   O     O_3   0.740574 0.759154 0.355085 -0.526902
H10   H     H_    0.777639 0.800485 0.434706 0.347986
S3    S     S_3+6 0.289976 0.859386 0.787089 0.067417
O15   O     O_2   0.287664 0.721549 0.758443 -0.299562
O16   O     O_2   0.278605 0.879938 0.935640 -0.215146
O17   O     O_3   0.178553 0.926749 0.704098 -0.521674
H11   H     H_    0.107990 0.884443 0.738298 0.400365
S4    S     S_3+6 0.729759 0.596887 0.872003 0.074500
O18   O     O_2   0.797456 0.662831 0.983137 -0.250414
O19   O     O_2   0.803856 0.493086 0.822070 -0.268835
O20   O     O_3   0.705566 0.702227 0.749665 -0.540795
H12   H     H_    0.686238 0.780348 0.797084 0.356832

loop_
_geom_bond_atom_site_label_1
_geom_bond_atom_site_label_2
_ccdc_geom_bond_type
O4    Zn2   S    
C2    C22   A    
C8    C22   S    
N2    Zn1   S    
S3    O15   D    
C6    C7    S    
N1    Zn2   S    
C12   O4    A    
C11   S4    S    
C13   N2    A    
C3    H1    S    
C19   C20   S    
O2    Zn2   S    
C16   O5    A    
S1    O9    D    
O1    Zn1   S    
S4    O20   S    
S2    O13   D    
C2    C3    A    
C9    C15   S    
C15   S1    S    
C7    C8    S    
O7    Zn1   S    
C13   C14   S    
O17   H11   S    
C12   O3    A    
S1    O10   D    
C10   H7    S    
O20   H12   S    
C7    H4    S    
C14   H8    S    
O3    Zn1   S    
O8    Zn2   S    
S2    O12   D    
C11   N2    A    
O6    Zn2   S    
S3    O16   D    
O5    Zn1   S    
C5    C6    A    
C8    H6    S    
S1    O11   S    
C15   H3    S    
C10   C11   A    
C9    N1    A    
C1    O2    A    
C1    O1    A    
O14   H10   S    
C6    C22   A    
C20   C21   T    
C4    S2    S    
C1    C2    S    
C17   O7    A    
S3    O17   S    
C14   H2    S    
C8    H5    S    
C7    S3    S    
O11   H9    S    
C18   C19   T    
C5    C16   S    
C9    C13   A    
S4    O18   D    
C14   C15   S    
S4    O19   D    
C10   N1    A    
S2    O14   S    
C17   C21   S    
C3    C4    A    
C16   O6    A    
C4    C5    A    
C17   O8    A    
C12   C18   S    
