data_mof_unit_11952.cif
_audit_creation_date              2012-12-10T17:35:02-0500
_audit_creation_method            fapswitch 2.2
_symmetry_space_group_name_H-M    P1
_symmetry_Int_Tables_number       1
_space_group_crystal_system       triclinic
_cell_length_a                    12.336962
_cell_length_b                    13.196143
_cell_length_c                    13.866834
_cell_angle_alpha                 105.227643
_cell_angle_beta                  73.801382
_cell_angle_gamma                 116.648527
_cell_volume                      1912.57820953

loop_
_atom_site_label
_atom_site_type_symbol
_atom_type_description
_atom_site_fract_x
_atom_site_fract_y
_atom_site_fract_z
_atom_type_partial_charge
C1    C     C_R   0.144459 0.713569 0.508609 0.770218
C2    C     C_1   0.973344 0.504533 0.791401 -0.176948
C3    C     C_R   0.736861 0.975910 0.365514 -0.189852
C4    C     C_R   0.775154 0.164827 0.464534 -0.046382
C5    C     C_R   0.177984 0.916141 0.574338 -0.188264
C6    C     C_R   0.254918 0.031416 0.594103 -0.144475
C7    C     C_R   0.381449 0.068445 0.558720 -0.183266
C8    C     C_R   0.433709 0.990515 0.498801 0.079067
C9    C     C_R   0.353046 0.875485 0.468805 0.082921
C10   C     C_R   0.563231 0.023216 0.466678 0.073425
C11   C     C_R   0.609264 0.944599 0.397773 0.166718
C12   C     C_R   0.984016 0.503942 0.686345 0.823774
C13   C     C_R   0.527554 0.836685 0.359820 -0.241571
C14   C     C_R   0.401403 0.803205 0.393455 -0.201627
C15   C     C_R   0.648759 0.131620 0.501649 -0.252530
C16   C     C_R   0.819569 0.085948 0.398210 -0.194327
C17   C     C_R   0.225898 0.836626 0.514138 -0.100201
C18   C     C_R   0.640322 0.675698 0.660391 -0.301480
C19   C     C_R   0.251711 0.351251 0.364213 0.075073
C20   C     C_R   0.350459 0.318599 0.334411 -0.258090
C21   C     C_R   0.449655 0.374670 0.385448 -0.183329
C22   C     C_R   0.451189 0.464620 0.467595 -0.008182
C23   C     C_R   0.856162 0.286325 0.485342 0.795525
C24   C     C_R   0.347468 0.494851 0.495627 0.283844
C25   C     C_R   0.551029 0.525371 0.523036 -0.038328
C26   C     C_R   0.544767 0.614641 0.604763 0.170161
C27   C     C_R   0.443044 0.642417 0.630965 -0.263628
C28   C     C_R   0.346575 0.583669 0.577971 -0.162616
C29   C     C_R   0.657574 0.501883 0.501501 0.030392
C30   C     C_R   0.742109 0.648335 0.635401 0.070847
C31   C     C_R   0.016155 0.496300 0.313666 0.820697
C32   C     C_1   0.027578 0.496781 0.208704 -0.176710
C33   C     C_2   0.048232 0.499642 0.013823 0.408784
C34   C     C_2   0.953876 0.503791 0.986541 0.409339
C35   C     C_1   0.963842 0.504477 0.879893 -0.052056
C36   C     C_1   0.037726 0.497867 0.120324 -0.051984
Cu1   Cu    Cu3+1 0.899780 0.525060 0.522890 0.938971
Cu2   Cu    Cu3+1 0.100220 0.474940 0.477110 0.925891
H1    H     H_    0.342746 0.720992 0.357184 0.174533
H2    H     H_    0.816223 0.695151 0.678040 0.120439
H3    H     H_    0.437549 0.710344 0.693672 0.156025
H4    H     H_    0.636195 0.744101 0.722933 0.137061
H5    H     H_    0.670149 0.435601 0.440824 0.127281
H6    H     H_    0.175136 0.307194 0.324139 0.123635
H7    H     H_    0.523541 0.345813 0.359114 0.141809
H8    H     H_    0.350120 0.249574 0.271499 0.145703
H9    H     H_    0.272683 0.610884 0.604885 0.206122
H10   H     H_    0.917425 0.110687 0.368513 0.148186
H11   H     H_    0.561259 0.777716 0.303721 0.145235
H12   H     H_    0.772446 0.916314 0.312746 0.137580
H13   H     H_    0.619728 0.193079 0.557288 0.147317
H14   H     H_    0.080922 0.888847 0.608390 0.152205
H15   H     H_    0.435122 0.159087 0.577738 0.130302
H16   H     H_    0.216685 0.092138 0.639900 0.147025
N1    N     N_R   0.748810 0.563010 0.557590 -0.179968
N2    N     N_R   0.250540 0.437620 0.443020 -0.205394
O1    O     O_R   0.025040 0.682470 0.528790 -0.579461
O2    O     O_R   0.194310 0.640150 0.490130 -0.606452
O3    O     O_R   0.903380 0.524130 0.659910 -0.582568
O4    O     O_R   0.072660 0.481800 0.621240 -0.579887
O5    O     O_R   0.805690 0.359850 0.509870 -0.588400
O6    O     O_R   0.974960 0.317530 0.471210 -0.585828
O7    O     O_R   0.927340 0.518200 0.378760 -0.562686
O8    O     O_R   0.096620 0.475870 0.340090 -0.594922
O9    O     O_3   0.851551 0.506703 0.061472 -0.594599
C37   C     C_3   0.760117 0.511766 0.022692 -0.317197
H17   H     H_    0.721918 0.433944 0.966314 0.166294
H18   H     H_    0.796753 0.591348 0.989108 0.163194
H19   H     H_    0.683031 0.514207 0.086462 0.189388
O10   O     O_3   0.150505 0.496621 0.938881 -0.594166
C38   C     C_3   0.244293 0.496686 0.978365 -0.316346
H20   H     H_    0.210911 0.418327 0.012971 0.165006
H21   H     H_    0.280434 0.575871 0.034086 0.162372
H22   H     H_    0.322094 0.495825 0.914802 0.191361

loop_
_geom_bond_atom_site_label_1
_geom_bond_atom_site_label_2
_ccdc_geom_bond_type
C19   N2    A    
C2    C35   T    
C37   H18   S    
C28   H9    S    
C19   C20   A    
C18   C26   A    
C2    C12   S    
C16   H10   S    
C7    C8    A    
C26   C27   A    
C32   C36   T    
C10   C15   A    
C18   H4    S    
C5    C6    A    
C37   H19   S    
C5    C17   A    
C33   C36   S    
C34   C35   S    
C14   H1    S    
Cu2   O2    S    
C12   O3    A    
C23   O6    A    
C8    C9    A    
C22   C25   A    
C5    H14   S    
O10   C38   S    
C18   C30   A    
C15   H13   S    
Cu2   O8    S    
C37   H17   S    
C21   C22   A    
C29   H5    S    
C6    H16   S    
C34   O9    S    
Cu1   O7    S    
C3    H12   S    
C21   H7    S    
C25   C29   A    
C31   O7    A    
C38   H21   S    
C4    C23   S    
C29   N1    A    
C25   C26   A    
C12   O4    A    
C4    C16   A    
C9    C14   A    
Cu1   Cu2   S    
C1    O1    A    
C27   H3    S    
C31   C32   S    
C33   C34   D    
C30   H2    S    
Cu1   O3    S    
C33   O10   S    
Cu2   O4    S    
C9    C17   A    
C13   H11   S    
C7    H15   S    
C19   H6    S    
C31   O8    A    
C24   C28   A    
C38   H22   S    
Cu1   O5    S    
C6    C7    A    
C24   N2    A    
C30   N1    A    
C1    C17   S    
C4    C15   A    
C38   H20   S    
C1    O2    A    
C11   C13   A    
C22   C24   A    
Cu1   O1    S    
C3    C11   A    
C10   C11   A    
Cu1   N1    S    
C23   O5    A    
Cu2   N2    S    
C20   C21   A    
C8    C10   A    
O9    C37   S    
C27   C28   A    
C13   C14   A    
C20   H8    S    
C3    C16   A    
Cu2   O6    S    
