data_mof_unit_60371.cif
_audit_creation_date              2012-12-10T17:25:54-0500
_audit_creation_method            fapswitch 2.2
_symmetry_space_group_name_H-M    P1
_symmetry_Int_Tables_number       1
_space_group_crystal_system       triclinic
_cell_length_a                    36.562187
_cell_length_b                    29.386043
_cell_length_c                    21.741698
_cell_angle_alpha                 90.089461
_cell_angle_beta                  126.577155
_cell_angle_gamma                 89.958198
_cell_volume                      18759.0809113

loop_
_atom_site_label
_atom_site_type_symbol
_atom_type_description
_atom_site_fract_x
_atom_site_fract_y
_atom_site_fract_z
_atom_type_partial_charge
C1    C     C_R   0.914452 0.000001 0.915382 0.795207
C2    C     C_R   0.085550 0.000009 0.084738 0.793497
C3    C     C_R   0.414452 0.499992 0.915383 0.796412
C4    C     C_R   0.585549 0.499999 0.084638 0.796656
C5    C     C_1   0.820916 0.999981 0.821523 0.039356
C6    C     C_1   0.179085 0.000007 0.178556 0.036638
C7    C     C_1   0.320915 0.499992 0.821515 0.040174
C8    C     C_1   0.679085 0.500020 0.178496 0.039153
C9    C     C_1   0.770651 0.999980 0.771117 0.039674
C10   C     C_1   0.229349 0.000001 0.228939 0.037347
C11   C     C_1   0.270651 0.499997 0.771109 0.040747
C12   C     C_1   0.729349 0.500022 0.228898 0.039919
C13   C     C_1   0.728242 0.999982 0.728601 0.035582
C14   C     C_1   0.271759 0.999999 0.271437 0.034216
C15   C     C_1   0.228241 0.499999 0.728595 0.036597
C16   C     C_1   0.771759 0.500019 0.271410 0.035920
C17   C     C_1   0.677972 0.999988 0.678214 0.030121
C18   C     C_1   0.322028 0.999998 0.321804 0.029393
C19   C     C_1   0.177971 0.500000 0.678210 0.031000
C20   C     C_1   0.822028 0.500013 0.321792 0.030462
C21   C     C_1   0.635561 0.999993 0.635709 -0.157891
C22   C     C_1   0.364440 0.999998 0.364297 -0.158252
C23   C     C_1   0.135560 0.500001 0.635707 -0.157152
C24   C     C_1   0.864440 0.500007 0.364293 -0.157554
C25   C     C_R   0.999994 0.914450 0.500176 0.913193
C26   C     C_R   0.999968 0.085542 0.499184 0.900531
C27   C     C_R   0.499994 0.414456 0.500002 0.854502
C28   C     C_R   0.500005 0.585550 0.500026 0.913573
C29   C     C_R   0.000038 0.997548 0.621203 0.922285
C30   C     C_R   0.999994 0.997095 0.378894 0.944093
C31   C     C_R   0.500013 0.502357 0.621197 0.929102
C32   C     C_R   0.499965 0.502607 0.378791 0.945055
C33   C     C_R   0.499998 0.084415 0.500036 0.786638
C34   C     C_R   0.500001 0.915580 0.499960 0.787059
C35   C     C_R   0.000001 0.584420 0.500048 0.786828
C36   C     C_R   0.999992 0.415583 0.499944 0.786340
C37   C     C_R   0.584406 0.999999 0.584446 0.787278
C38   C     C_R   0.415594 0.999999 0.415554 0.787329
C39   C     C_R   0.084406 0.500001 0.584446 0.787058
C40   C     C_R   0.915594 0.500001 0.415554 0.786847
C41   C     C_1   0.999998 0.863317 0.500470 0.000359
C42   C     C_1   0.999870 0.136712 0.498998 -0.072709
C43   C     C_1   0.499968 0.363260 0.499883 -0.106621
C44   C     C_1   0.500022 0.636681 0.499979 -0.011412
C45   C     C_R   0.001911 0.999791 0.881065 0.886501
C46   C     C_R   0.998644 0.999900 0.119553 0.889683
C47   C     C_R   0.501811 0.500153 0.880956 0.888068
C48   C     C_R   0.498281 0.500209 0.119136 0.888884
C49   C     C_1   0.000005 0.820926 0.500557 0.061921
C50   C     C_1   0.999869 0.179099 0.499123 0.053552
C51   C     C_1   0.499960 0.320877 0.499877 0.100691
C52   C     C_1   0.500030 0.679070 0.499945 0.091676
C53   C     C_1   0.000007 0.770665 0.500501 0.044811
C54   C     C_1   0.999888 0.229353 0.499289 0.051413
C55   C     C_1   0.499963 0.270627 0.499930 0.065762
C56   C     C_1   0.500030 0.729333 0.499908 0.059789
C57   C     C_1   0.499970 0.228232 0.499991 0.044689
C58   C     C_1   0.500025 0.771735 0.499887 0.047345
C59   C     C_1   0.000006 0.728264 0.500408 0.045104
C60   C     C_1   0.999911 0.271752 0.499445 0.043926
C61   C     C_1   0.499981 0.177966 0.500059 0.034388
C62   C     C_1   0.500017 0.822011 0.499877 0.034617
C63   C     C_1   0.000005 0.677988 0.500278 0.033126
C64   C     C_1   0.999941 0.322022 0.499638 0.032359
C65   C     C_1   0.499989 0.135567 0.500086 -0.156525
C66   C     C_1   0.500009 0.864417 0.499891 -0.156154
C67   C     C_1   0.000003 0.635582 0.500167 -0.156444
C68   C     C_1   0.999967 0.364425 0.499793 -0.157048
C69   C     C_3   0.034985 0.959920 0.823290 -0.156010
C70   C     C_3   0.047894 0.981760 0.260058 -0.211497
C71   C     C_3   0.962794 0.962601 0.174083 -0.177618
C72   C     C_3   0.951510 0.985069 0.739448 -0.213422
C73   C     C_3   0.451343 0.514760 0.739283 -0.207678
C74   C     C_3   0.465410 0.540326 0.176887 -0.172029
C75   C     C_3   0.548714 0.515000 0.260978 -0.211457
C76   C     C_3   0.534814 0.540002 0.823243 -0.174985
C77   C     C_3   0.030646 0.951403 0.746174 0.554766
C78   C     C_3   0.054092 0.990614 0.338000 0.586136
C79   C     C_3   0.966449 0.953437 0.250208 0.544102
C80   C     C_3   0.945921 0.994365 0.662255 0.582650
C81   C     C_3   0.445715 0.505321 0.662025 0.557932
C82   C     C_3   0.469470 0.548710 0.253481 0.559856
C83   C     C_3   0.554254 0.505312 0.338091 0.579009
C84   C     C_3   0.530582 0.548467 0.746403 0.520149
C85   C     C_3   0.014680 0.045675 0.799746 -0.399067
C86   C     C_3   0.989421 0.046817 0.205102 -0.401122
C87   C     C_3   0.514351 0.454095 0.799286 -0.393437
C88   C     C_3   0.485632 0.454238 0.200590 -0.389362
C89   C     C_3   0.000951 0.998230 0.811665 -0.192211
C90   C     C_3   0.999511 0.998481 0.188906 -0.190601
C91   C     C_3   0.500799 0.501611 0.811515 -0.176881
C92   C     C_3   0.499269 0.501770 0.188528 -0.194910
C93   C     C_3   0.000248 0.996717 0.689807 -0.519363
C94   C     C_3   0.000005 0.996467 0.310564 -0.530584
C95   C     C_3   0.500111 0.503125 0.689681 -0.508929
C96   C     C_3   0.499816 0.503330 0.310218 -0.521528
C97   C     C_3   0.025051 0.044832 0.739969 0.561839
C98   C     C_3   0.979224 0.046346 0.265197 0.593672
C99   C     C_3   0.524672 0.454960 0.739458 0.570970
C100  C     C_3   0.475225 0.455195 0.260323 0.561438
C101  C     C_1   0.863317 0.999989 0.864063 -0.179770
C102  C     C_1   0.136683 0.000013 0.136035 -0.180155
C103  C     C_1   0.363317 0.499987 0.864059 -0.178987
C104  C     C_1   0.636683 0.500012 0.135956 -0.179867
Cu1   Cu    Cu3+1 0.000000 0.957500 0.000000 1.006163
Cu2   Cu    Cu3+1 1.000000 0.042500 0.000000 1.014086
Cu3   Cu    Cu3+1 0.500000 0.457500 0.000000 1.015104
Cu4   Cu    Cu3+1 0.500000 0.542500 0.000000 0.990664
Cu5   Cu    Cu3+1 0.957500 1.000000 0.457520 1.234673
Cu6   Cu    Cu3+1 0.042500 1.000000 0.542480 1.217415
Cu7   Cu    Cu3+1 0.457500 0.500000 0.457520 1.170739
Cu8   Cu    Cu3+1 0.542500 0.500000 0.542480 1.215244
Cu9   Cu    Cu3+1 0.499970 1.000000 0.437500 1.015638
Cu10  Cu    Cu3+1 0.500030 1.000000 0.562500 1.019396
Cu11  Cu    Cu3+1 0.999970 0.500000 0.437500 1.018345
Cu12  Cu    Cu3+1 0.000030 0.500000 0.562500 1.019648
H1    H     H_    0.021088 0.929082 0.832047 0.222097
H2    H     H_    0.048114 0.945017 0.252541 0.237295
H3    H     H_    0.974519 0.930986 0.162755 0.220021
H4    H     H_    0.948714 0.948427 0.744128 0.235924
H5    H     H_    0.448555 0.551451 0.743949 0.230817
H6    H     H_    0.479927 0.570942 0.168910 0.225156
H7    H     H_    0.551538 0.551752 0.256812 0.235183
H8    H     H_    0.520613 0.570700 0.831635 0.186785
H9    H     H_    0.043953 0.059183 0.855900 0.207677
H10   H     H_    0.018735 0.068698 0.223422 0.251127
H11   H     H_    0.961118 0.062578 0.150312 0.217079
H12   H     H_    0.986950 0.069508 0.783161 0.250771
H13   H     H_    0.486621 0.430284 0.782644 0.249012
H14   H     H_    0.456414 0.440652 0.144373 0.215206
H15   H     H_    0.513249 0.430313 0.217123 0.249525
H16   H     H_    0.543575 0.440499 0.855385 0.214324
O1    O     O_R   0.938020 0.964110 0.938040 -0.561060
O2    O     O_R   0.061980 0.035890 0.061960 -0.554305
O3    O     O_R   0.061980 0.964110 0.061960 -0.564394
O4    O     O_R   0.938020 0.035890 0.938040 -0.554992
O5    O     O_R   0.438020 0.464110 0.938040 -0.553753
O6    O     O_R   0.561980 0.535890 0.061960 -0.565099
O7    O     O_R   0.561980 0.464110 0.061960 -0.553777
O8    O     O_R   0.438020 0.535890 0.938040 -0.563855
O9    O     O_R   0.999990 0.964110 0.908840 -0.585641
O10   O     O_R   0.000010 0.035890 0.091160 -0.578992
O11   O     O_R   0.000010 0.964110 0.091160 -0.583640
O12   O     O_R   0.999990 0.035890 0.908840 -0.577541
O13   O     O_R   0.499990 0.464110 0.908840 -0.577981
O14   O     O_R   0.500010 0.535890 0.091160 -0.585373
O15   O     O_R   0.500010 0.464110 0.091160 -0.577628
O16   O     O_R   0.499990 0.535890 0.908840 -0.589535
O17   O     O_R   0.964100 0.938030 0.464100 -0.545301
O18   O     O_R   0.035900 0.061970 0.535900 -0.565006
O19   O     O_R   0.035900 0.938030 0.535900 -0.545825
O20   O     O_R   0.964100 0.061970 0.464100 -0.525683
O21   O     O_R   0.464100 0.438030 0.464100 -0.556197
O22   O     O_R   0.535900 0.561970 0.535900 -0.544598
O23   O     O_R   0.535900 0.438030 0.535900 -0.547905
O24   O     O_R   0.464100 0.561970 0.464100 -0.548909
O25   O     O_R   0.964110 1.000000 0.555280 -0.513908
O26   O     O_R   0.035890 1.000000 0.444720 -0.512294
O27   O     O_R   0.464110 0.500000 0.555280 -0.547172
O28   O     O_R   0.535890 0.500000 0.444720 -0.505629
O29   O     O_R   0.035850 0.000000 0.627010 -0.525513
O30   O     O_R   0.964150 1.000000 0.372990 -0.519784
O31   O     O_R   0.535850 0.500000 0.627010 -0.520921
O32   O     O_R   0.464150 0.500000 0.372990 -0.530375
O33   O     O_R   0.499940 0.061950 0.447200 -0.550063
O34   O     O_R   0.500060 0.938050 0.552800 -0.548680
O35   O     O_R   0.500060 0.061950 0.552800 -0.550070
O36   O     O_R   0.499940 0.938050 0.447200 -0.551350
O37   O     O_R   0.999940 0.561950 0.447200 -0.549559
O38   O     O_R   0.000060 0.438050 0.552800 -0.549001
O39   O     O_R   0.000060 0.561950 0.552800 -0.550172
O40   O     O_R   0.999940 0.438050 0.447200 -0.551187
O41   O     O_R   0.561950 1.000000 0.509180 -0.550364
O42   O     O_R   0.438050 0.000000 0.490820 -0.549537
O43   O     O_R   0.061950 0.500000 0.509180 -0.549565
O44   O     O_R   0.938050 0.500000 0.490820 -0.549493
O45   O     O_R   0.561950 1.000000 0.614710 -0.550152
O46   O     O_R   0.438050 1.000000 0.385290 -0.551258
O47   O     O_R   0.061950 0.500000 0.614710 -0.550393
O48   O     O_R   0.938050 0.500000 0.385290 -0.550705
C105  C     C_3   0.081906 0.961400 0.903577 -0.605257
H17   H     H_    0.080989 0.940466 0.945261 0.194910
H18   H     H_    0.110508 0.947595 0.905792 0.306162
H19   H     H_    0.090199 0.996108 0.928445 0.224277
C106  C     C_3   0.087961 0.995403 0.257249 -0.653206
H20   H     H_    0.083235 0.981071 0.205895 0.190673
H21   H     H_    0.091352 0.032774 0.255890 0.266911
H22   H     H_    0.120208 0.979522 0.304801 0.283515
C107  C     C_3   0.915793 0.967478 0.094325 -0.609298
H23   H     H_    0.913963 0.944741 0.051565 0.197580
H24   H     H_    0.886192 0.958320 0.092863 0.304093
H25   H     H_    0.910809 0.002179 0.070563 0.219740
C108  C     C_3   0.912490 0.001328 0.743420 -0.646769
H26   H     H_    0.916147 0.986235 0.793384 0.187707
H27   H     H_    0.911937 0.038789 0.748427 0.268702
H28   H     H_    0.879137 0.988127 0.694361 0.281895
C109  C     C_3   0.412343 0.498507 0.743233 -0.648258
H29   H     H_    0.416025 0.513612 0.793274 0.186818
H30   H     H_    0.378988 0.511680 0.694205 0.283257
H31   H     H_    0.411786 0.461039 0.748052 0.268748
C110  C     C_3   0.418239 0.540048 0.096740 -0.593121
H32   H     H_    0.418143 0.564063 0.057091 0.201047
H33   H     H_    0.410658 0.506386 0.068408 0.214622
H34   H     H_    0.389453 0.550704 0.096819 0.303207
C111  C     C_3   0.587735 0.498937 0.256919 -0.647413
H35   H     H_    0.584007 0.514110 0.206939 0.187582
H36   H     H_    0.621063 0.512179 0.306013 0.283664
H37   H     H_    0.588359 0.461468 0.251924 0.268583
C112  C     C_3   0.581927 0.539013 0.903474 -0.621151
H38   H     H_    0.581814 0.561985 0.944119 0.192515
H39   H     H_    0.589579 0.504869 0.930159 0.222756
H40   H     H_    0.610815 0.550410 0.904421 0.303998
S1    S     S_3+6 0.006764 0.891856 0.718459 0.063496
O49   O     O_2   0.963538 0.883370 0.709545 -0.269210
O50   O     O_2   0.001482 0.873756 0.648865 -0.232350
O51   O     O_3   0.044671 0.857506 0.791394 -0.478258
H41   H     H_    0.033941 0.826139 0.772244 0.387498
S2    S     S_3+6 0.087881 0.943909 0.408467 0.103330
O52   O     O_2   0.060963 0.916165 0.425996 -0.261553
O53   O     O_2   0.108541 0.913541 0.380914 -0.248083
O54   O     O_3   0.132034 0.963023 0.495118 -0.429107
H42   H     H_    0.148584 0.935370 0.525049 0.373380
S3    S     S_3+6 0.986267 0.892355 0.273649 0.072736
O55   O     O_2   0.951090 0.863753 0.206091 -0.229830
O56   O     O_2   0.029558 0.881380 0.284176 -0.262821
O57   O     O_3   0.989670 0.871507 0.348975 -0.475226
H43   H     H_    0.993114 0.838176 0.347356 0.380402
S4    S     S_3+6 0.908753 0.949962 0.588534 0.106536
O58   O     O_2   0.933052 0.920425 0.567651 -0.250750
O59   O     O_2   0.886462 0.920955 0.614545 -0.248743
O60   O     O_3   0.865757 0.972212 0.503753 -0.429602
H44   H     H_    0.846751 0.945894 0.472288 0.374076
S5    S     S_3+6 0.408099 0.549444 0.588120 0.122741
O61   O     O_2   0.385975 0.578493 0.614455 -0.203557
O62   O     O_2   0.432010 0.579384 0.566991 -0.260925
O63   O     O_3   0.364396 0.527251 0.503599 -0.410159
H45   H     H_    0.374756 0.526066 0.470635 0.365402
S6    S     S_3+6 0.493607 0.608086 0.282132 0.055518
O64   O     O_2   0.495146 0.626663 0.348083 -0.242876
O65   O     O_2   0.538659 0.616013 0.297366 -0.271584
O66   O     O_3   0.458443 0.642542 0.207178 -0.482345
H46   H     H_    0.468480 0.673892 0.227188 0.387601
S7    S     S_3+6 0.591887 0.549267 0.412954 0.106754
O67   O     O_2   0.629605 0.528330 0.488090 -0.186671
O68   O     O_2   0.614981 0.577730 0.387833 -0.247694
O69   O     O_3   0.565665 0.582937 0.437582 -0.496248
H47   H     H_    0.588593 0.606115 0.472313 0.384959
S8    S     S_3+6 0.506493 0.607904 0.717881 0.082845
O70   O     O_2   0.501257 0.625006 0.647950 -0.190391
O71   O     O_2   0.462856 0.616344 0.707704 -0.282106
O72   O     O_3   0.543832 0.643799 0.788954 -0.438073
H48   H     H_    0.533975 0.647057 0.822426 0.347259
S9    S     S_3+6 0.084737 0.937510 0.756626 0.109961
O73   O     O_2   0.113052 0.904243 0.820897 -0.239182
O74   O     O_2   0.071777 0.913596 0.685141 -0.258691
O75   O     O_3   0.120943 0.977068 0.767853 -0.428835
H49   H     H_    0.146221 0.960140 0.773451 0.371217
S10   S     S_3+6 0.096899 0.037348 0.391140 0.090886
O76   O     O_2   0.105345 0.047714 0.466326 -0.167243
O77   O     O_2   0.142278 0.021303 0.412833 -0.247158
O78   O     O_3   0.086994 0.085548 0.342615 -0.519933
H50   H     H_    0.112823 0.105849 0.378890 0.396902
S11   S     S_3+6 0.911036 0.942856 0.237102 0.107667
O79   O     O_2   0.882531 0.909427 0.172934 -0.242056
O80   O     O_2   0.922103 0.920266 0.308255 -0.245714
O81   O     O_3   0.874907 0.983977 0.221373 -0.422645
H51   H     H_    0.849573 0.968423 0.217520 0.373560
S12   S     S_3+6 0.906584 0.043944 0.612833 0.091512
O82   O     O_2   0.899890 0.055553 0.539485 -0.167928
O83   O     O_2   0.859930 0.030779 0.588566 -0.245747
O84   O     O_3   0.918975 0.090816 0.665558 -0.520747
H52   H     H_    0.894633 0.112853 0.630813 0.397956
S13   S     S_3+6 0.406659 0.455464 0.612839 0.078468
O85   O     O_2   0.359997 0.468227 0.588976 -0.234356
O86   O     O_2   0.399830 0.443952 0.539303 -0.202573
O87   O     O_3   0.419459 0.408538 0.665424 -0.517894
H53   H     H_    0.395286 0.386334 0.630634 0.399204
S14   S     S_3+6 0.414748 0.562956 0.240698 0.105991
O88   O     O_2   0.426964 0.581553 0.315118 -0.259664
O89   O     O_2   0.390706 0.600724 0.183211 -0.232951
O90   O     O_3   0.373604 0.525449 0.214581 -0.418710
H54   H     H_    0.350169 0.542531 0.214418 0.374330
S15   S     S_3+6 0.593074 0.455052 0.386310 0.086918
O91   O     O_2   0.639681 0.467659 0.409793 -0.247590
O92   O     O_2   0.600362 0.443635 0.460222 -0.177817
O93   O     O_3   0.579834 0.408083 0.333388 -0.522032
H55   H     H_    0.603952 0.385798 0.367889 0.398540
S16   S     S_3+6 0.585001 0.562562 0.758021 0.111458
O94   O     O_2   0.572266 0.584705 0.685505 -0.257460
O95   O     O_2   0.611711 0.597457 0.820296 -0.236919
O96   O     O_3   0.623291 0.523794 0.774763 -0.414862
H56   H     H_    0.647687 0.541013 0.778020 0.375198
S17   S     S_3+6 0.087311 0.054374 0.796598 0.076222
O97   O     O_2   0.101418 0.058093 0.744430 -0.215979
O98   O     O_2   0.096874 0.099811 0.835724 -0.227376
O99   O     O_3   0.122874 0.018938 0.868157 -0.528157
H57   H     H_    0.153360 0.033179 0.895291 0.388743
S18   S     S_3+6 0.000873 0.099343 0.325008 0.078223
O100  O     O_2   0.037132 0.091741 0.407936 -0.273180
O101  O     O_2   0.017279 0.132597 0.293815 -0.243921
O102  O     O_3   0.960620 0.127695 0.324742 -0.473378
H58   H     H_    0.971791 0.159420 0.339216 0.367503
S19   S     S_3+6 0.918246 0.060325 0.210061 0.086619
O103  O     O_2   0.886188 0.031589 0.141586 -0.283293
O104  O     O_2   0.903420 0.062193 0.261418 -0.183177
O105  O     O_3   0.911422 0.112997 0.173875 -0.480964
H59   H     H_    0.880202 0.122252 0.154516 0.385797
S20   S     S_3+6 0.006852 0.099691 0.685085 0.093005
O106  O     O_2   0.971655 0.094158 0.601070 -0.303770
O107  O     O_2   0.990154 0.132800 0.715971 -0.198236
O108  O     O_3   0.049299 0.128479 0.692568 -0.420055
H60   H     H_    0.049948 0.117523 0.650248 0.346270
S21   S     S_3+6 0.507055 0.400120 0.684707 0.096039
O109  O     O_2   0.491042 0.366666 0.716152 -0.192698
O110  O     O_2   0.471504 0.405276 0.600779 -0.294032
O111  O     O_3   0.549748 0.372197 0.691632 -0.434147
H61   H     H_    0.550909 0.384439 0.650545 0.348587
S22   S     S_3+6 0.413283 0.445797 0.202967 0.072201
O112  O     O_2   0.397306 0.445938 0.252683 -0.230779
O113  O     O_2   0.384100 0.476250 0.135744 -0.279503
O114  O     O_3   0.402738 0.393518 0.163519 -0.461550
H62   H     H_    0.370663 0.386925 0.142357 0.388945
S23   S     S_3+6 0.492572 0.400593 0.315353 0.094775
O115  O     O_2   0.507807 0.366579 0.283247 -0.190420
O116  O     O_2   0.528540 0.405680 0.399134 -0.296423
O117  O     O_3   0.449852 0.373667 0.309628 -0.435315
H63   H     H_    0.448151 0.387660 0.349175 0.349265
S24   S     S_3+6 0.586641 0.445603 0.796340 0.073101
O118  O     O_2   0.601940 0.443380 0.745709 -0.226944
O119  O     O_2   0.616332 0.477543 0.861183 -0.276830
O120  O     O_3   0.597403 0.394327 0.838736 -0.468447
H64   H     H_    0.629390 0.387381 0.859734 0.388640

loop_
_geom_bond_atom_site_label_1
_geom_bond_atom_site_label_2
_ccdc_geom_bond_type
C87   C91   S    
S3    O55   D    
S3    O57   S    
S19   O104  D    
O102  H58   S    
C2    O2    A    
C81   C95   S    
C95   C99   S    
S1    O51   S    
O84   H52   S    
C22   C38   S    
S13   O87   S    
C35   O39   A    
C74   C92   S    
C109  H30   S    
C9    C13   T    
C70   C106  S    
C40   O48   A    
C11   C15   T    
C12   C16   T    
Cu8   O23   S    
O117  H63   S    
C1    O4    A    
S20   O108  S    
C84   S16   S    
C73   C81   S    
S4    O58   D    
S8    O71   D    
Cu2   O10   S    
Cu4   O14   S    
C105  H18   S    
S6    O65   D    
S23   O115  D    
S16   O96   S    
S11   O79   D    
C86   C90   S    
C25   C41   S    
Cu6   O18   S    
C105  H17   S    
C28   C44   S    
C17   C21   T    
Cu12  O39   S    
O111  H61   S    
C19   C23   T    
S19   O103  D    
C16   C20   S    
O105  H59   S    
C8    C104  T    
O99   H57   S    
S12   O83   D    
C73   H5    S    
C55   C57   T    
C81   S5    S    
S18   O100  D    
C30   O30   A    
C1    C101  S    
Cu1   O1    S    
C3    C103  S    
S11   O80   D    
C97   S20   S    
Cu8   O28   S    
S22   O114  S    
C36   O38   A    
Cu11  O40   S    
S21   O111  S    
C36   C68   S    
C57   C61   S    
C74   C110  S    
C59   C63   S    
C71   H3    S    
C60   C64   S    
C30   C94   S    
C75   C111  S    
C78   C94   S    
C49   C53   S    
C4    C104  S    
C51   C55   S    
C6    C102  T    
C85   C97   S    
C61   C65   T    
Cu10  O42   S    
O114  H62   S    
C100  S23   S    
C80   C93   S    
S4    O60   S    
C69   C105  S    
Cu4   O16   S    
Cu4   O6    S    
C86   H10   S    
C69   C77   S    
Cu7   Cu8   S    
Cu5   O25   S    
C34   C66   S    
Cu9   O36   S    
C71   C79   S    
C106  H20   S    
Cu10  O35   S    
O54   H42   S    
C64   C68   T    
O78   H50   S    
S21   O110  D    
C2    C102  S    
Cu11  Cu12  S    
O63   H45   S    
C25   O17   A    
O66   H46   S    
C107  H24   S    
S22   O113  D    
C45   O12   A    
Cu3   Cu4   S    
S5    O61   D    
Cu1   O3    S    
C108  H28   S    
Cu2   O4    S    
Cu8   O22   S    
S15   O93   S    
C110  H33   S    
C82   S14   S    
C1    O1    A    
S20   O107  D    
C111  H36   S    
C36   O40   A    
C62   C66   T    
C76   H8    S    
C77   S9    S    
C79   C94   S    
C39   O43   A    
C10   C14   T    
C40   O44   A    
S23   O116  D    
C84   C95   S    
S16   O95   D    
C5    C9    S    
S17   O97   D    
S2    O53   D    
C35   C67   S    
C8    C12   S    
S7    O69   S    
C72   H4    S    
C38   O42   A    
C112  H38   S    
Cu12  O38   S    
Cu7   O21   S    
C42   C50   T    
C108  H26   S    
C93   C97   S    
C26   C42   S    
S2    O54   S    
O69   H47   S    
C18   C22   T    
C33   O33   A    
Cu7   O32   S    
S24   O118  D    
S9    O75   S    
C39   O47   A    
S3    O56   D    
C79   S3    S    
C69   C89   S    
C37   O45   A    
C2    O3    A    
C13   C17   S    
C25   O19   A    
C87   H13   S    
C26   O20   A    
S10   O76   D    
C72   C80   S    
C4    O7    A    
C71   C90   S    
C70   H2    S    
C83   C96   S    
C32   O32   A    
S13   O86   D    
C56   C58   T    
Cu3   O7    S    
C109  H29   S    
S5    O63   S    
C76   C91   S    
Cu2   O2    S    
O87   H53   S    
O57   H43   S    
C48   C92   S    
S15   O91   D    
S14   O88   D    
C85   H12   S    
C88   H15   S    
C58   C62   S    
C47   O13   A    
C79   S11   S    
C76   C84   S    
C106  H21   S    
S4    O59   D    
C77   S1    S    
O72   H48   S    
C46   O10   A    
S1    O49   D    
C15   C19   S    
S6    O66   S    
C50   C54   S    
C97   S17   S    
S17   O99   S    
Cu5   O30   S    
C31   O31   A    
Cu9   O33   S    
S15   O92   D    
C94   C98   S    
S7    O67   D    
C48   O15   A    
C83   S7    S    
C112  H40   S    
C41   C49   T    
Cu7   O27   S    
C75   C83   S    
S14   O90   S    
C3    O5    A    
C45   C89   S    
Cu11  O48   S    
Cu6   O26   S    
S1    O50   D    
Cu9   O46   S    
C80   S12   S    
C45   O9    A    
C33   O35   A    
S18   O101  D    
C74   C82   S    
S24   O120  S    
C34   O36   A    
S19   O105  S    
C5    C101  T    
C27   O23   A    
C99   S21   S    
Cu5   O20   S    
Cu6   O19   S    
C72   C108  S    
C85   C89   S    
C29   O25   A    
S18   O102  S    
Cu3   O5    S    
C109  H31   S    
O120  H64   S    
Cu3   O15   S    
Cu4   O8    S    
C26   O18   A    
C78   S10   S    
C88   C92   S    
C80   S4    S    
C98   S19   S    
C88   C100  S    
C74   H6    S    
C35   O37   A    
S8    O70   D    
Cu9   Cu10  S    
C105  H19   S    
Cu8   O31   S    
S6    O64   D    
C86   H11   S    
C47   C91   S    
C6    C10   S    
C46   C90   S    
Cu1   Cu2   S    
C84   S8    S    
Cu5   Cu6   S    
C78   S2    S    
C29   C93   S    
C43   C51   T    
S21   O109  D    
S9    O73   D    
C31   C95   S    
C77   C93   S    
C81   S13   S    
C107  H23   S    
C86   C98   S    
C83   S15   S    
C4    O6    A    
C27   C43   S    
C21   C37   S    
S12   O82   D    
Cu12  O47   S    
C34   O34   A    
C100  S22   S    
C99   S24   S    
C27   O21   A    
S11   O81   S    
O108  H60   S    
C38   O46   A    
C70   C78   S    
C110  H32   S    
C14   C18   S    
C85   H9    S    
C88   H14   S    
Cu11  O37   S    
C53   C59   T    
C33   C65   S    
C54   C60   T    
C111  H35   S    
C7    C11   S    
C75   H7    S    
Cu1   O9    S    
O93   H55   S    
Cu3   O13   S    
C96   C100  S    
C24   C40   S    
C20   C24   T    
S7    O68   D    
C48   O14   A    
Cu11  O43   S    
Cu7   O24   S    
S8    O72   S    
O96   H56   S    
C28   O22   A    
C70   C90   S    
Cu6   O29   S    
Cu10  O34   S    
C87   C99   S    
C63   C67   T    
C82   C96   S    
Cu12  O44   S    
C29   O29   A    
O51   H41   S    
C73   C91   S    
S24   O119  D    
S9    O74   D    
C106  H22   S    
C108  H27   S    
O90   H54   S    
C71   C107  S    
C73   C109  S    
C87   H16   S    
C107  H25   S    
Cu5   O17   S    
S22   O112  D    
S12   O84   S    
Cu10  O45   S    
O75   H49   S    
S13   O85   D    
S5    O62   D    
C75   C92   S    
C32   C96   S    
C110  H34   S    
S14   O89   D    
S10   O78   S    
C98   S18   S    
S10   O77   D    
S20   O106  D    
Cu9   O41   S    
C111  H37   S    
C30   O26   A    
C47   O16   A    
Cu1   O11   S    
Cu2   O12   S    
C46   O11   A    
S23   O117  S    
S16   O94   D    
S17   O98   D    
C72   C89   S    
C44   C52   T    
S2    O52   D    
C76   C112  S    
C23   C39   S    
C82   S6    S    
C69   H1    S    
C112  H39   S    
O81   H51   S    
C37   O41   A    
O60   H44   S    
C28   O24   A    
C7    C103  T    
C3    O8    A    
C31   O27   A    
C52   C56   S    
C32   O28   A    
