data_mof_unit_38282.cif
_audit_creation_date              2012-12-11T14:11:00-0500
_audit_creation_method            fapswitch 2.2
_symmetry_space_group_name_H-M    P1
_symmetry_Int_Tables_number       1
_space_group_crystal_system       triclinic
_cell_length_a                    19.932329
_cell_length_b                    17.427983
_cell_length_c                    15.509779
_cell_angle_alpha                 90.177232
_cell_angle_beta                  52.473599
_cell_angle_gamma                 90.460625
_cell_volume                      4272.76151088

loop_
_atom_site_label
_atom_site_type_symbol
_atom_type_description
_atom_site_fract_x
_atom_site_fract_y
_atom_site_fract_z
_atom_type_partial_charge
C1    C     C_R   0.356717 0.187954 0.021436 -0.192638
C2    C     C_3   0.676614 0.734187 0.450112 0.344286
C3    C     C_3   0.132283 0.964234 0.509728 -0.027546
C4    C     C_3   0.616977 0.558929 0.680646 -0.105751
C5    C     C_3   0.405343 0.440471 0.345397 -0.144456
C6    C     C_3   0.259432 0.603242 0.366396 -0.016314
C7    C     C_3   0.707670 0.393787 0.484422 0.074223
C8    C     C_3   0.370050 0.164145 0.600354 -0.010849
C9    C     C_3   0.582827 0.785167 0.425010 -0.077567
C10   C     C_3   0.743102 0.185187 0.308818 -0.136828
C11   C     C_3   0.288393 0.790574 0.652158 -0.091190
C12   C     C_3   0.812783 0.645053 0.603442 -0.091496
C13   C     C_3   0.794779 0.192227 0.410060 0.304138
C14   C     C_3   0.212418 0.379436 0.374259 -0.071607
C15   C     C_3   0.135728 0.792051 0.343962 -0.200032
C16   C     C_3   0.844605 0.243186 0.674331 -0.153329
C17   C     C_3   0.215904 0.802070 0.579141 0.472757
C18   C     C_3   0.728120 0.709950 0.572551 0.337751
C19   C     C_3   0.277474 0.297683 0.420063 0.387989
C20   C     C_3   0.183862 0.757148 0.441913 0.292799
C21   C     C_3   0.806667 0.253149 0.560342 0.434657
C22   C     C_2   0.271980 0.701914 0.966968 0.394512
C23   C     C_2   0.727551 0.297729 0.034563 0.400037
C24   C     C_2   0.768515 0.724727 0.964796 0.403895
C25   C     C_R   0.627838 0.805140 0.998351 -0.113703
C26   C     C_2   0.203058 0.258312 0.065739 0.324092
C27   C     C_2   0.745487 0.222050 0.015722 0.396806
C28   C     C_2   0.254371 0.777664 0.985475 0.412089
C29   C     C_2   0.266146 0.224783 0.971991 0.400028
C30   C     C_2   0.707870 0.759617 0.058984 0.310432
C31   C     C_R   0.348932 0.828926 0.221660 -0.234965
C32   C     C_R   0.646533 0.176213 0.777901 -0.174888
C33   C     C_R   0.609004 0.803415 0.787235 -0.151182
C34   C     C_R   0.389439 0.196095 0.212453 -0.176131
C35   C     C_R   0.899177 0.301213 0.207396 -0.278900
C36   C     C_R   0.645138 0.187858 0.977132 -0.191219
C37   C     C_R   0.105424 0.697717 0.788602 -0.226822
C38   C     C_R   0.149635 0.328143 0.779572 -0.232160
C39   C     C_R   0.848975 0.670714 0.222108 -0.158390
C40   C     C_R   0.345078 0.896788 0.925608 0.455925
C41   C     C_R   0.654349 0.103144 0.075332 0.471170
C42   C     C_R   0.638087 0.889445 0.096756 0.523501
C43   C     C_R   0.350571 0.104269 0.918027 0.520118
C44   C     C_R   0.832601 0.406930 0.947136 0.473760
C45   C     C_R   0.166904 0.592834 0.053667 0.512615
C46   C     C_R   0.136881 0.389417 0.098429 0.497170
C47   C     C_R   0.355966 0.811538 0.021561 -0.186317
C48   C     C_R   0.853713 0.604705 0.913155 0.506138
C49   C     C_R   0.401915 0.108554 0.306234 0.583771
C50   C     C_R   0.594219 0.890634 0.695749 0.645281
C51   C     C_R   0.644106 0.079910 0.684658 0.472760
C52   C     C_R   0.356222 0.920451 0.316098 0.514683
C53   C     C_R   0.857703 0.580830 0.316857 0.462239
C54   C     C_R   0.140581 0.417051 0.683027 0.516506
C55   C     C_R   0.094647 0.608211 0.695175 0.621630
C56   C     C_R   0.909075 0.389726 0.301865 0.550735
C57   C     C_R   0.317868 0.171296 0.975347 -0.161080
C58   C     C_R   0.862824 0.691020 0.010627 -0.203865
C59   C     C_R   0.660123 0.816588 0.053302 -0.043082
C60   C     C_R   0.687117 0.170944 0.018555 -0.081580
C61   C     C_R   0.313110 0.828676 0.981672 -0.088582
C62   C     C_R   0.824080 0.673804 0.964488 -0.142408
C63   C     C_R   0.157474 0.316028 0.057314 -0.040322
C64   C     C_R   0.209682 0.651230 0.978002 -0.108615
C65   C     C_R   0.789674 0.348969 0.023581 -0.106683
C66   C     C_R   0.305965 0.863202 0.322171 0.090426
C67   C     C_R   0.690445 0.142556 0.676966 0.097448
C68   C     C_R   0.620795 0.817861 0.691658 0.063458
C69   C     C_R   0.126038 0.304509 0.001552 -0.109588
C70   C     C_R   0.375569 0.181161 0.308729 0.117241
C71   C     C_R   0.890328 0.314238 0.300504 0.095736
C72   C     C_R   0.117124 0.683495 0.693092 0.056987
C73   C     C_R   0.189059 0.358314 0.677008 0.183178
C74   C     C_R   0.806991 0.637712 0.324197 0.156783
C75   C     C_3   0.266458 0.198929 0.514531 0.365821
C76   C     C_3   0.714893 0.796183 0.480053 0.377702
C77   C     C_3   0.827540 0.151342 0.466866 0.416960
C78   C     C_3   0.177995 0.852072 0.537438 0.495485
C79   C     C_3   0.689374 0.648888 0.542584 0.437815
C80   C     C_R   0.161842 0.671851 0.945776 -0.122178
C81   C     C_3   0.313522 0.346634 0.466572 0.416623
C82   C     C_3   0.222693 0.705905 0.483223 0.300053
C83   C     C_3   0.775496 0.294196 0.503271 0.464974
C84   C     C_3   0.619178 0.704332 0.568672 0.336814
C85   C     C_3   0.372487 0.280958 0.447751 0.361984
C86   C     C_3   0.282509 0.771397 0.464045 0.392047
C87   C     C_3   0.720100 0.224826 0.520992 0.306343
C88   C     C_3   0.207932 0.263714 0.532293 0.364401
C89   C     C_3   0.783949 0.741712 0.456540 0.325990
C90   C     C_3   0.882023 0.221829 0.449815 0.349441
C91   C     C_R   0.837898 0.328672 0.055206 -0.133472
C92   C     C_3   0.116814 0.786109 0.559548 0.341576
C93   C     C_3   0.657637 0.766152 0.599681 -0.373715
C94   C     C_3   0.336666 0.231902 0.400558 -0.389483
C95   C     C_3   0.245055 0.822222 0.421697 -0.405204
C96   C     C_3   0.751830 0.183795 0.577724 -0.425561
C97   C     C_3   0.243341 0.313579 0.579989 -0.387872
C98   C     C_3   0.746861 0.679316 0.424469 -0.304646
C99   C     C_3   0.851052 0.261932 0.391537 -0.412598
C100  C     C_3   0.155331 0.736198 0.601131 -0.415376
C101  C     C_3   0.477071 0.733339 0.696074 -0.181313
C102  C     C_3   0.302723 0.247826 0.560963 0.366261
C103  C     C_3   0.515841 0.270752 0.305290 -0.195384
C104  C     C_3   0.413702 0.712687 0.344339 -0.173606
C105  C     C_3   0.589472 0.178571 0.570071 -0.161092
C106  C     C_3   0.062289 0.249806 0.673116 -0.178520
C107  C     C_3   0.888319 0.816779 0.437841 -0.161764
C108  C     C_3   0.007589 0.280319 0.391752 -0.032976
C109  C     C_3   0.986828 0.736873 0.620001 -0.195368
C110  C     C_3   0.184310 0.101902 0.640173 -0.021995
C111  C     C_3   0.774531 0.884949 0.340451 -0.120484
C112  C     C_3   0.917188 0.057272 0.344806 -0.039728
H1    H     H_    0.354218 0.240949 0.059705 0.164271
H2    H     H_    0.659601 0.231347 0.796187 0.173338
H3    H     H_    0.073593 0.811505 0.417137 0.150286
H4    H     H_    0.125662 0.770386 0.285273 0.180290
H5    H     H_    0.914500 0.243268 0.613860 0.163214
H6    H     H_    0.820083 0.183253 0.691032 0.132784
H7    H     H_    0.828924 0.266530 0.751252 0.167615
H8    H     H_    0.348082 0.616564 0.926378 0.341569
H9    H     H_    0.651088 0.382619 0.074682 0.333546
H10   H     H_    0.827180 0.711155 0.809657 0.349199
H11   H     H_    0.190693 0.184204 0.168877 0.332271
H12   H     H_    0.824602 0.137898 0.969679 0.339775
H13   H     H_    0.611904 0.748410 0.816786 0.171488
H14   H     H_    0.175221 0.861976 0.032324 0.339264
H15   H     H_    0.343679 0.228014 0.813486 0.355443
H16   H     H_    0.698825 0.687015 0.161159 0.334279
H17   H     H_    0.388253 0.251047 0.181527 0.179610
H18   H     H_    0.902111 0.246021 0.173509 0.184940
H19   H     H_    0.105733 0.753308 0.819411 0.190414
H20   H     H_    0.166928 0.277202 0.800906 0.197300
H21   H     H_    0.830399 0.721965 0.203167 0.155894
H22   H     H_    0.391749 0.941148 0.788090 0.309834
H23   H     H_    0.610563 0.050029 0.206887 0.343792
H24   H     H_    0.678508 0.884842 0.182079 0.348195
H25   H     H_    0.623410 0.751725 0.966257 0.150607
H26   H     H_    0.407293 0.063197 0.776211 0.279666
H27   H     H_    0.877457 0.429841 0.801184 0.310098
H28   H     H_    0.124201 0.556071 0.194244 0.340336
H29   H     H_    0.174063 0.384079 0.187064 0.342397
H30   H     H_    0.905855 0.551196 0.779818 0.328060
H31   H     H_    0.470266 0.046118 0.324990 0.290662
H32   H     H_    0.532914 0.961553 0.673433 0.306554
H33   H     H_    0.713673 0.048340 0.533773 0.370349
H34   H     H_    0.405114 0.937585 0.387909 0.329800
H35   H     H_    0.909564 0.560438 0.383604 0.308826
H36   H     H_    0.647025 0.241411 0.941334 0.186740
H37   H     H_    0.083985 0.443378 0.623794 0.327470
H38   H     H_    0.086535 0.613553 0.577395 0.327479
H39   H     H_    0.978845 0.455576 0.315507 0.314780
H40   H     H_    0.488251 0.790131 0.657184 0.149902
H41   H     H_    0.478446 0.737909 0.766353 0.181952
H42   H     H_    0.412614 0.714432 0.727349 0.165806
H43   H     H_    0.501880 0.293759 0.250965 0.156184
H44   H     H_    0.521117 0.207400 0.299530 0.172779
H45   H     H_    0.578385 0.293848 0.276406 0.172150
H46   H     H_    0.482297 0.722310 0.301794 0.170090
H47   H     H_    0.355770 0.757497 0.055136 0.184331
H48   H     H_    0.403996 0.711983 0.281180 0.123679
H49   H     H_    0.397007 0.656627 0.386862 0.184162
H50   H     H_    0.542937 0.161428 0.656480 0.144804
H51   H     H_    0.628426 0.128825 0.521037 0.164511
H52   H     H_    0.553009 0.195722 0.540817 0.146881
H53   H     H_    0.033419 0.307247 0.701970 0.135349
H54   H     H_    0.083416 0.228919 0.720342 0.111170
H55   H     H_    0.011703 0.210098 0.690186 0.160218
H56   H     H_    0.866666 0.802207 0.520869 0.170330
H57   H     H_    0.859550 0.871497 0.439348 0.181190
H58   H     H_    0.864292 0.746104 0.041670 0.154202
H59   H     H_    0.957694 0.826310 0.386631 0.135249
H60   H     H_    0.969118 0.323758 0.456525 0.166553
H61   H     H_    0.028113 0.301789 0.311816 0.189352
H62   H     H_    0.065262 0.270907 0.385775 0.182891
H63   H     H_    0.972360 0.700207 0.687793 0.164664
H64   H     H_    0.020565 0.703661 0.543206 0.149367
H65   H     H_    0.926552 0.755181 0.637505 0.174570
H66   H     H_    0.121640 0.102283 0.657286 0.127146
H67   H     H_    0.184046 0.140299 0.697781 0.089795
H68   H     H_    0.194836 0.042867 0.655921 0.211278
H69   H     H_    0.119791 0.250233 0.972897 0.138821
H70   H     H_    0.789038 0.946907 0.321832 0.164647
H71   H     H_    0.739258 0.866893 0.309557 0.164835
H72   H     H_    0.835763 0.854244 0.296357 0.134796
H73   H     H_    0.964443 0.104067 0.297888 0.153419
H74   H     H_    0.886254 0.042187 0.307058 0.151365
H75   H     H_    0.952223 0.005935 0.339114 0.116299
H76   H     H_    0.088082 0.928737 0.504974 0.116037
H77   H     H_    0.189609 0.978868 0.426891 0.119922
H78   H     H_    0.099495 0.018741 0.549938 0.151792
H79   H     H_    0.552925 0.561321 0.701734 0.176119
H80   H     H_    0.173748 0.718664 0.892685 0.156768
H81   H     H_    0.622212 0.600553 0.730887 0.131508
H82   H     H_    0.624645 0.500705 0.702103 0.173655
H83   H     H_    0.404474 0.410815 0.282410 0.120663
H84   H     H_    0.462342 0.424822 0.338236 0.174329
H85   H     H_    0.410342 0.502961 0.329314 0.141207
H86   H     H_    0.296807 0.644798 0.298206 0.110191
H87   H     H_    0.197629 0.590631 0.383568 0.168826
H88   H     H_    0.295887 0.549462 0.338573 0.121328
H89   H     H_    0.638481 0.393863 0.550686 0.158972
H90   H     H_    0.721615 0.357681 0.416210 0.043265
H91   H     H_    0.826187 0.282415 0.108583 0.148947
H92   H     H_    0.727447 0.452744 0.451608 0.182840
H93   H     H_    0.432271 0.177625 0.522057 0.156512
H94   H     H_    0.342868 0.111340 0.592364 0.178033
H95   H     H_    0.382104 0.151637 0.659675 0.147730
H96   H     H_    0.582164 0.837088 0.467454 0.158518
H97   H     H_    0.525904 0.748926 0.480750 0.157737
H98   H     H_    0.579597 0.805338 0.359924 0.187512
H99   H     H_    0.730996 0.247151 0.329066 0.120380
H100  H     H_    0.682630 0.153253 0.350325 0.156307
H101  H     H_    0.774354 0.178692 0.220906 0.173587
H102  H     H_    0.331971 0.775253 0.205196 0.159079
H103  H     H_    0.352709 0.812602 0.586508 0.177643
H104  H     H_    0.284340 0.727607 0.643280 0.117911
H105  H     H_    0.278244 0.799971 0.730091 0.149953
H106  H     H_    0.870541 0.658786 0.520441 0.149537
H107  H     H_    0.787724 0.587365 0.606073 0.216472
H108  H     H_    0.831668 0.642913 0.657437 0.157101
H109  H     H_    0.233271 0.430393 0.395077 0.186478
H110  H     H_    0.147102 0.362001 0.443212 0.178698
H111  H     H_    0.211218 0.396553 0.306530 0.136240
H112  H     H_    0.180090 0.841476 0.304942 0.132291
N1    N     N_R   0.408680 0.130810 0.995780 -0.055354
N2    N     N_R   0.578590 0.132790 0.846380 -0.069504
N3    N     N_R   0.578590 0.867210 0.846380 -0.078617
N4    N     N_R   0.421410 0.132790 0.153620 -0.080573
N5    N     N_R   0.921410 0.367210 0.153620 -0.076565
N6    N     N_R   0.078590 0.632790 0.846380 -0.079870
N7    N     N_R   0.078590 0.367210 0.846380 -0.079271
N8    N     N_R   0.921410 0.632790 0.153620 -0.065340
N9    N     N_R   0.403840 0.921910 0.935760 -0.118775
N10   N     N_R   0.596160 0.078090 0.064240 -0.111048
N11   N     N_R   0.596160 0.921910 0.064240 -0.089339
N12   N     N_R   0.591320 0.869190 0.004220 -0.069813
N13   N     N_R   0.403840 0.078090 0.935760 -0.114081
N14   N     N_R   0.903840 0.421910 0.935760 -0.120031
N15   N     N_R   0.096160 0.578090 0.064240 -0.113013
N16   N     N_R   0.096160 0.421910 0.064240 -0.094811
N17   N     N_R   0.903840 0.578090 0.935760 -0.111864
N18   N     N_R   0.426250 0.076100 0.213650 -0.141083
N19   N     N_R   0.573750 0.923900 0.786350 -0.123754
N20   N     N_R   0.573750 0.076100 0.786350 -0.105183
N21   N     N_R   0.426250 0.923900 0.213650 -0.122179
N22   N     N_R   0.926250 0.576100 0.213650 -0.124299
N23   N     N_R   0.591320 0.130810 0.004220 -0.063847
N24   N     N_R   0.073750 0.423900 0.786350 -0.133472
N25   N     N_R   0.073750 0.576100 0.786350 -0.099963
N26   N     N_R   0.926250 0.423900 0.213650 -0.130492
N27   N     N_R   0.408680 0.869190 0.995780 -0.066160
N28   N     N_R   0.908680 0.630810 0.995780 -0.060886
N29   N     N_R   0.091320 0.369190 0.004220 -0.068271
N30   N     N_R   0.091320 0.630810 0.004220 -0.055310
N31   N     N_R   0.908680 0.369190 0.995780 -0.057289
N32   N     N_R   0.421410 0.867210 0.153620 -0.068364
Ni1   Ni    Ni4+2 0.500000 0.131570 0.000000 0.199372
Ni2   Ni    Ni4+2 0.500000 0.868430 0.000000 0.186873
Ni3   Ni    Ni4+2 1.000000 0.631570 0.000000 0.216500
Ni4   Ni    Ni4+2 0.000000 0.368430 0.000000 0.191033
Ni5   Ni    Ni4+2 0.488900 1.000000 0.862310 0.186690
Ni6   Ni    Ni4+2 0.511100 0.000000 0.137690 0.209761
Ni7   Ni    Ni4+2 0.988900 0.500000 0.862310 0.202178
Ni8   Ni    Ni4+2 0.011100 0.500000 0.137690 0.207662
O1    O     O_3   0.336237 0.920213 0.848820 -0.727917
O2    O     O_3   0.565939 0.914174 0.638441 -0.740945
O3    O     O_3   0.660769 0.032404 0.603201 -0.755920
O4    O     O_3   0.349449 0.947000 0.404348 -0.677209
O5    O     O_3   0.852403 0.553477 0.403365 -0.713363
O6    O     O_3   0.143481 0.441823 0.597255 -0.721564
O7    O     O_3   0.070896 0.577375 0.635767 -0.795568
O8    O     O_3   0.933973 0.416868 0.361486 -0.736048
O9    O     O_3   0.535162 0.678294 0.621683 -0.598820
O10   O     O_3   0.455540 0.293527 0.413866 -0.595469
O11   O     O_3   0.369259 0.772423 0.419291 -0.620318
O12   O     O_3   0.662484 0.079280 0.152653 -0.742195
O13   O     O_3   0.635954 0.242653 0.562908 -0.606093
O14   O     O_3   0.126489 0.251733 0.560024 -0.592854
O15   O     O_3   0.871870 0.756838 0.391647 -0.612818
O16   O     O_3   0.964966 0.209812 0.415492 -0.614437
O17   O     O_3   0.030905 0.803035 0.612237 -0.585021
O18   O     O_3   0.247988 0.119379 0.529761 -0.561904
O19   O     O_3   0.725183 0.875127 0.453979 -0.553708
O20   O     O_3   0.855977 0.075257 0.455532 -0.602640
O21   O     O_3   0.154419 0.928956 0.570862 -0.562195
O22   O     O_3   0.679517 0.570031 0.568025 -0.585349
O23   O     O_3   0.643160 0.919381 0.174588 -0.776388
O24   O     O_3   0.331437 0.426167 0.451462 -0.550903
O25   O     O_3   0.247249 0.627957 0.461568 -0.594836
O26   O     O_3   0.750590 0.372002 0.526720 -0.549919
O27   O     O_3   0.313394 0.226082 0.639571 -0.594115
O28   O     O_3   0.656724 0.741464 0.377326 -0.591315
O29   O     O_3   0.795105 0.151072 0.330942 -0.622618
O30   O     O_3   0.227108 0.832404 0.654351 -0.575592
O31   O     O_3   0.750518 0.701674 0.642783 -0.623650
O32   O     O_3   0.269373 0.318530 0.338802 -0.620385
O33   O     O_3   0.168780 0.731935 0.368242 -0.614335
O34   O     O_3   0.350118 0.083336 0.833182 -0.746117
O35   O     O_3   0.808078 0.290920 0.639969 -0.570081
O36   O     O_3   0.347241 0.672547 0.938759 -0.804456
O37   O     O_3   0.652261 0.326605 0.062283 -0.806184
O38   O     O_3   0.782583 0.744165 0.868341 -0.748669
O39   O     O_3   0.178472 0.239024 0.167910 -0.790102
O40   O     O_3   0.821977 0.193562 0.984920 -0.793682
O41   O     O_3   0.177685 0.806317 0.017127 -0.774329
O42   O     O_3   0.287377 0.248644 0.872780 -0.727900
O43   O     O_3   0.687042 0.741909 0.159696 -0.774387
O44   O     O_3   0.820359 0.423701 0.871332 -0.709770
O45   O     O_3   0.179889 0.572929 0.127944 -0.720879
O46   O     O_3   0.141403 0.419893 0.176445 -0.787441
O47   O     O_3   0.852683 0.579767 0.830059 -0.755229
O48   O     O_3   0.426691 0.085736 0.367514 -0.754896

loop_
_geom_bond_atom_site_label_1
_geom_bond_atom_site_label_2
_ccdc_geom_bond_type
C11   O30   S    
C18   O31   S    
N1    N13   A    
C51   N20   A    
H31   O48   S    
C52   C66   A    
C31   H102  S    
C107  H59   S    
C4    H82   S    
C20   C92   S    
C16   O35   S    
C80   N30   A    
C31   N32   A    
C106  H54   S    
C3    H77   S    
C110  H66   S    
C85   O10   S    
C39   C74   A    
H8    O36   S    
C36   H36   S    
C21   C83   S    
C51   O3    S    
C55   N25   A    
C106  O14   S    
C78   O21   S    
C88   C97   S    
C11   H104  S    
C40   O1    S    
C79   O22   S    
C35   C71   A    
C80   H80   S    
C4    H79   S    
N14   Ni7   S    
C1    H1    S    
N2    Ni1   S    
C12   H106  S    
N23   Ni1   S    
C21   C90   S    
C103  H45   S    
C71   C99   S    
C111  H70   S    
C48   O47   S    
C23   O37   S    
C16   H6    S    
N10   N23   A    
C109  O17   S    
N2    N20   A    
H28   O45   S    
C108  H61   S    
C33   H13   S    
C105  H52   S    
C81   O24   S    
N25   Ni7   S    
N26   Ni8   S    
C19   C94   S    
C10   O29   S    
C10   H100  S    
N11   Ni6   S    
C15   H3    S    
C55   O7    S    
C56   O8    S    
N9    Ni5   S    
C107  H57   S    
C65   C91   A    
H10   O38   S    
C18   C89   S    
C103  O10   S    
C40   N9    A    
C33   N3    A    
C44   N14   A    
C109  H63   S    
C10   H101  S    
C38   N7    A    
N12   Ni2   S    
C5    O24   S    
C86   O11   S    
C7    H89   S    
N29   Ni4   S    
C46   C63   A    
C91   N31   A    
N30   Ni3   S    
C17   C78   S    
N8    N22   A    
C84   C93   S    
C77   O20   S    
C8    H93   S    
C17   C100  S    
C86   C95   S    
C103  H44   S    
N6    Ni3   S    
C15   O33   S    
N17   Ni7   S    
C12   H108  S    
C69   H69   S    
C66   C95   S    
C6    H88   S    
C20   C82   S    
C34   N4    A    
C46   O46   S    
C74   C98   S    
C47   H47   S    
H37   O6    S    
N27   Ni2   S    
C79   C84   S    
C7    O26   S    
C112  O20   S    
C2    O28   S    
C15   H112  S    
C43   N13   A    
C63   C69   A    
N8    Ni3   S    
N32   Ni2   S    
C110  H68   S    
H26   O34   S    
C47   N27   A    
C76   C89   S    
C12   O31   S    
C44   C65   A    
N16   Ni8   S    
C20   O33   S    
N13   Ni5   S    
C14   H111  S    
C34   H17   S    
H14   O41   S    
C50   N19   A    
C112  H73   S    
C5    H85   S    
H27   O44   S    
C78   C92   S    
H15   O42   S    
C40   C61   A    
C37   H19   S    
C108  H62   S    
C38   H20   S    
C27   O40   S    
C13   C99   S    
C8    H95   S    
C25   H25   S    
C26   C63   S    
C45   N15   A    
C82   O25   S    
C1    C57   A    
C42   N11   A    
C48   C62   A    
C9    H98   S    
C30   C59   S    
C13   C87   S    
C111  H71   S    
H30   O47   S    
N18   Ni6   S    
C51   C67   A    
C35   H18   S    
C5    H84   S    
C32   N2    A    
C32   C67   A    
N6    N25   A    
C90   C99   S    
N22   Ni8   S    
C34   C70   A    
N31   Ni4   S    
C24   C62   S    
C21   O35   S    
C111  O19   S    
C22   O36   S    
C97   C102  S    
C41   C60   A    
C104  H46   S    
C42   C59   A    
C110  O18   S    
C45   C64   A    
C13   O29   S    
N14   N31   A    
C106  H55   S    
C23   C65   S    
C108  H60   S    
C39   N8    A    
C28   C61   S    
C101  H42   S    
C54   O6    S    
C29   O42   S    
C43   C57   A    
N5    Ni4   S    
N10   Ni6   S    
C75   C94   S    
C18   C93   S    
C102  O27   S    
C22   C28   D    
N19   Ni5   S    
C19   C81   S    
H24   O23   S    
C88   O14   S    
C81   C85   S    
C85   C102  S    
C33   C68   A    
C11   H103  S    
C8    O27   S    
C58   C62   A    
C83   C87   S    
C46   N16   A    
C14   H109  S    
C2    C84   S    
C53   C74   A    
C52   N21   A    
C112  H75   S    
C75   O18   S    
C26   O39   S    
C70   C94   S    
C27   C60   S    
H39   O8    S    
C89   O15   S    
C90   O16   S    
C53   N22   A    
C79   C98   S    
N3    Ni2   S    
C25   N12   A    
C18   C79   S    
C56   N26   A    
N11   N12   A    
C105  H51   S    
C54   N24   A    
C49   O48   S    
C11   H105  S    
C42   O23   S    
C24   O38   S    
C83   C99   S    
C84   O9    S    
C64   C80   A    
C104  H48   S    
C4    H81   S    
H32   O2    S    
C77   C90   S    
C14   O32   S    
C17   C86   S    
C106  H53   S    
C19   C88   S    
C3    H78   S    
C104  H49   S    
C82   C86   S    
C4    O22   S    
C30   O43   S    
C7    H92   S    
C76   C93   S    
C54   C73   A    
C78   C95   S    
C56   C71   A    
H33   O3    S    
C8    H94   S    
C103  H43   S    
C43   O34   S    
C29   C57   S    
C49   C70   A    
C2    C76   S    
N9    N27   A    
C39   H21   S    
C1    N1    A    
C3    O21   S    
C107  H56   S    
C77   C96   S    
C9    H96   S    
H38   O7    S    
C47   C61   A    
C9    O28   S    
N7    Ni4   S    
C89   C98   S    
C101  H40   S    
C44   O44   S    
C45   O45   S    
H35   O5    S    
C16   H5    S    
C112  H74   S    
C6    H87   S    
C22   C64   S    
C109  H65   S    
C10   H99   S    
C37   C72   A    
C15   H4    S    
C50   C68   A    
C91   H91   S    
N28   Ni3   S    
C31   C66   A    
C50   O2    S    
C105  O13   S    
C28   O41   S    
C76   O19   S    
C58   N28   A    
N7    N24   A    
C107  O15   S    
C3    H76   S    
C49   N18   A    
C109  H64   S    
C69   N29   A    
C73   C97   S    
N16   N29   A    
C110  H67   S    
C58   H58   S    
C7    H90   S    
N3    N19   A    
C41   N10   A    
H23   O12   S    
C87   O13   S    
C9    H97   S    
C75   C102  S    
C23   C27   D    
C12   H107  S    
N5    N26   A    
C6    O25   S    
C5    H83   S    
N24   Ni7   S    
H34   O4    S    
H16   O43   S    
C101  O9    S    
N17   N28   A    
N21   Ni6   S    
C83   O26   S    
C17   O30   S    
C37   N6    A    
N21   N32   A    
C13   C77   S    
C19   O32   S    
C16   H7    S    
C6    H86   S    
N4    Ni1   S    
H9    O37   S    
C35   N5    A    
H11   O39   S    
C92   O17   S    
H12   O40   S    
C85   C94   S    
C101  H41   S    
C87   C96   S    
N15   N30   A    
C104  O11   S    
C41   O12   S    
C52   O4    S    
C20   C95   S    
C53   O5    S    
C67   C96   S    
N15   Ni8   S    
C92   C100  S    
C72   C100  S    
C36   N23   A    
C82   C100  S    
C14   H110  S    
C55   C72   A    
C48   N17   A    
C36   C60   A    
C21   C96   S    
C25   C59   A    
C68   C93   S    
N1    Ni1   S    
C81   C97   S    
H22   O1    S    
C111  H72   S    
C24   C30   D    
C75   C88   S    
N4    N18   A    
C2    C98   S    
C26   C29   D    
H29   O46   S    
C105  H50   S    
N20   Ni5   S    
C32   H2    S    
C108  O16   S    
C38   C73   A    
