data_mof_unit_31246.cif
_audit_creation_date              2013-03-05T15:46:28-0500
_audit_creation_method            fapswitch 2.2
_symmetry_space_group_name_H-M    P1
_symmetry_Int_Tables_number       1
_space_group_crystal_system       triclinic
_cell_length_a                    21.842297
_cell_length_b                    21.81882
_cell_length_c                    30.150324
_cell_angle_alpha                 89.051249
_cell_angle_beta                  90.797915
_cell_angle_gamma                 88.459246
_cell_volume                      14360.186009

loop_
_atom_site_label
_atom_site_type_symbol
_atom_site_description
_atom_site_fract_x
_atom_site_fract_y
_atom_site_fract_z
_atom_type_partial_charge
O1    O     O_R   0.447800 0.090110 0.500010 -0.593437
O2    O     O_R   0.090110 0.552200 0.500010 -0.565020
O3    O     O_R   0.552200 0.909890 0.500010 -0.592383
O4    O     O_R   0.909890 0.447800 0.500010 -0.570899
O5    O     O_R   0.447800 0.909890 0.499990 -0.565754
O6    O     O_R   0.090110 0.447800 0.499990 -0.574993
O7    O     O_R   0.552200 0.090110 0.499990 -0.589122
O8    O     O_R   0.909890 0.552200 0.499990 -0.573066
O9    O     O_R   0.947800 0.590110 0.000010 -0.589951
O10   O     O_R   0.590110 0.052200 0.000010 -0.566568
O11   O     O_R   0.052200 0.409890 0.000010 -0.601612
O12   O     O_R   0.409890 0.947800 0.000010 -0.573013
O13   O     O_R   0.947800 0.409890 0.999990 -0.559152
O14   O     O_R   0.590110 0.947800 0.999990 -0.571970
O15   O     O_R   0.052200 0.590110 0.999990 -0.584380
O16   O     O_R   0.409890 0.052200 0.999990 -0.573607
C1    C     C_R   0.499348 0.118634 0.500354 0.830998
C2    C     C_R   0.118744 0.499408 0.500516 0.800782
C3    C     C_R   0.501463 0.881070 0.499044 0.825984
C4    C     C_R   0.881124 0.500671 0.499591 0.798354
C5    C     C_R   0.999370 0.618672 0.000433 0.842698
C6    C     C_R   0.618348 0.999115 0.007288 0.798702
C7    C     C_R   0.001582 0.380533 0.000151 0.837614
C8    C     C_R   0.381171 0.000669 0.999759 0.799972
O17   O     O_R   0.447790 0.999910 0.564880 -0.565546
O18   O     O_R   0.999910 0.552210 0.564880 -0.579094
O19   O     O_R   0.552210 0.000090 0.564880 -0.600545
O20   O     O_R   0.000090 0.447790 0.564880 -0.580314
O21   O     O_R   0.447790 0.000090 0.435120 -0.587252
O22   O     O_R   0.999910 0.447790 0.435120 -0.578562
O23   O     O_R   0.552210 0.999910 0.435120 -0.585730
O24   O     O_R   0.000090 0.552210 0.435120 -0.583028
O25   O     O_R   0.947790 0.499910 0.064880 -0.566910
O26   O     O_R   0.499910 0.052210 0.064880 -0.595849
O27   O     O_R   0.052210 0.500090 0.064880 -0.602520
O28   O     O_R   0.500090 0.947790 0.064880 -0.589988
O29   O     O_R   0.947790 0.500090 0.935120 -0.596672
O30   O     O_R   0.499910 0.947790 0.935120 -0.580462
O31   O     O_R   0.052210 0.499910 0.935120 -0.588052
O32   O     O_R   0.500090 0.052210 0.935120 -0.569345
C9    C     C_R   0.500276 0.002676 0.585550 0.765633
C10   C     C_R   0.000884 0.499621 0.585680 0.772239
C11   C     C_R   0.499532 0.003127 0.414502 0.762498
C12   C     C_R   0.999364 0.500452 0.414577 0.765915
C13   C     C_R   0.000247 0.501851 0.085635 0.764610
C14   C     C_R   0.500467 0.999578 0.085618 0.756642
C15   C     C_R   0.999803 0.498519 0.914437 0.788396
C16   C     C_R   0.499727 0.000430 0.914518 0.791574
Cu1   Cu    Cu3+1 0.438180 1.000000 0.500000 0.989827
Cu2   Cu    Cu3+1 1.000000 0.561820 0.500000 1.024169
Cu3   Cu    Cu3+1 0.561820 1.000000 0.500000 0.961741
Cu4   Cu    Cu3+1 0.000000 0.438180 0.500000 1.010267
Cu5   Cu    Cu3+1 0.938180 0.500000 0.000000 0.997283
Cu6   Cu    Cu3+1 0.500000 0.061820 0.000000 1.002152
Cu7   Cu    Cu3+1 0.061820 0.500000 0.000000 0.954095
Cu8   Cu    Cu3+1 0.500000 0.938180 0.000000 0.996676
C17   C     C_R   0.544578 0.968145 0.844202 -0.196585
C18   C     C_R   0.051543 0.475793 0.844039 -0.149738
C19   C     C_R   0.454278 0.034487 0.842840 -0.216265
C20   C     C_R   0.949171 0.520689 0.841982 -0.171825
C21   C     C_R   0.533358 0.043094 0.156714 -0.211978
C22   C     C_R   0.052438 0.482266 0.158194 -0.172647
C23   C     C_R   0.468697 0.955093 0.157344 -0.210581
C24   C     C_R   0.949924 0.526420 0.156511 -0.124782
C25   C     C_R   0.049829 0.477010 0.344554 -0.207659
C26   C     C_R   0.538550 0.040229 0.343153 -0.140341
C27   C     C_R   0.950125 0.527537 0.343002 -0.205390
C28   C     C_R   0.460973 0.963462 0.343606 -0.211668
C29   C     C_R   0.045536 0.464567 0.658142 -0.213609
C30   C     C_R   0.550542 0.978473 0.657955 -0.164081
C31   C     C_R   0.960034 0.536560 0.656560 -0.211288
C32   C     C_R   0.453245 0.033611 0.656240 -0.131954
C33   C     C_R   0.499561 0.001220 0.866333 -0.058172
C34   C     C_R   0.999802 0.497659 0.866039 -0.072110
C35   C     C_R   0.501045 0.998962 0.134049 -0.065952
C36   C     C_R   0.000912 0.503580 0.134236 -0.049415
C37   C     C_R   0.999675 0.501557 0.366521 -0.046463
C38   C     C_R   0.499115 0.002742 0.366217 -0.062771
C39   C     C_R   0.001710 0.499397 0.634243 -0.051013
C40   C     C_R   0.501292 0.004922 0.634048 -0.042199
C41   C     C_R   0.452645 0.034714 0.796209 0.091033
C42   C     C_R   0.950578 0.525422 0.795618 0.120180
C43   C     C_R   0.546423 0.969077 0.797667 0.080674
C44   C     C_R   0.053107 0.475577 0.797614 0.107244
C45   C     C_R   0.467621 0.954819 0.203959 0.080497
C46   C     C_R   0.949946 0.529509 0.203014 0.118439
C47   C     C_R   0.534652 0.043979 0.203247 0.084361
C48   C     C_R   0.052646 0.479865 0.204756 0.125240
C49   C     C_R   0.948734 0.527446 0.296398 0.090757
C50   C     C_R   0.461819 0.960569 0.297101 0.087653
C51   C     C_R   0.052504 0.479910 0.298090 0.090778
C52   C     C_R   0.539211 0.040834 0.296590 0.112265
C53   C     C_R   0.957558 0.535930 0.702898 0.080874
C54   C     C_R   0.453784 0.036707 0.702772 0.117789
C55   C     C_R   0.049317 0.467803 0.704624 0.077405
C56   C     C_R   0.550788 0.976403 0.704499 0.121880
C57   C     C_R   0.500465 0.003457 0.773570 -0.022256
C58   C     C_R   0.002200 0.500731 0.773397 -0.025433
C59   C     C_R   0.501069 0.999637 0.226951 -0.019279
C60   C     C_R   0.001134 0.504456 0.227272 0.017410
C61   C     C_R   0.000812 0.504000 0.273838 -0.023205
C62   C     C_R   0.500721 0.000315 0.273497 -0.017091
C63   C     C_R   0.002992 0.501444 0.726995 -0.023098
C64   C     C_R   0.501338 0.004999 0.727011 0.009520
C65   C     C_R   0.404609 0.065758 0.772056 0.160561
C66   C     C_R   0.902715 0.556288 0.771336 0.193707
C67   C     C_R   0.593459 0.936876 0.775034 0.165894
C68   C     C_R   0.104228 0.450586 0.775033 0.206148
C69   C     C_R   0.433186 0.911350 0.227792 0.159887
C70   C     C_R   0.899767 0.556751 0.225455 0.148586
C71   C     C_R   0.569246 0.087776 0.226313 0.161243
C72   C     C_R   0.103401 0.453826 0.228952 0.154799
C73   C     C_R   0.896839 0.550859 0.272199 0.166224
C74   C     C_R   0.425323 0.918364 0.274006 0.159582
C75   C     C_R   0.105402 0.458684 0.275689 0.169214
C76   C     C_R   0.576586 0.081834 0.272918 0.170749
C77   C     C_R   0.910344 0.568038 0.725521 0.149838
C78   C     C_R   0.407864 0.070686 0.725251 0.152545
C79   C     C_R   0.098781 0.439614 0.729023 0.159684
C80   C     C_R   0.598979 0.945708 0.728677 0.158322
H1    H     H_    0.579464 0.944036 0.864062 0.151586
H2    H     H_    0.089529 0.456753 0.863567 0.157660
H3    H     H_    0.420517 0.059837 0.861643 0.148789
H4    H     H_    0.910159 0.537860 0.860038 0.155123
H5    H     H_    0.558935 0.075431 0.137388 0.158399
H6    H     H_    0.091980 0.466703 0.139913 0.155157
H7    H     H_    0.442387 0.923068 0.138401 0.161982
H8    H     H_    0.910456 0.542123 0.137007 0.155524
H9    H     H_    0.086599 0.455965 0.364394 0.145430
H10   H     H_    0.566343 0.070889 0.362211 0.151951
H11   H     H_    0.912825 0.547280 0.361762 0.144091
H12   H     H_    0.432940 0.933394 0.363116 0.157005
H13   H     H_    0.078096 0.437624 0.639921 0.151051
H14   H     H_    0.586978 0.956604 0.639600 0.153565
H15   H     H_    0.928040 0.563752 0.637285 0.152030
H16   H     H_    0.415791 0.053768 0.636639 0.150903
C81   C     C_R   0.533009 0.192347 0.580772 -0.018575
C82   C     C_R   0.201365 0.398677 0.540587 0.058831
C83   C     C_R   0.491069 0.803385 0.579502 0.010951
C84   C     C_R   0.801560 0.600293 0.542478 0.054663
C85   C     C_R   0.565042 0.804634 0.425599 -0.011908
C86   C     C_R   0.182335 0.598309 0.453805 0.066966
C87   C     C_R   0.463855 0.198038 0.420507 -0.023066
C88   C     C_R   0.805043 0.403251 0.456249 0.041233
C89   C     C_R   0.027159 0.692983 0.081610 -0.016174
C90   C     C_R   0.698628 0.886741 0.039916 0.030846
C91   C     C_R   0.997073 0.301942 0.083237 0.011540
C92   C     C_R   0.304686 0.090293 0.053348 0.028554
C93   C     C_R   0.055714 0.300887 0.927150 -0.020176
C94   C     C_R   0.695509 0.109113 0.033508 0.058163
C95   C     C_R   0.970930 0.696590 0.919166 -0.002933
C96   C     C_R   0.304672 0.906555 0.954056 0.040661
C97   C     C_R   0.518048 0.220197 0.621406 0.337462
C98   C     C_R   0.232178 0.340836 0.539352 0.346255
C99   C     C_R   0.456030 0.778379 0.613864 0.367036
C100  C     C_R   0.768013 0.656514 0.545122 0.352468
C101  C     C_R   0.593983 0.764204 0.395828 0.328149
C102  C     C_R   0.207891 0.656696 0.452470 0.341707
C103  C     C_R   0.478027 0.227490 0.379894 0.332705
C104  C     C_R   0.777741 0.345135 0.457019 0.342965
C105  C     C_R   0.009514 0.721221 0.121527 0.342851
C106  C     C_R   0.729712 0.830269 0.032572 0.342776
C107  C     C_R   0.965650 0.276152 0.119221 0.370510
C108  C     C_R   0.273392 0.146386 0.061608 0.345172
C109  C     C_R   0.050769 0.275160 0.884725 0.368041
C110  C     C_R   0.721681 0.163931 0.018200 0.327338
C111  C     C_R   0.988602 0.724600 0.879134 0.371063
C112  C     C_R   0.277334 0.848525 0.954049 0.341795
C113  C     C_R   0.477576 0.271809 0.621333 0.056563
C114  C     C_R   0.281919 0.332370 0.510432 0.067842
C115  C     C_R   0.418946 0.727945 0.605316 0.061091
C116  C     C_R   0.713490 0.665243 0.520040 0.079560
C117  C     C_R   0.568762 0.706993 0.389183 0.032543
C118  C     C_R   0.271477 0.660119 0.458161 0.060592
C119  C     C_R   0.518991 0.276502 0.379790 0.051486
C120  C     C_R   0.728624 0.334267 0.486015 0.073236
C121  C     C_R   0.969226 0.772949 0.119882 0.051387
C122  C     C_R   0.779845 0.827667 0.003508 0.073117
C123  C     C_R   0.928091 0.225458 0.112481 0.064915
C124  C     C_R   0.218718 0.161901 0.038017 0.089475
C125  C     C_R   0.011356 0.226539 0.877316 0.055932
C126  C     C_R   0.765925 0.161445 0.984420 0.058189
C127  C     C_R   0.026218 0.775830 0.879822 0.048331
C128  C     C_R   0.227309 0.837313 0.982053 0.059316
C129  C     C_R   0.462360 0.301970 0.580372 0.153382
C130  C     C_R   0.306948 0.384535 0.489623 0.069032
C131  C     C_R   0.424127 0.697820 0.564142 0.137840
C132  C     C_R   0.689553 0.614615 0.497640 0.089718
C133  C     C_R   0.518656 0.690926 0.414789 0.192872
C134  C     C_R   0.305557 0.604562 0.459735 0.064818
C135  C     C_R   0.536225 0.302705 0.420751 0.156809
C136  C     C_R   0.699976 0.384794 0.507203 0.074666
C137  C     C_R   0.956787 0.802745 0.078373 0.156681
C138  C     C_R   0.803363 0.882947 0.986329 0.067683
C139  C     C_R   0.928401 0.196203 0.070824 0.147317
C140  C     C_R   0.191119 0.117112 0.011325 0.104579
C141  C     C_R   0.981361 0.199733 0.913743 0.166965
C142  C     C_R   0.789074 0.103276 0.971056 0.096859
C143  C     C_R   0.039336 0.803612 0.920951 0.146715
C144  C     C_R   0.199236 0.887297 0.004314 0.080025
C145  C     C_R   0.488963 0.279363 0.540648 -0.005627
C146  C     C_R   0.282709 0.443570 0.499690 -0.015765
C147  C     C_R   0.464557 0.720891 0.531261 0.001981
C148  C     C_R   0.716965 0.555906 0.504125 -0.011030
C149  C     C_R   0.509876 0.718879 0.456728 -0.027820
C150  C     C_R   0.279021 0.551863 0.478627 -0.003740
C151  C     C_R   0.509814 0.280137 0.460668 -0.004101
C152  C     C_R   0.721027 0.444540 0.498136 -0.017575
C153  C     C_R   0.985966 0.779740 0.039744 -0.006058
C154  C     C_R   0.779938 0.939977 0.001658 -0.011347
C155  C     C_R   0.964959 0.219777 0.035909 0.009614
C156  C     C_R   0.217840 0.057075 0.010228 -0.011961
C157  C     C_R   0.992763 0.220826 0.957530 0.003048
C158  C     C_R   0.776032 0.051489 0.997421 -0.032469
C159  C     C_R   0.011674 0.780436 0.960433 -0.003261
C160  C     C_R   0.220321 0.947127 0.995862 -0.012540
C161  C     C_R   0.507506 0.217587 0.540785 -0.034611
C162  C     C_R   0.222052 0.447567 0.513466 -0.012797
C163  C     C_R   0.485837 0.780542 0.535954 -0.033127
C164  C     C_R   0.779109 0.552764 0.515537 -0.008678
C165  C     C_R   0.526346 0.780832 0.459987 -0.032611
C166  C     C_R   0.214659 0.549592 0.477144 -0.020055
C167  C     C_R   0.489534 0.219926 0.460536 -0.036117
C168  C     C_R   0.781366 0.449918 0.484039 -0.005359
C169  C     C_R   0.004550 0.718001 0.040705 -0.036429
C170  C     C_R   0.720218 0.941182 0.019704 0.000504
C171  C     C_R   0.988117 0.279301 0.039985 -0.029960
C172  C     C_R   0.280420 0.050141 0.021270 -0.011748
C173  C     C_R   0.018344 0.279098 0.962065 -0.037077
C174  C     C_R   0.718485 0.052378 0.017480 0.005848
C175  C     C_R   0.992370 0.719782 0.959955 -0.033109
C176  C     C_R   0.280716 0.952584 0.982221 -0.008873
C177  C     C_R   0.499979 0.313437 0.500676 -0.178285
C178  C     C_R   0.313697 0.498909 0.493336 -0.109986
C179  C     C_R   0.485236 0.687078 0.494439 -0.161374
C180  C     C_R   0.685831 0.499809 0.501145 -0.119879
C181  C     C_R   0.999452 0.813641 0.000211 -0.173462
C182  C     C_R   0.811115 0.996109 0.996176 -0.102963
C183  C     C_R   0.977870 0.187029 0.996734 -0.164402
C184  C     C_R   0.185850 0.002282 0.001679 -0.118349
C185  C     C_R   0.498068 0.185549 0.500672 -0.093032
C186  C     C_R   0.185757 0.499092 0.498098 -0.121825
C187  C     C_R   0.506243 0.813464 0.498192 -0.090596
C188  C     C_R   0.813741 0.501643 0.499336 -0.117949
C189  C     C_R   0.998139 0.685702 0.000447 -0.092038
C190  C     C_R   0.685856 0.997403 0.018893 -0.140353
C191  C     C_R   0.006800 0.311910 0.001535 -0.098171
C192  C     C_R   0.313877 0.001800 0.000365 -0.115003
O33   O     O_R   0.409850 0.499950 0.462440 -0.604297
O34   O     O_R   0.499950 0.590150 0.462440 -0.598223
O35   O     O_R   0.590150 0.500050 0.462440 -0.594569
O36   O     O_R   0.500050 0.409850 0.462440 -0.576129
O37   O     O_R   0.409850 0.500050 0.537560 -0.593163
O38   O     O_R   0.499950 0.409850 0.537560 -0.575833
O39   O     O_R   0.590150 0.499950 0.537560 -0.579189
O40   O     O_R   0.500050 0.590150 0.537560 -0.556543
O41   O     O_R   0.909850 0.999950 0.962440 -0.602662
O42   O     O_R   0.999950 0.090150 0.962440 -0.579463
O43   O     O_R   0.090150 0.000050 0.962440 -0.593468
O44   O     O_R   0.000050 0.909850 0.962440 -0.579983
O45   O     O_R   0.909850 0.000050 0.037560 -0.591538
O46   O     O_R   0.999950 0.909850 0.037560 -0.574672
O47   O     O_R   0.090150 0.999950 0.037560 -0.573429
O48   O     O_R   0.000050 0.090150 0.037560 -0.562431
C193  C     C_R   0.380958 0.499856 0.498824 0.821387
C194  C     C_R   0.494272 0.619123 0.498862 0.800602
C195  C     C_R   0.618829 0.499247 0.500332 0.851052
C196  C     C_R   0.500207 0.380922 0.500284 0.797999
C197  C     C_R   0.880140 0.998343 0.999132 0.797689
C198  C     C_R   0.990711 0.118786 0.999217 0.799899
C199  C     C_R   0.118806 0.001131 0.000426 0.846362
C200  C     C_R   0.999969 0.880986 0.000186 0.795250
Cu9   Cu    Cu3+1 0.500000 0.500000 0.455560 0.909506
Cu10  Cu    Cu3+1 0.500000 0.500000 0.544440 0.955955
Cu11  Cu    Cu3+1 0.000000 1.000000 0.955560 0.921668
Cu12  Cu    Cu3+1 1.000000 1.000000 0.044440 0.959912
C201  C     C_3   0.348636 0.090154 0.796186 -0.834601
H17   H     H_    0.308398 0.098913 0.774004 0.250540
H18   H     H_    0.332988 0.055324 0.820479 0.225870
H19   H     H_    0.359832 0.132896 0.813671 0.241512
C202  C     C_3   0.844262 0.576474 0.794336 -0.824558
H20   H     H_    0.806422 0.589741 0.770987 0.243681
H21   H     H_    0.826489 0.537706 0.814214 0.218976
H22   H     H_    0.853471 0.615589 0.816303 0.262526
C203  C     C_3   0.635506 0.891340 0.800129 -0.823704
H23   H     H_    0.657855 0.857405 0.778254 0.252573
H24   H     H_    0.670907 0.916093 0.818966 0.226454
H25   H     H_    0.608621 0.862943 0.823281 0.240191
C204  C     C_3   0.164699 0.438734 0.799547 -0.803642
H26   H     H_    0.204297 0.437646 0.776949 0.234957
H27   H     H_    0.173998 0.476989 0.822305 0.219920
H28   H     H_    0.163673 0.395143 0.818864 0.286844
C205  C     C_3   0.407247 0.856640 0.204143 -0.840328
H29   H     H_    0.397835 0.817874 0.227023 0.245962
H30   H     H_    0.364783 0.870700 0.185572 0.236933
H31   H     H_    0.441405 0.837243 0.180938 0.235651
C206  C     C_3   0.851910 0.595205 0.199685 -0.804882
H32   H     H_    0.818638 0.564978 0.183351 0.240560
H33   H     H_    0.827244 0.628620 0.220722 0.250849
H34   H     H_    0.874177 0.624236 0.174315 0.236181
C207  C     C_3   0.595945 0.141674 0.201356 -0.812202
H35   H     H_    0.606452 0.180537 0.223128 0.250074
H36   H     H_    0.637914 0.126572 0.183796 0.223093
H37   H     H_    0.561833 0.161413 0.177101 0.247680
C208  C     C_3   0.153189 0.418016 0.204993 -0.798238
H38   H     H_    0.180747 0.386864 0.227262 0.256236
H39   H     H_    0.132334 0.386965 0.180588 0.237301
H40   H     H_    0.183842 0.450090 0.187713 0.230509
C209  C     C_3   0.837791 0.566219 0.296198 -0.836178
H41   H     H_    0.797035 0.568525 0.273898 0.248124
H42   H     H_    0.827703 0.529208 0.320533 0.223976
H43   H     H_    0.841928 0.610378 0.313617 0.246730
C210  C     C_3   0.377036 0.882757 0.298527 -0.830013
H44   H     H_    0.342100 0.863415 0.276187 0.250530
H45   H     H_    0.399214 0.845318 0.318900 0.228913
H46   H     H_    0.350357 0.913907 0.320205 0.240459
C211  C     C_3   0.164544 0.444868 0.301542 -0.839822
H47   H     H_    0.162915 0.398853 0.317682 0.246581
H48   H     H_    0.205721 0.447507 0.280615 0.246966
H49   H     H_    0.171754 0.480137 0.327098 0.223108
C212  C     C_3   0.625191 0.117234 0.297375 -0.822446
H50   H     H_    0.660799 0.135286 0.275269 0.246983
H51   H     H_    0.603439 0.155512 0.315749 0.240455
H52   H     H_    0.650934 0.086229 0.320982 0.233233
C213  C     C_3   0.869256 0.615426 0.701620 -0.778038
H53   H     H_    0.853667 0.651956 0.724357 0.268315
H54   H     H_    0.894334 0.640666 0.675665 0.245289
H55   H     H_    0.828900 0.592898 0.687088 0.222134
C214  C     C_3   0.365688 0.115372 0.699477 -0.811279
H56   H     H_    0.347092 0.152609 0.720366 0.247232
H57   H     H_    0.391470 0.139934 0.673477 0.232888
H58   H     H_    0.327537 0.090439 0.683928 0.242398
C215  C     C_3   0.144979 0.398170 0.706181 -0.803756
H59   H     H_    0.172888 0.369253 0.729764 0.263341
H60   H     H_    0.120961 0.364915 0.685096 0.245864
H61   H     H_    0.175736 0.426239 0.685634 0.217060
C216  C     C_3   0.656746 0.924718 0.705146 -0.818691
H62   H     H_    0.696353 0.916453 0.728004 0.246568
H63   H     H_    0.647940 0.882519 0.686258 0.246144
H64   H     H_    0.672056 0.961408 0.682225 0.232103
N1    N     N_R   0.451746 0.207060 0.338818 0.124579
O49   O     O_R   0.450627 0.148944 0.330083 -0.368456
O50   O     O_R   0.424201 0.246121 0.311705 -0.338295
N2    N     N_R   0.170421 0.709810 0.440549 0.130159
O51   O     O_R   0.187736 0.748516 0.410248 -0.338238
O52   O     O_R   0.116465 0.717136 0.457741 -0.333104
N3    N     N_R   0.645293 0.783734 0.370204 0.121716
O53   O     O_R   0.644528 0.779949 0.327182 -0.350597
O54   O     O_R   0.690256 0.811180 0.389619 -0.344972
N4    N     N_R   0.800264 0.297459 0.428814 0.120438
O55   O     O_R   0.763822 0.273151 0.399909 -0.361277
O56   O     O_R   0.857583 0.279709 0.430860 -0.330777
N5    N     N_R   0.459357 0.803700 0.657502 0.117166
O57   O     O_R   0.478067 0.769502 0.691035 -0.342923
O58   O     O_R   0.449628 0.862151 0.663026 -0.365706
N6    N     N_R   0.212560 0.291114 0.567030 0.118715
O59   O     O_R   0.250408 0.265283 0.595816 -0.372092
O60   O     O_R   0.156203 0.273423 0.564984 -0.338405
N7    N     N_R   0.543412 0.195821 0.662584 0.123618
O61   O     O_R   0.545270 0.137041 0.670475 -0.383825
O62   O     O_R   0.570006 0.231765 0.690471 -0.351546
N8    N     N_R   0.789598 0.704231 0.573098 0.116758
O63   O     O_R   0.756789 0.722725 0.606246 -0.357277
O64   O     O_R   0.843926 0.725903 0.567600 -0.333170
N9    N     N_R   0.971348 0.698559 0.837636 0.113257
O65   O     O_R   0.001699 0.651141 0.823062 -0.368929
O66   O     O_R   0.929472 0.725582 0.812585 -0.376392
N10   N     N_R   0.700756 0.221961 0.034854 0.127431
O67   O     O_R   0.643574 0.239379 0.030184 -0.333562
O68   O     O_R   0.738463 0.256636 0.055998 -0.362871
N11   N     N_R   0.085248 0.299198 0.848625 0.104307
O69   O     O_R   0.057133 0.331781 0.817713 -0.388873
O70   O     O_R   0.139918 0.276820 0.841337 -0.386379
N12   N     N_R   0.302027 0.800417 0.927148 0.128192
O71   O     O_R   0.268661 0.777165 0.895913 -0.356528
O72   O     O_R   0.358905 0.782115 0.932195 -0.333939
N13   N     N_R   0.973090 0.301050 0.162718 0.117908
O73   O     O_R   0.996900 0.267171 0.194780 -0.338460
O74   O     O_R   0.961716 0.359011 0.169246 -0.364989
N14   N     N_R   0.709764 0.775555 0.054414 0.117959
O75   O     O_R   0.745085 0.747568 0.083841 -0.363378
O76   O     O_R   0.655182 0.755453 0.046658 -0.338802
N15   N     N_R   0.031969 0.697104 0.163579 0.124382
O77   O     O_R   0.031503 0.638540 0.172135 -0.383944
O78   O     O_R   0.058208 0.732876 0.191765 -0.343676
N16   N     N_R   0.297218 0.187229 0.094058 0.118852
O79   O     O_R   0.352023 0.208392 0.090096 -0.336216
O80   O     O_R   0.265298 0.200772 0.128845 -0.332637
C217  C     C_3   0.589199 0.150755 0.579561 -0.700072
H65   H     H_    0.577206 0.103252 0.587850 0.257366
H66   H     H_    0.612044 0.153717 0.547014 0.230502
H67   H     H_    0.624206 0.165416 0.603964 0.243113
C218  C     C_3   0.156425 0.410294 0.577102 -0.748290
H68   H     H_    0.146347 0.459955 0.581224 0.187391
H69   H     H_    0.113366 0.385931 0.570677 0.277826
H70   H     H_    0.176579 0.393218 0.609090 0.227604
C219  C     C_3   0.543967 0.842876 0.591868 -0.736032
H71   H     H_    0.580876 0.840971 0.566986 0.229218
H72   H     H_    0.526708 0.890007 0.595323 0.233942
H73   H     H_    0.565557 0.827022 0.623755 0.248105
C220  C     C_3   0.850540 0.587165 0.576787 -0.735162
H74   H     H_    0.862496 0.537542 0.579731 0.191496
H75   H     H_    0.891728 0.613947 0.569388 0.279110
H76   H     H_    0.833029 0.600602 0.609617 0.222853
C221  C     C_3   0.569454 0.871016 0.414119 -0.655888
H77   H     H_    0.523265 0.891436 0.417218 0.183559
H78   H     H_    0.605805 0.892158 0.434229 0.275751
H79   H     H_    0.580646 0.879068 0.378696 0.235755
C222  C     C_3   0.134636 0.585483 0.418719 -0.690275
H80   H     H_    0.125331 0.535935 0.416738 0.181894
H81   H     H_    0.091957 0.612264 0.424847 0.288445
H82   H     H_    0.151748 0.599642 0.385673 0.216012
C223  C     C_3   0.409357 0.157069 0.421721 -0.696560
H83   H     H_    0.423582 0.109562 0.413989 0.256508
H84   H     H_    0.386183 0.159341 0.454164 0.227950
H85   H     H_    0.373829 0.172880 0.397106 0.248329
C224  C     C_3   0.849759 0.417801 0.419910 -0.691353
H86   H     H_    0.858508 0.467548 0.417179 0.176664
H87   H     H_    0.893674 0.392087 0.425700 0.280421
H88   H     H_    0.830377 0.404433 0.387336 0.232776
C225  C     C_3   0.082882 0.650669 0.082625 -0.709543
H89   H     H_    0.069784 0.603633 0.091189 0.253792
H90   H     H_    0.107656 0.652338 0.050815 0.230423
H91   H     H_    0.116600 0.665574 0.107883 0.244359
C226  C     C_3   0.649698 0.889030 0.075098 -0.674495
H92   H     H_    0.636658 0.936488 0.084477 0.182488
H93   H     H_    0.608221 0.865477 0.063422 0.268321
H94   H     H_    0.667154 0.865747 0.105960 0.236922
C227  C     C_3   0.049965 0.342773 0.093192 -0.755557
H95   H     H_    0.084019 0.343067 0.066277 0.224525
H96   H     H_    0.032162 0.389336 0.098879 0.238671
H97   H     H_    0.075484 0.325993 0.123301 0.246908
C228  C     C_3   0.354815 0.069239 0.085619 -0.681357
H98   H     H_    0.366571 0.019734 0.082990 0.182501
H99   H     H_    0.395963 0.096904 0.080618 0.277759
H100  H     H_    0.339182 0.075554 0.120183 0.239262
C229  C     C_3   0.110005 0.340348 0.936394 -0.754675
H101  H     H_    0.099637 0.388323 0.925794 0.246645
H102  H     H_    0.124187 0.337172 0.971831 0.235085
H103  H     H_    0.150904 0.323729 0.918299 0.247188
C230  C     C_3   0.650834 0.111232 0.071360 -0.724555
H104  H     H_    0.607017 0.133974 0.060461 0.275258
H105  H     H_    0.641297 0.064743 0.084538 0.183882
H106  H     H_    0.670579 0.137305 0.099197 0.227072
C231  C     C_3   0.918162 0.653831 0.917956 -0.769108
H107  H     H_    0.935973 0.606850 0.914136 0.245219
H108  H     H_    0.890161 0.657969 0.948234 0.241428
H109  H     H_    0.886353 0.665218 0.889808 0.235342
C232  C     C_3   0.350423 0.921449 0.918534 -0.693557
H110  H     H_    0.359797 0.971130 0.916606 0.178219
H111  H     H_    0.393865 0.895009 0.924506 0.279995
H112  H     H_    0.331618 0.909056 0.885566 0.233791
C233  C     C_3   0.452497 0.293794 0.665133 -0.733442
H113  H     H_    0.435149 0.254270 0.684459 0.240487
H114  H     H_    0.489211 0.315722 0.684499 0.261827
H115  H     H_    0.414091 0.327675 0.661759 0.219782
C234  C     C_3   0.308238 0.268782 0.501528 -0.765725
H116  H     H_    0.285279 0.232036 0.520189 0.272710
H117  H     H_    0.302717 0.257985 0.465909 0.226977
H118  H     H_    0.357666 0.266311 0.510548 0.234403
C235  C     C_3   0.374784 0.705444 0.639994 -0.736680
H119  H     H_    0.373112 0.734320 0.669830 0.272537
H120  H     H_    0.327448 0.706240 0.626156 0.220528
H121  H     H_    0.388025 0.657954 0.650726 0.234426
C236  C     C_3   0.680537 0.727321 0.516938 -0.735433
H122  H     H_    0.702752 0.762837 0.536883 0.269318
H123  H     H_    0.679401 0.744796 0.482187 0.239566
H124  H     H_    0.632819 0.723075 0.528648 0.226993
C237  C     C_3   0.591086 0.665265 0.352996 -0.748037
H125  H     H_    0.641663 0.659098 0.355199 0.245872
H126  H     H_    0.571289 0.619069 0.356184 0.221740
H127  H     H_    0.577719 0.684991 0.319993 0.261118
C238  C     C_3   0.303783 0.720163 0.454607 -0.758208
H128  H     H_    0.281499 0.754490 0.476333 0.254257
H129  H     H_    0.352365 0.714632 0.465570 0.222336
H130  H     H_    0.302870 0.737348 0.419758 0.258186
C239  C     C_3   0.542291 0.300350 0.335772 -0.732919
H131  H     H_    0.505044 0.326467 0.317883 0.261746
H132  H     H_    0.581477 0.331125 0.338765 0.221305
H133  H     H_    0.557842 0.261392 0.315153 0.237812
C240  C     C_3   0.707119 0.269701 0.494793 -0.764648
H134  H     H_    0.732033 0.234574 0.475436 0.273581
H135  H     H_    0.714736 0.256867 0.530222 0.226328
H136  H     H_    0.657608 0.266706 0.486672 0.231905
C241  C     C_3   0.941264 0.795293 0.162652 -0.716416
H137  H     H_    0.976964 0.816078 0.183660 0.263689
H138  H     H_    0.904055 0.830239 0.157883 0.219987
H139  H     H_    0.921430 0.756098 0.180941 0.243240
C242  C     C_3   0.808707 0.766529 0.990725 -0.766029
H140  H     H_    0.788644 0.726751 0.007879 0.271900
H141  H     H_    0.802300 0.759067 0.954688 0.226442
H142  H     H_    0.858449 0.765780 0.998844 0.233957
C243  C     C_3   0.888132 0.201997 0.149497 -0.724427
H143  H     H_    0.890772 0.229380 0.180015 0.271993
H144  H     H_    0.839306 0.204053 0.138819 0.233621
H145  H     H_    0.901807 0.153915 0.158316 0.229530
C244  C     C_3   0.189188 0.225400 0.041472 -0.764205
H146  H     H_    0.215172 0.256386 0.063004 0.268526
H147  H     H_    0.186318 0.248127 0.008319 0.217962
H148  H     H_    0.142361 0.221818 0.055004 0.238314
C245  C     C_3   0.003788 0.203381 0.830427 -0.722195
H149  H     H_    0.049395 0.191635 0.816613 0.258987
H150  H     H_    0.976406 0.161650 0.827925 0.212784
H151  H     H_    0.981073 0.239598 0.809246 0.254978
C246  C     C_3   0.786420 0.220626 0.963340 -0.746485
H152  H     H_    0.807374 0.249745 0.988928 0.263949
H153  H     H_    0.821510 0.213957 0.937834 0.216214
H154  H     H_    0.746456 0.245621 0.947836 0.251815
C247  C     C_3   0.050803 0.799593 0.836192 -0.718062
H155  H     H_    0.079220 0.763079 0.820666 0.256541
H156  H     H_    0.012097 0.812652 0.813426 0.257150
H157  H     H_    0.079195 0.840556 0.839215 0.217579
C248  C     C_3   0.205479 0.772329 0.987874 -0.766132
H158  H     H_    0.192464 0.753264 0.955344 0.263461
H159  H     H_    0.242783 0.743093 0.003050 0.248094
H160  H     H_    0.164488 0.768905 0.008899 0.225545
C249  C     C_3   0.410214 0.348956 0.578700 -0.753411
H161  H     H_    0.398713 0.363844 0.544470 0.224420
H162  H     H_    0.368223 0.328470 0.592177 0.240689
H163  H     H_    0.421896 0.389789 0.598277 0.245354
C250  C     C_3   0.348555 0.375774 0.450462 -0.771000
H164  H     H_    0.393245 0.355950 0.461396 0.228521
H165  H     H_    0.327591 0.344031 0.426622 0.233630
H166  H     H_    0.354477 0.418540 0.431056 0.247435
C251  C     C_3   0.380810 0.646630 0.554381 -0.774922
H167  H     H_    0.389573 0.607566 0.577832 0.251769
H168  H     H_    0.332648 0.663299 0.557436 0.223933
H169  H     H_    0.384649 0.630180 0.520295 0.208042
C252  C     C_3   0.647647 0.626292 0.458745 -0.787986
H170  H     H_    0.602810 0.640519 0.471127 0.235066
H171  H     H_    0.666393 0.663101 0.437604 0.233743
H172  H     H_    0.644386 0.586471 0.436718 0.247953
C253  C     C_3   0.464003 0.670498 0.388795 -0.827086
H173  H     H_    0.421771 0.689020 0.404003 0.225331
H174  H     H_    0.463511 0.690499 0.354621 0.231733
H175  H     H_    0.464972 0.619971 0.385557 0.250326
C254  C     C_3   0.349144 0.596013 0.422536 -0.815571
H176  H     H_    0.344594 0.550397 0.407178 0.249755
H177  H     H_    0.339808 0.629612 0.395017 0.234430
H178  H     H_    0.395069 0.601703 0.436377 0.263436
C255  C     C_3   0.589736 0.345282 0.422068 -0.757593
H179  H     H_    0.602521 0.357213 0.456243 0.220686
H180  H     H_    0.630692 0.322212 0.407775 0.241328
H181  H     H_    0.578825 0.388255 0.403001 0.246162
C256  C     C_3   0.657443 0.373392 0.545430 -0.781903
H182  H     H_    0.613257 0.356263 0.533445 0.220905
H183  H     H_    0.678381 0.338775 0.568768 0.235983
H184  H     H_    0.650249 0.414556 0.565770 0.248153
C257  C     C_3   0.905117 0.850088 0.074661 -0.752112
H185  H     H_    0.896111 0.864655 0.040017 0.219832
H186  H     H_    0.862079 0.830069 0.086722 0.235228
H187  H     H_    0.915782 0.891053 0.094402 0.246904
C258  C     C_3   0.845070 0.880274 0.946712 -0.779544
H188  H     H_    0.891337 0.863402 0.956857 0.232731
H189  H     H_    0.826547 0.848968 0.921543 0.231988
H190  H     H_    0.847107 0.924894 0.928956 0.245975
C259  C     C_3   0.883891 0.145273 0.062892 -0.757597
H191  H     H_    0.896230 0.104877 0.084326 0.247082
H192  H     H_    0.836657 0.161209 0.070515 0.230875
H193  H     H_    0.882084 0.131066 0.027963 0.202410
C260  C     C_3   0.141120 0.137539 0.979032 -0.781480
H194  H     H_    0.100981 0.153451 0.997737 0.227822
H195  H     H_    0.156943 0.176323 0.958270 0.232483
H196  H     H_    0.128841 0.102112 0.955097 0.244868
C261  C     C_3   0.929116 0.158015 0.904757 -0.811710
H197  H     H_    0.904347 0.148406 0.935622 0.235443
H198  H     H_    0.895999 0.180721 0.881075 0.221473
H199  H     H_    0.945797 0.114018 0.890730 0.247193
C262  C     C_3   0.801245 0.091307 0.922572 -0.829299
H200  H     H_    0.766507 0.059461 0.909836 0.237953
H201  H     H_    0.796738 0.132905 0.901167 0.240062
H202  H     H_    0.846410 0.068952 0.917744 0.249233
C263  C     C_3   0.091185 0.847946 0.923065 -0.747422
H203  H     H_    0.103214 0.858585 0.957522 0.227298
H204  H     H_    0.132840 0.827162 0.908137 0.236353
H205  H     H_    0.078887 0.891298 0.904895 0.246284
C264  C     C_3   0.159642 0.875404 0.044136 -0.789280
H206  H     H_    0.113498 0.861455 0.033836 0.219914
H207  H     H_    0.181030 0.838397 0.065336 0.238259
H208  H     H_    0.156208 0.915711 0.065883 0.249082

loop_
_geom_bond_atom_site_label_1
_geom_bond_atom_site_label_2
_geom_bond_distance
_ccdc_geom_bond_type
C260  H195  1.109772 S    
O8    Cu2   1.984970 S    
O25   C13   1.299891 A    
C258  H188  1.103625 S    
C140  C260  1.506378 S    
C138  C258  1.513207 S    
C216  H62   1.107596 S    
C119  C239  1.516999 S    
O11   Cu7   1.982896 S    
C123  C139  1.418302 A    
C259  H191  1.109329 S    
C143  C263  1.510399 S    
C254  H178  1.092046 S    
C20   C34   1.391854 A    
O38   C196  1.298073 A    
C121  C137  1.420162 A    
O8    C4    1.302768 A    
C154  C182  1.425585 A    
C260  H196  1.102008 S    
C12   C37   1.448816 S    
C46   C70   1.418213 A    
O18   Cu2   1.963934 S    
C207  H37   1.110224 S    
C228  H99   1.106710 S    
O6    Cu4   1.984975 S    
C256  H184  1.104899 S    
C130  C146  1.418566 A    
C113  C233  1.516961 S    
C234  H116  1.106974 S    
C232  H110  1.109278 S    
C240  H135  1.108944 S    
O44   Cu11  1.974425 S    
C134  C150  1.416284 A    
C261  H199  1.109988 S    
C55   C63   1.418806 A    
Cu1   Cu3   2.700579 S    
Cu2   Cu4   2.697677 S    
C91   C227  1.507657 S    
O3    C3    1.289014 A    
C88   C104  1.415664 A    
C152  C180  1.417427 A    
C128  C248  1.516235 S    
C174  C190  1.411982 A    
C52   C62   1.420270 A    
C32   C54   1.405602 A    
C82   C98   1.415490 A    
C179  C194  1.494026 S    
Cu5   Cu7   2.700579 S    
C1    C185  1.459704 S    
C223  H84   1.108824 S    
C23   C45   1.405907 A    
O25   Cu5   1.964434 S    
C42   C58   1.418021 A    
O40   Cu10  1.974485 S    
C74   C210  1.519652 S    
C139  C259  1.515797 S    
N10   O67   1.300775 A    
N5    O58   1.301067 A    
C166  C186  1.427324 A    
C49   C73   1.418311 A    
C18   H2    1.080466 S    
C25   C37   1.387812 A    
C234  H117  1.108880 S    
C149  C179  1.440435 A    
C103  N1    1.440235 S    
C90   C226  1.516698 S    
O17   C9    1.300532 A    
C247  H156  1.109719 S    
C230  H106  1.110373 S    
C55   C79   1.419134 A    
C237  H125  1.110221 S    
C22   C48   1.403921 A    
C263  H203  1.098099 S    
C73   C209  1.519896 S    
C238  H130  1.109486 S    
C160  C184  1.416974 A    
C263  H205  1.109995 S    
N16   O80   1.301149 A    
C231  H107  1.095029 S    
C228  H98   1.107875 S    
C88   C224  1.513308 S    
C146  C178  1.411603 A    
C244  H148  1.110670 S    
C122  C138  1.416665 A    
C241  H138  1.105613 S    
C228  H100  1.110740 S    
C85   C221  1.489544 S    
C89   C225  1.507412 S    
C52   C76   1.417906 A    
C84   C100  1.415827 A    
C85   C101  1.412619 A    
O26   Cu6   1.963934 S    
C253  H174  1.112088 S    
C217  H65   1.101426 S    
C234  H118  1.109334 S    
C65   C78   1.416409 A    
C255  H179  1.101000 S    
C105  C121  1.412162 A    
N15   O77   1.299708 A    
C142  C158  1.408430 A    
O35   C195  1.294899 A    
C67   C80   1.415007 A    
C216  H64   1.110308 S    
C157  C173  1.410393 A    
O31   C15   1.297193 A    
C215  H61   1.109657 S    
C25   C51   1.403387 A    
C56   C64   1.419446 A    
C81   C97   1.414953 A    
C49   C61   1.421295 A    
C202  H22   1.109815 S    
C15   C34   1.459667 S    
C29   C55   1.405771 A    
C31   C53   1.398775 A    
C115  C235  1.516992 S    
C218  H68   1.109223 S    
C94   C174  1.418068 A    
C235  H119  1.107224 S    
O37   C193  1.319859 A    
C219  H72   1.092826 S    
C202  H20   1.107566 S    
C203  H24   1.110206 S    
N9    O65   1.299718 A    
C177  C196  1.472446 S    
C249  H163  1.110262 S    
O9    C5    1.301905 A    
C249  H161  1.100470 S    
C89   C105  1.414654 A    
C167  C185  1.420509 A    
C95   C111  1.407323 A    
O11   C7    1.292589 A    
C100  C116  1.408691 A    
C50   C74   1.418996 A    
N4    O55   1.301171 A    
C233  H115  1.105586 S    
O16   Cu6   1.984970 S    
C230  H105  1.109266 S    
C110  N10   1.435425 S    
C140  C156  1.420752 A    
C251  H168  1.109336 S    
C214  H57   1.110607 S    
C239  H132  1.105618 S    
C212  H50   1.107476 S    
C81   C161  1.417717 A    
N7    O61   1.299956 A    
C30   H14   1.080677 S    
C106  N14   1.434801 S    
C244  H147  1.108683 S    
C222  H80   1.107808 S    
C221  H77   1.097687 S    
C6    C190  1.510055 S    
N11   O69   1.299922 A    
C141  C261  1.503185 S    
N14   O75   1.301118 A    
C151  C167  1.397686 A    
C225  H89   1.100376 S    
C79   C215  1.516947 S    
C82   C218  1.505246 S    
C131  C147  1.431011 A    
C110  C126  1.414442 A    
C242  H140  1.106657 S    
C125  C141  1.413118 A    
C252  H172  1.105509 S    
C31   C39   1.390782 A    
C220  H74   1.108758 S    
C118  C238  1.507609 S    
O21   Cu1   1.970261 S    
C261  H197  1.102853 S    
C98   C114  1.412726 A    
O48   Cu12  1.974485 S    
C69   C205  1.519109 S    
C143  C159  1.433276 A    
C130  C250  1.511498 S    
O2    C2    1.295605 A    
C158  C182  1.414637 A    
C153  C181  1.430717 A    
O37   Cu10  1.977074 S    
C210  H45   1.110447 S    
N3    O54   1.301162 A    
N8    O63   1.301144 A    
C135  C255  1.512942 S    
C94   C110  1.412867 A    
C111  N9    1.432563 S    
O13   C7    1.322713 A    
C233  H114  1.108952 S    
O33   C193  1.273142 A    
C213  H54   1.108889 S    
N12   O71   1.300757 A    
C50   C62   1.420068 A    
C21   C47   1.403342 A    
C95   C175  1.416013 A    
O7    C1    1.296936 A    
O17   Cu1   1.964434 S    
C180  C195  1.463721 S    
O28   C14   1.300605 A    
C159  C181  1.435897 A    
O29   C15   1.303484 A    
C241  H137  1.108885 S    
O30   C16   1.296553 A    
O29   Cu5   1.970261 S    
O47   C199  1.290501 A    
C10   C39   1.463979 S    
C123  C243  1.517098 S    
C245  H149  1.110331 S    
C154  C170  1.420083 A    
C175  C189  1.421220 A    
C84   C164  1.421194 A    
C53   C77   1.419887 A    
C51   C61   1.420602 A    
C76   C212  1.519404 S    
N6    O60   1.300876 A    
C14   C35   1.459943 S    
C224  H87   1.108366 S    
O19   Cu3   1.970311 S    
C240  H134  1.106983 S    
C215  H60   1.110096 S    
C161  C185  1.422197 A    
N1    O50   1.300858 A    
O24   C12   1.297319 A    
C218  H70   1.109142 S    
C41   C65   1.419201 A    
C246  H153  1.101878 S    
O39   Cu10  1.982821 S    
C92   C108  1.413149 A    
C105  N15   1.439318 S    
C93   C109  1.409289 A    
C131  C251  1.513018 S    
C221  H79   1.111143 S    
C54   C64   1.419531 A    
C229  H102  1.108817 S    
C91   C171  1.415015 A    
C178  C193  1.476883 S    
C26   C52   1.404018 A    
C232  H111  1.108129 S    
C132  C148  1.408827 A    
C201  H19   1.110127 S    
C176  C192  1.423825 A    
O15   Cu7   1.971657 S    
C160  C176  1.394804 A    
C231  H109  1.109974 S    
C30   C56   1.403241 A    
C205  H29   1.107947 S    
C45   C59   1.420320 A    
C138  C154  1.419567 A    
C250  H165  1.109222 S    
C28   C50   1.404958 A    
C83   C99   1.408041 A    
C212  H52   1.110341 S    
C17   C43   1.403990 A    
C252  H170  1.092027 S    
C249  H162  1.110198 S    
C135  C151  1.427820 A    
C222  H82   1.110958 S    
C120  C240  1.517220 S    
C242  H141  1.108832 S    
C96   C232  1.512299 S    
C261  H198  1.110467 S    
C69   C74   1.416574 A    
C126  C246  1.511126 S    
C208  H38   1.107566 S    
C225  H91   1.110671 S    
O32   Cu6   1.970830 S    
C107  C123  1.410417 A    
C125  C245  1.517522 S    
C243  H145  1.110059 S    
O41   C197  1.290776 A    
C107  N13   1.436600 S    
C220  H76   1.107303 S    
O43   C199  1.298349 A    
C151  C177  1.434196 A    
C165  C187  1.432139 A    
C235  H121  1.110036 S    
O22   Cu4   1.963871 S    
C114  C234  1.516971 S    
O48   C198  1.315712 A    
C117  C133  1.397122 A    
O23   Cu3   1.964513 S    
C124  C140  1.417842 A    
C172  C192  1.427297 A    
C3    C187  1.476649 S    
C202  H21   1.110308 S    
O12   C8    1.298018 A    
O1    C1    1.301054 A    
C150  C178  1.425446 A    
C93   C173  1.424336 A    
C146  C162  1.394903 A    
C245  H150  1.105782 S    
C32   C40   1.392479 A    
C91   C107  1.409292 A    
C219  H71   1.109306 S    
C48   C72   1.419104 A    
C121  C241  1.516690 S    
C54   C78   1.417964 A    
C23   C35   1.391614 A    
C150  C166  1.408117 A    
C60   C61   1.403949 A    
C144  C160  1.416247 A    
C87   C223  1.508217 S    
C181  C200  1.469715 S    
C155  C183  1.418290 A    
C42   C66   1.416657 A    
C7    C191  1.498405 S    
C19   C33   1.389850 A    
O47   Cu12  1.982821 S    
N13   O74   1.300960 A    
C78   C214  1.519804 S    
C29   C39   1.391622 A    
C102  N2    1.438418 S    
C173  C191  1.420967 A    
C83   C163  1.416316 A    
C103  C119  1.412661 A    
O30   Cu8   1.963871 S    
N2    O51   1.300822 A    
C260  H194  1.100508 S    
C245  H151  1.109852 S    
C85   C165  1.445426 A    
C144  C264  1.512432 S    
C163  C187  1.419577 A    
C253  H173  1.105592 S    
C229  H101  1.106006 S    
C96   C176  1.419797 A    
C117  C237  1.510270 S    
C223  H83   1.103629 S    
C109  N11   1.432504 S    
C31   H15   1.064458 S    
C226  H93   1.109471 S    
Cu11  Cu12  2.679764 S    
C129  C249  1.511509 S    
C9    C40   1.463721 S    
N10   O68   1.300774 A    
N5    O57   1.301205 A    
O45   Cu12  1.977074 S    
O10   C6    1.311303 A    
C11   C38   1.455881 S    
C90   C106  1.412939 A    
C18   C34   1.395405 A    
C148  C164  1.395270 A    
C13   C36   1.466308 S    
C215  H59   1.107989 S    
C184  C199  1.465262 S    
C67   C203  1.519787 S    
C86   C102  1.404722 A    
C83   C219  1.506185 S    
C255  H181  1.110278 S    
C45   C69   1.418611 A    
C247  H155  1.110383 S    
C262  H201  1.106334 S    
C47   C71   1.419130 A    
C58   C63   1.399214 A    
C137  C257  1.511019 S    
C204  H28   1.107908 S    
C206  H32   1.110047 S    
C129  C145  1.427929 A    
C211  H48   1.108031 S    
C44   C58   1.414948 A    
C142  C262  1.515092 S    
C216  H63   1.110359 S    
O36   C196  1.294693 A    
O31   Cu7   1.964513 S    
C127  C247  1.516461 S    
C133  C149  1.426052 A    
C72   C208  1.519810 S    
C264  H207  1.110460 S    
C92   C172  1.422183 A    
C84   C220  1.496494 S    
C122  C242  1.517877 S    
C112  N12   1.435428 S    
O43   Cu11  1.977134 S    
C71   C76   1.415477 A    
C108  N16   1.435916 S    
C46   C60   1.419489 A    
C108  C124  1.411841 A    
C2    C186  1.466364 S    
C237  H126  1.110649 S    
C226  H92   1.108787 S    
C243  H143  1.107019 S    
O21   C11   1.300116 A    
C28   C38   1.391143 A    
C258  H189  1.108870 S    
C68   C79   1.415516 A    
O22   C12   1.295973 A    
C242  H142  1.110028 S    
C153  C169  1.396141 A    
C24   C46   1.404804 A    
C96   C112  1.414338 A    
C208  H39   1.109826 S    
C170  C190  1.420433 A    
O13   Cu5   1.971670 S    
C207  H36   1.110077 S    
C86   C222  1.509183 S    
C19   H3    1.082208 S    
C26   C38   1.389315 A    
C248  H159  1.110037 S    
O41   Cu11  1.982878 S    
C30   C40   1.393204 A    
C95   C231  1.502634 S    
O34   C194  1.281973 A    
C219  H73   1.110805 S    
N3    O53   1.301013 A    
O3    Cu3   1.982896 S    
C152  C168  1.397734 A    
C102  C118  1.401211 A    
C90   C170  1.420869 A    
C227  H95   1.108477 S    
C258  H190  1.105482 S    
O44   C200  1.291581 A    
C182  C197  1.511201 S    
C147  C179  1.415631 A    
C203  H23   1.107774 S    
C256  H183  1.108888 S    
C88   C168  1.420656 A    
C27   C37   1.388457 A    
C164  C188  1.427540 A    
C145  C177  1.432157 A    
N11   O70   1.300805 A    
C232  H112  1.110568 S    
C114  C130  1.416774 A    
C94   C230  1.512338 S    
C24   H8    1.081508 S    
C205  H31   1.110229 S    
C206  H33   1.108075 S    
C28   H12   1.081757 S    
C124  C244  1.518215 S    
N4    O56   1.300851 A    
C48   C60   1.419697 A    
O23   C11   1.299828 A    
C118  C134  1.405118 A    
C22   H6    1.081073 S    
C223  H85   1.110440 S    
C66   C77   1.413720 A    
C159  C175  1.399949 A    
C259  H193  1.103174 S    
C238  H129  1.109884 S    
C132  C252  1.491851 S    
C158  C174  1.402241 A    
C141  C157  1.426157 A    
C227  H97   1.110284 S    
N14   O76   1.300804 A    
C4    C188  1.471289 S    
C183  C198  1.508165 S    
O42   Cu11  1.981258 S    
C16   C33   1.452569 S    
C207  H35   1.107822 S    
C19   C41   1.405831 A    
C262  H202  1.101260 S    
C81   C217  1.507863 S    
C247  H157  1.105736 S    
C25   H9    1.082316 S    
C87   C103  1.415405 A    
O5    C3    1.316056 A    
C115  C131  1.418755 A    
C239  H133  1.110066 S    
C248  H160  1.107650 S    
C221  H78   1.107425 S    
N16   O79   1.300897 A    
O7    Cu3   1.971657 S    
C71   C207  1.519550 S    
C254  H177  1.111069 S    
C252  H171  1.107677 S    
C87   C167  1.419109 A    
O14   C6    1.312991 A    
C210  H44   1.107457 S    
N8    O64   1.300876 A    
C257  H187  1.110135 S    
C44   C68   1.417172 A    
C51   C75   1.417349 A    
O18   C10   1.298008 A    
C89   C169  1.417444 A    
C213  H53   1.109584 S    
O42   C198  1.297322 A    
N12   O72   1.300812 A    
O5    Cu1   1.971670 S    
C57   C64   1.404010 A    
C120  C136  1.418575 A    
C145  C161  1.396873 A    
C156  C172  1.405918 A    
C59   C62   1.403842 A    
C205  H30   1.110159 S    
C116  C236  1.517524 S    
C43   C57   1.421056 A    
C253  H175  1.108024 S    
C97   C113  1.412763 A    
C217  H66   1.108776 S    
C75   C211  1.520017 S    
C204  H27   1.110381 S    
C133  C253  1.500677 S    
C101  C117  1.394260 A    
O14   Cu8   1.984975 S    
C251  H169  1.097737 S    
C211  H49   1.110611 S    
C92   C228  1.511641 S    
C65   C201  1.519849 S    
C214  H56   1.108194 S    
C126  C142  1.420176 A    
C224  H86   1.109078 S    
C230  H104  1.109270 S    
C212  H51   1.109718 S    
C209  H41   1.107650 S    
C21   C35   1.391839 A    
C201  H17   1.107541 S    
C218  H69   1.108991 S    
C246  H152  1.109213 S    
C257  H185  1.100296 S    
O39   C195  1.293101 A    
O4    Cu4   1.973755 S    
O28   Cu8   1.970784 S    
C248  H158  1.108094 S    
C203  H25   1.110254 S    
N9    O66   1.300660 A    
C119  C135  1.419779 A    
C32   H16   1.081904 S    
C17   C33   1.388866 A    
C70   C206  1.519507 S    
C27   C49   1.405051 A    
C171  C191  1.420608 A    
C231  H108  1.109440 S    
C244  H146  1.107038 S    
O34   Cu9   1.981258 S    
O20   C10   1.302594 A    
C20   H4    1.079506 S    
O32   C16   1.298421 A    
C148  C180  1.419617 A    
C236  H123  1.108751 S    
C20   C42   1.400829 A    
C111  C127  1.405194 A    
C98   N6    1.435947 S    
C112  C128  1.414171 A    
O38   Cu10  1.981315 S    
C256  H182  1.102657 S    
C104  N4    1.435503 S    
C222  H81   1.106192 S    
O2    Cu2   1.973743 S    
C250  H164  1.101014 S    
C134  C254  1.492041 S    
C264  H208  1.107216 S    
C162  C186  1.425357 A    
O16   C8    1.302215 A    
C155  C171  1.413012 A    
C104  C120  1.415786 A    
C211  H47   1.110087 S    
C220  H75   1.109110 S    
C259  H192  1.108189 S    
C47   C59   1.419404 A    
C235  H120  1.109116 S    
C169  C189  1.420702 A    
O6    C2    1.302903 A    
Cu6   Cu8   2.697677 S    
C106  C122  1.412525 A    
C227  H96   1.095051 S    
O27   Cu7   1.970311 S    
C238  H128  1.110180 S    
C239  H131  1.109128 S    
C80   C216  1.519783 S    
C168  C188  1.427431 A    
C210  H46   1.110273 S    
C5    C189  1.462057 S    
C206  H34   1.110748 S    
C128  C144  1.419720 A    
C254  H176  1.110947 S    
O46   C200  1.299947 A    
C240  H136  1.109364 S    
C127  C143  1.418329 A    
C100  N8    1.435983 S    
C213  H55   1.109152 S    
N15   O78   1.300887 A    
C139  C155  1.427562 A    
C18   C44   1.400702 A    
C217  H67   1.110661 S    
C68   C204  1.518524 S    
O19   C9    1.302219 A    
C137  C153  1.427373 A    
C101  N3    1.439925 S    
C208  H40   1.110102 S    
C236  H122  1.106836 S    
C24   C36   1.393481 A    
C77   C213  1.516958 S    
N7    O62   1.300827 A    
C156  C184  1.426190 A    
C257  H186  1.110420 S    
C70   C73   1.415575 A    
O24   Cu2   1.970830 S    
N13   O73   1.301156 A    
O12   Cu8   1.973755 S    
O26   C14   1.298113 A    
N2    O52   1.301050 A    
C136  C152  1.417539 A    
C201  H18   1.110559 S    
C214  H58   1.109986 S    
O33   Cu9   1.982878 S    
C8    C192  1.469781 S    
C224  H88   1.110588 S    
C204  H26   1.108462 S    
O36   Cu9   1.974425 S    
C209  H43   1.110150 S    
O40   C194  1.320634 A    
C97   N7    1.440246 S    
C246  H154  1.110160 S    
C29   H13   1.073447 S    
C22   C36   1.393835 A    
O45   C197  1.321616 A    
C56   C80   1.418610 A    
C27   H11   1.082266 S    
O35   Cu9   1.977134 S    
C136  C256  1.511994 S    
C157  C183  1.428811 A    
C263  H204  1.109973 S    
O4    C4    1.298463 A    
Cu9   Cu10  2.679764 S    
O46   Cu12  1.981315 S    
C236  H124  1.110814 S    
C147  C163  1.402438 A    
C66   C202  1.519685 S    
C109  C125  1.402873 A    
C243  H144  1.109240 S    
C113  C129  1.420774 A    
C241  H139  1.110887 S    
C255  H180  1.110435 S    
C93   C229  1.509590 S    
O20   Cu4   1.970784 S    
C262  H200  1.111321 S    
C209  H42   1.110615 S    
C41   C57   1.420893 A    
C116  C132  1.412680 A    
C149  C165  1.412743 A    
N6    O59   1.301193 A    
C226  H94   1.110556 S    
C229  H103  1.108992 S    
C43   C67   1.418235 A    
C233  H113  1.110780 S    
O10   Cu6   1.973743 S    
C250  H166  1.104645 S    
C237  H127  1.109754 S    
C17   H1    1.082227 S    
C99   C115  1.408877 A    
O15   C5    1.296961 A    
O9    Cu5   1.982902 S    
C82   C162  1.420568 A    
C225  H90   1.108290 S    
C264  H206  1.102634 S    
N1    O49   1.300152 A    
C99   N5    1.437044 S    
C21   H5    1.079862 S    
C251  H167  1.109283 S    
O1    Cu1   1.982902 S    
C86   C166  1.429865 A    
C72   C75   1.415023 A    
C23   H7    1.081823 S    
C53   C63   1.414378 A    
C26   H10   1.082140 S    
O27   C13   1.303656 A    
