data_mof_unit_34642.cif
_audit_creation_date              2012-12-11T16:58:16-0500
_audit_creation_method            fapswitch 2.2
_symmetry_space_group_name_H-M    P1
_symmetry_Int_Tables_number       1
_space_group_crystal_system       monoclinic
_cell_length_a                    16.91188
_cell_length_b                    7.26169
_cell_length_c                    16.821056
_cell_angle_alpha                 90.0
_cell_angle_beta                  100.352277
_cell_angle_gamma                 90.0
_cell_volume                      2032.14647499

loop_
_atom_site_label
_atom_site_type_symbol
_atom_type_description
_atom_site_fract_x
_atom_site_fract_y
_atom_site_fract_z
_atom_type_partial_charge
O1    O     O_R   0.413450 0.494370 0.415710 -0.518720
O2    O     O_R   0.586550 0.994370 0.584290 -0.518720
O3    O     O_R   0.578420 0.819350 0.429360 -0.524229
O4    O     O_R   0.421580 0.319350 0.570640 -0.524230
C1    C     C_R   0.604921 0.654636 0.414061 0.859670
C2    C     C_R   0.395079 0.154636 0.585939 0.859670
O5    O     O_R   0.413570 0.823780 0.406240 -0.538865
O6    O     O_R   0.586430 0.323780 0.593760 -0.538865
O7    O     O_R   0.420530 0.998740 0.561000 -0.523963
O8    O     O_R   0.579470 0.498740 0.439000 -0.523963
C3    C     C_R   0.386090 0.655338 0.383800 0.764073
C4    C     C_R   0.613909 0.155338 0.616200 0.764074
O9    O     O_3   0.502480 0.662320 0.550800 -0.367859
O10   O     O_3   0.497520 0.162320 0.449200 -0.367858
V1    V     V_3+5 0.499540 0.935370 0.490580 1.704509
V2    V     V_3+5 0.500460 0.435370 0.509420 1.704509
C5    C     C_R   0.741253 0.005329 0.687959 -0.029499
C6    C     C_R   0.258747 0.505329 0.312041 -0.029499
C7    C     C_R   0.684205 0.147008 0.683133 -0.154576
C8    C     C_R   0.315795 0.647008 0.316867 -0.154577
C9    C     C_R   0.697559 0.284303 0.743202 -0.202499
C10   C     C_R   0.302441 0.784303 0.256798 -0.202499
H1    H     H_    0.655200 0.396349 0.742119 0.227830
H2    H     H_    0.344800 0.896349 0.257881 0.227830
C11   C     C_R   0.761990 0.270770 0.809025 0.697740
C12   C     C_R   0.238010 0.770770 0.190975 0.697740
C13   C     C_R   0.817270 0.123014 0.815077 -0.188745
C14   C     C_R   0.182730 0.623014 0.184923 -0.188744
C15   C     C_R   0.806844 0.994782 0.751689 -0.184899
C16   C     C_R   0.193156 0.494782 0.248311 -0.184899
C17   C     C_3   0.800995 0.789539 0.755082 0.799815
C18   C     C_3   0.199006 0.289539 0.244917 0.799814
C19   C     C_3   0.729542 0.801394 0.685840 0.797698
C20   C     C_3   0.270458 0.301394 0.314160 0.797698
C21   C     C_R   0.331626 0.138261 0.636446 -0.334194
C22   C     C_R   0.668373 0.638261 0.363553 -0.334194
C23   C     C_R   0.170098 0.130480 0.866365 -0.319075
C24   C     C_R   0.829902 0.630480 0.133635 -0.319075
C25   C     C_R   0.289834 0.291718 0.837965 0.493495
C26   C     C_R   0.710166 0.791720 0.162035 0.493495
C27   C     C_R   0.235621 0.252114 0.890903 0.187837
C28   C     C_R   0.764379 0.752115 0.109097 0.187837
C29   C     C_R   0.163015 0.039309 0.791864 0.661564
C30   C     C_R   0.836984 0.539308 0.208136 0.661564
C31   C     C_R   0.218762 0.071582 0.739618 -0.237130
C32   C     C_R   0.781237 0.571581 0.260382 -0.237131
C33   C     C_R   0.282033 0.200907 0.762384 -0.228705
C34   C     C_R   0.717968 0.700908 0.237616 -0.228704
C35   C     C_R   0.337346 0.234557 0.709546 0.614159
C36   C     C_R   0.662655 0.734558 0.290454 0.614159
C37   C     C_R   0.268739 0.011822 0.614238 0.446203
C38   C     C_R   0.731261 0.511821 0.385761 0.446203
C39   C     C_R   0.211970 0.978284 0.664682 0.406689
C40   C     C_R   0.788029 0.478283 0.335317 0.406690
O11   O     O_R   0.920630 0.775410 0.061150 -0.541167
O12   O     O_R   0.079370 0.275410 0.938850 -0.541167
O13   O     O_R   0.086500 0.441450 0.093690 -0.534084
O14   O     O_R   0.913500 0.941450 0.906310 -0.534084
C41   C     C_R   0.114443 0.610040 0.115755 0.772128
C42   C     C_R   0.885557 0.110040 0.884244 0.772128
O15   O     O_R   0.921670 0.445960 0.070740 -0.509610
O16   O     O_R   0.078330 0.945960 0.929260 -0.509611
O17   O     O_R   0.913380 0.271130 0.915780 -0.514699
O18   O     O_R   0.086620 0.771130 0.084220 -0.514699
C43   C     C_R   0.895300 0.614862 0.085256 0.786265
C44   C     C_R   0.104700 0.114862 0.914744 0.786264
O19   O     O_3   0.997500 0.603030 0.949220 -0.383875
O20   O     O_3   0.002500 0.103030 0.050780 -0.383874
V3    V     V_3+5 0.000470 0.329940 0.009420 1.645405
V4    V     V_3+5 0.999530 0.829940 0.990580 1.645405
O21   O     O_3   0.150268 0.853110 0.642434 -0.556237
H3    H     H_    0.153450 0.799134 0.589047 0.362590
O22   O     O_3   0.849731 0.353107 0.357565 -0.556237
H4    H     H_    0.846549 0.299131 0.410952 0.362590
O23   O     O_3   0.248725 0.334087 0.966394 -0.612012
H5    H     H_    0.224417 0.257396 0.004315 0.357278
O24   O     O_3   0.751275 0.834090 0.033606 -0.612012
H6    H     H_    0.775583 0.757398 0.995685 0.357277
F1    F     F_    0.099415 0.924428 0.769574 -0.619112
F2    F     F_    0.900584 0.424426 0.230425 -0.619111
F3    F     F_    0.765813 0.393062 0.870489 -0.612246
F4    F     F_    0.234187 0.893062 0.129511 -0.612246
F5    F     F_    0.781212 0.727166 0.826760 -0.620507
F6    F     F_    0.218788 0.227166 0.173240 -0.620506
O25   O     O_3   0.867935 0.700459 0.734177 -0.626216
H7    H     H_    0.910837 0.705658 0.782786 0.328545
O26   O     O_3   0.132065 0.200459 0.265822 -0.626216
H8    H     H_    0.089163 0.205657 0.217214 0.328545
F7    F     F_    0.657110 0.747599 0.706364 -0.654931
F8    F     F_    0.342890 0.247600 0.293635 -0.654931
O27   O     O_3   0.743163 0.724540 0.613061 -0.625546
H9    H     H_    0.735718 0.589817 0.618170 0.324943
O28   O     O_3   0.256837 0.224540 0.386939 -0.625546
H10   H     H_    0.264283 0.089817 0.381830 0.324943
F9    F     F_    0.399489 0.354104 0.730186 -0.605229
F10   F     F_    0.600511 0.854106 0.269814 -0.605229
F11   F     F_    0.262659 0.920856 0.542712 -0.674739
F12   F     F_    0.737341 0.420854 0.457287 -0.674739
O29   O     O_3   0.352034 0.416284 0.859416 -0.555509
H11   H     H_    0.348201 0.476876 0.911254 0.360239
O30   O     O_3   0.647967 0.916287 0.140585 -0.555509
H12   H     H_    0.651799 0.976877 0.088747 0.360239

loop_
_geom_bond_atom_site_label_1
_geom_bond_atom_site_label_2
_ccdc_geom_bond_type
C37   F11   S    
O26   H8    S    
O4    V2    S    
O28   H10   S    
C17   O25   S    
C13   C15   A    
C5    C15   A    
O22   H4    S    
O1    C3    A    
C20   O28   S    
O2    C4    A    
C2    O7    A    
C22   C36   A    
C33   C35   A    
O24   H6    S    
C34   C36   A    
O5    C3    A    
C41   O18   A    
O30   H12   S    
C42   O17   A    
C7    C9    A    
C24   C28   A    
C13   C42   S    
C19   O27   S    
O13   C41   A    
O14   C42   A    
C1    C22   S    
C17   F5    S    
C2    C21   S    
O16   V4    S    
C26   O30   S    
O17   V3    S    
C38   C40   A    
O20   V3    S    
C21   C35   A    
C17   C19   S    
C6    C16   A    
O18   V4    S    
C22   C38   A    
C26   C28   A    
C31   C39   A    
O6    V2    S    
C11   F3    S    
C5    C19   S    
O11   C43   A    
C30   C32   A    
C31   C33   A    
C18   F6    S    
C32   C34   A    
C3    C8    S    
O16   C44   A    
C30   F2    S    
O4    C2    A    
O27   H9    S    
O14   V4    S    
O5    V1    S    
O25   H7    S    
C18   O26   S    
C37   C39   A    
C18   C20   S    
C23   C29   A    
O23   H5    S    
C20   F8    S    
C24   C30   A    
C19   F7    S    
C27   O23   S    
C40   O22   S    
C29   C31   A    
C25   O29   S    
O29   H11   S    
C24   C43   S    
O6    C4    A    
C23   C44   S    
C32   C40   A    
O1    V2    S    
C35   F9    S    
O2    V1    S    
C6    C20   S    
C8    C10   A    
C9    H1    S    
C21   C37   A    
C10   H2    S    
C39   O21   S    
O3    V1    S    
C25   C33   A    
C14   C41   S    
O15   V3    S    
C26   C34   A    
C9    C11   A    
O3    C1    A    
C11   C13   A    
C12   C14   A    
O19   V4    S    
C14   C16   A    
O7    V1    S    
C1    O8    A    
C15   C17   S    
O8    V2    S    
C16   C18   S    
C36   F10   S    
O12   C44   A    
C4    C7    S    
C38   F12   S    
C5    C7    A    
C6    C8    A    
C23   C27   A    
O11   V4    S    
O15   C43   A    
O21   H3    S    
C25   C27   A    
C28   O24   S    
C12   F4    S    
O12   V3    S    
C10   C12   A    
O9    V2    S    
O10   V1    S    
O13   V3    S    
C29   F1    S    
