data_mof_unit_19871.cif
_audit_creation_date              2012-12-10T21:32:06-0500
_audit_creation_method            fapswitch 2.2
_symmetry_space_group_name_H-M    P1
_symmetry_Int_Tables_number       1
_space_group_crystal_system       triclinic
_cell_length_a                    15.387923
_cell_length_b                    16.113054
_cell_length_c                    16.898771
_cell_angle_alpha                 91.279598
_cell_angle_beta                  88.703638
_cell_angle_gamma                 109.882035
_cell_volume                      3938.75887622

loop_
_atom_site_label
_atom_site_type_symbol
_atom_type_description
_atom_site_fract_x
_atom_site_fract_y
_atom_site_fract_z
_atom_type_partial_charge
C1    C     C_R   0.503434 0.490909 0.347250 0.929773
C2    C     C_R   0.522787 0.454551 0.779462 -0.304756
C3    C     C_R   0.481546 0.552510 0.139940 0.235545
C4    C     C_R   0.509979 0.444598 0.860475 0.236633
C5    C     C_R   0.528234 0.503600 0.097562 0.270040
C6    C     C_R   0.463174 0.494169 0.901827 0.269554
C7    C     C_R   0.569326 0.451878 0.136991 -0.273198
C8    C     C_R   0.423552 0.546404 0.861350 -0.277492
C9    C     C_R   0.563084 0.445540 0.219222 -0.063334
C10   C     C_R   0.432045 0.553017 0.779167 -0.060686
C11   C     C_R   0.558141 0.768300 0.535408 -0.055016
C12   C     C_R   0.495879 0.508859 0.652692 0.926130
C13   C     C_R   0.438771 0.230867 0.468126 -0.051321
C14   C     C_R   0.570564 0.858043 0.544859 0.102532
C15   C     C_R   0.424094 0.140461 0.460977 0.100818
C16   C     C_R   0.326025 0.444958 0.501385 0.930150
C17   C     C_R   0.673980 0.554889 0.496161 0.911512
C18   C     C_R   0.511494 0.893288 0.506358 0.292700
C19   C     C_R   0.486693 0.106135 0.495047 0.302851
C20   C     C_R   0.439781 0.835376 0.459673 -0.270413
C21   C     C_R   0.562062 0.165021 0.537468 -0.271750
C22   C     C_R   0.429711 0.745084 0.452697 -0.029437
C23   C     C_R   0.902081 0.395266 0.428309 -0.273310
C24   C     C_R   0.572670 0.255457 0.544173 -0.034932
C25   C     C_R   0.225809 0.410487 0.490687 -0.109294
C26   C     C_R   0.774087 0.587969 0.481724 -0.086818
C27   C     C_R   0.080398 0.290693 0.468931 0.257169
C28   C     C_R   0.919261 0.706075 0.455278 0.218412
C29   C     C_R   0.175767 0.320450 0.485156 -0.234751
C30   C     C_R   0.824307 0.677544 0.474014 -0.253499
C31   C     C_R   0.181421 0.471309 0.481012 -0.237163
C32   C     C_R   0.818359 0.526396 0.471193 -0.212780
C33   C     C_R   0.090235 0.445810 0.456788 0.063929
C34   C     C_R   0.102304 0.600789 0.432119 -0.292293
C35   C     C_R   0.911448 0.551049 0.449588 0.055809
C36   C     C_R   0.037524 0.354087 0.450765 0.005249
C37   C     C_R   0.964625 0.642547 0.443265 0.033129
C38   C     C_R   0.049598 0.511010 0.443525 0.078343
C39   C     C_R   0.953395 0.485471 0.440831 0.068245
C40   C     C_2   0.887771 0.240783 0.399677 0.926794
C41   C     C_2   0.122507 0.755655 0.408212 0.940629
C42   C     C_3   0.270464 0.032771 0.467006 -0.730923
C43   C     C_3   0.614521 0.931630 0.670929 -0.732280
C44   C     C_3   0.069300 0.132729 0.475003 -0.760016
C45   C     C_R   0.943634 0.330307 0.428527 -0.059890
C46   C     C_3   0.941715 0.848723 0.397757 -0.706888
C47   C     C_3   0.475081 0.305313 0.926667 -0.743818
C48   C     C_3   0.512848 0.691682 0.074440 -0.742356
C49   C     C_2   0.614766 0.395540 0.258142 0.944033
C50   C     C_2   0.381095 0.602739 0.738732 0.938058
C51   C     C_R   0.061125 0.665734 0.428569 -0.022130
C52   C     C_R   0.511832 0.490744 0.261431 -0.144527
C53   C     C_R   0.484582 0.508096 0.738290 -0.145830
C54   C     C_R   0.471479 0.543288 0.221219 -0.298629
H1    H     H_    0.391395 0.257175 0.440248 0.143840
H2    H     H_    0.211022 0.274244 0.496229 0.161609
H3    H     H_    0.830217 0.374892 0.412235 0.167716
H4    H     H_    0.176014 0.621148 0.420900 0.152521
H5    H     H_    0.561375 0.418476 0.748223 0.164946
H6    H     H_    0.433394 0.579201 0.253393 0.165810
H7    H     H_    0.606920 0.416858 0.102957 0.189136
H8    H     H_    0.385508 0.581674 0.894469 0.188889
H9    H     H_    0.881287 0.135930 0.329545 0.348639
H10   H     H_    0.153314 0.856459 0.331982 0.339418
H11   H     H_    0.325810 0.116517 0.373947 0.223644
H12   H     H_    0.603590 0.741430 0.565587 0.143690
H13   H     H_    0.243287 0.076841 0.503730 0.216848
H14   H     H_    0.292162 0.989222 0.506200 0.276781
H15   H     H_    0.214176 0.990507 0.428916 0.248015
H16   H     H_    0.700065 0.892302 0.594087 0.215372
H17   H     H_    0.586317 0.869653 0.704975 0.245613
H18   H     H_    0.561107 0.963511 0.667574 0.255953
H19   H     H_    0.674732 0.977475 0.702770 0.234281
H20   H     H_    0.972436 0.188257 0.518952 0.220162
H21   H     H_    0.107807 0.134855 0.530237 0.220840
H22   H     H_    0.116318 0.142102 0.422545 0.251464
H23   H     H_    0.392269 0.859271 0.428870 0.205469
H24   H     H_    0.015218 0.066598 0.469639 0.242274
H25   H     H_    0.974193 0.826303 0.511893 0.219108
H26   H     H_    0.993900 0.916054 0.394863 0.235660
H27   H     H_    0.873778 0.854658 0.414270 0.213083
H28   H     H_    0.937472 0.817007 0.338215 0.278963
H29   H     H_    0.599325 0.373725 0.870991 0.222723
H30   H     H_    0.438771 0.265735 0.875019 0.234410
H31   H     H_    0.424066 0.320294 0.966836 0.257181
H32   H     H_    0.508210 0.265618 0.959789 0.244881
H33   H     H_    0.390084 0.621315 0.131251 0.226046
H34   H     H_    0.612318 0.141866 0.564852 0.185030
H35   H     H_    0.549301 0.731506 0.125920 0.236439
H36   H     H_    0.478231 0.730606 0.042025 0.244583
H37   H     H_    0.563956 0.677858 0.033570 0.255572
H38   H     H_    0.698942 0.390079 0.345928 0.339703
H39   H     H_    0.297566 0.606886 0.649629 0.344764
H40   H     H_    0.374841 0.700716 0.417508 0.132516
H41   H     H_    0.630178 0.300465 0.576245 0.131921
H42   H     H_    0.779642 0.458214 0.483343 0.163718
H43   H     H_    0.219100 0.539802 0.494151 0.172640
H44   H     H_    0.790098 0.725592 0.484106 0.156254
N1    N     N_2   0.533212 0.503263 0.014737 -0.156916
N2    N     N_2   0.969365 0.798327 0.455960 -0.303618
N3    N     N_2   0.545031 0.385707 0.900145 -0.299889
N4    N     N_2   0.444449 0.610452 0.101195 -0.298712
N5    N     N_2   0.457709 0.495196 0.984669 -0.154969
N6    N     N_R   0.489120 0.713640 0.490430 -0.098324
N7    N     N_R   0.510880 0.286360 0.509570 -0.096890
N8    N     N_2   0.527943 0.986070 0.516200 -0.155145
N9    N     N_2   0.471093 0.013627 0.483980 -0.155375
N10   N     N_2   0.347086 0.084632 0.417885 -0.300968
N11   N     N_2   0.643565 0.912927 0.592522 -0.302552
N12   N     N_2   0.025881 0.199611 0.478107 -0.276435
O1    O     O_R   0.503890 0.423710 0.387290 -0.598590
O2    O     O_R   0.926305 0.196012 0.345207 -0.770503
O3    O     O_2   0.190072 0.792912 0.448555 -0.660055
O4    O     O_R   0.105797 0.795736 0.340496 -0.789732
O5    O     O_2   0.614231 0.324842 0.229831 -0.618214
O6    O     O_R   0.667409 0.430783 0.324928 -0.792593
O7    O     O_2   0.381141 0.673620 0.766215 -0.630824
O8    O     O_R   0.329558 0.566901 0.671454 -0.795405
O9    O     O_R   0.496110 0.576290 0.612710 -0.600883
O10   O     O_R   0.496910 0.560910 0.381140 -0.618110
O11   O     O_R   0.503090 0.439090 0.618860 -0.617294
O12   O     O_R   0.373240 0.392210 0.504830 -0.638384
O13   O     O_R   0.626760 0.607790 0.495170 -0.634846
O14   O     O_R   0.366260 0.529410 0.498680 -0.598041
O15   O     O_R   0.633740 0.470590 0.501320 -0.600328
O16   O     O_2   0.807048 0.207621 0.421129 -0.634314
Zn1   Zn    Zn3+2 0.504660 0.408390 0.504100 0.960710
Zn2   Zn    Zn3+2 0.495340 0.591610 0.495900 0.960562

loop_
_geom_bond_atom_site_label_1
_geom_bond_atom_site_label_2
_ccdc_geom_bond_type
C25   C31   A    
C14   N11   S    
N1    N5    D    
C26   C32   A    
C43   H18   S    
C23   C45   A    
C27   C29   A    
C50   O7    D    
C14   C18   A    
C2    C4    A    
C41   O4    S    
C40   O2    S    
C54   H6    S    
C15   C19   A    
C34   C51   A    
C20   H23   S    
C47   N3    S    
C17   C26   S    
C47   H31   S    
C35   C37   A    
O11   Zn1   S    
C38   C39   A    
C37   C51   A    
C3    C54   A    
N8    N9    D    
C12   O9    A    
H9    O2    S    
C33   C36   A    
C22   N6    A    
C23   H3    S    
O12   Zn1   S    
C44   H22   S    
C10   C53   A    
C16   O12   A    
C7    H7    S    
C19   N9    S    
C46   H28   S    
C43   H19   S    
C17   O13   A    
C12   O11   A    
C5    N1    S    
C27   N12   S    
C48   H37   S    
C31   C33   A    
C11   N6    A    
H11   N10   S    
C12   C53   S    
C11   H12   S    
O14   Zn2   S    
O9    Zn2   S    
C28   N2    S    
C21   H34   S    
C48   N4    S    
C48   H36   S    
C42   H14   S    
C22   H40   S    
C9    C52   A    
C52   C54   A    
C25   C29   A    
C40   C45   S    
H10   O4    S    
N7    Zn1   S    
C32   C35   A    
H25   N2    S    
C9    C49   S    
C13   N7    A    
C24   H41   S    
C5    C7    A    
C2    H5    S    
C6    C8    A    
C6    N5    S    
C42   H15   S    
C1    O10   A    
C15   N10   S    
C44   H21   S    
C35   C39   A    
C18   N8    S    
H16   N11   S    
C46   H27   S    
N6    Zn2   S    
C40   O16   D    
C4    N3    S    
C36   C45   A    
C47   H30   S    
H38   O6    S    
C3    N4    S    
C4    C6    A    
C49   O5    D    
C20   C22   A    
C26   C30   A    
C48   H35   S    
C13   C15   A    
O1    Zn1   S    
C42   H13   S    
H39   O8    S    
C10   C50   S    
C34   H4    S    
C16   C25   S    
C7    C9    A    
C46   N2    S    
C43   H17   S    
H29   N3    S    
C19   C21   A    
C34   C38   A    
C41   O3    D    
C3    C5    A    
C2    C53   A    
H20   N12   S    
O10   Zn2   S    
C29   H2    S    
C27   C36   A    
C30   H44   S    
C33   C38   A    
C44   H24   S    
C47   H32   S    
C16   O14   A    
H33   N4    S    
C32   H42   S    
C1    O1    A    
C46   H26   S    
C17   O15   A    
O13   Zn2   S    
C28   C37   A    
C23   C39   A    
C28   C30   A    
C11   C14   A    
C18   C20   A    
C31   H43   S    
C1    C52   S    
C49   O6    S    
C8    C10   A    
C21   C24   A    
O15   Zn1   S    
C24   N7    A    
C43   N11   S    
C50   O8    S    
C42   N10   S    
C41   C51   S    
C8    H8    S    
C13   H1    S    
C44   N12   S    
