data_mof_unit_7725.cif
_audit_creation_date              2012-12-11T14:15:30-0500
_audit_creation_method            fapswitch 2.2
_symmetry_space_group_name_H-M    P1
_symmetry_Int_Tables_number       1
_space_group_crystal_system       triclinic
_cell_length_a                    11.129162
_cell_length_b                    12.716698
_cell_length_c                    23.590779
_cell_angle_alpha                 90.289293
_cell_angle_beta                  96.506416
_cell_angle_gamma                 68.738181
_cell_volume                      3089.07394577

loop_
_atom_site_label
_atom_site_type_symbol
_atom_type_description
_atom_site_fract_x
_atom_site_fract_y
_atom_site_fract_z
_atom_type_partial_charge
C1    C     C_R   0.149344 0.616764 0.428775 0.547404
C2    C     C_R   0.618998 0.583081 0.317719 -0.106363
C3    C     C_R   0.714600 0.727437 0.319831 -0.131224
C4    C     C_R   0.695361 0.737405 0.260685 0.017559
C5    C     C_R   0.643720 0.664919 0.229943 0.050587
C6    C     C_R   0.635391 0.669376 0.171263 -0.125864
C7    C     C_R   0.710991 0.826786 0.172059 -0.015742
C8    C     C_R   0.732415 0.815101 0.231856 -0.114802
C9    C     C_1   0.234832 0.163330 0.122558 -0.027958
C10   C     C_2   0.179655 0.238254 0.225606 0.248480
C11   C     C_2   0.156567 0.169471 0.262595 -0.051010
C12   C     C_R   0.747176 0.605659 0.405065 0.544381
C13   C     C_1   0.133057 0.201704 0.320438 0.014796
C14   C     C_1   0.209232 0.199744 0.168889 -0.070149
C15   C     C_1   0.116374 0.233622 0.368255 0.016065
C16   C     C_1   0.167238 0.749655 0.123707 -0.013195
C17   C     C_2   0.144567 0.684742 0.227554 -0.121636
C18   C     C_2   0.231651 0.684618 0.271926 -0.127945
C19   C     C_1   0.215391 0.656465 0.329194 -0.035463
C20   C     C_1   0.155536 0.719341 0.170609 -0.060150
C21   C     C_1   0.193215 0.636062 0.376063 0.007820
C22   C     C_1   0.620485 0.763770 0.864073 0.014648
C23   C     C_R   0.101230 0.282574 0.423313 0.545794
C24   C     C_2   0.659324 0.749617 0.755664 0.046089
C25   C     C_2   0.688673 0.648294 0.731711 0.258883
C26   C     C_1   0.694721 0.638725 0.670905 -0.061772
C27   C     C_1   0.643796 0.756935 0.815447 0.035512
C28   C     C_1   0.710527 0.626178 0.621471 -0.021124
C29   C     C_R   0.198953 0.193688 0.856879 0.038109
C30   C     C_R   0.105463 0.232773 0.643031 0.002664
C31   C     C_R   0.993912 0.198763 0.719553 -0.080919
C32   C     C_R   0.003324 0.204741 0.661188 0.232442
C33   C     C_R   0.200874 0.244278 0.683641 -0.157449
C34   C     C_R   0.149601 0.617659 0.590833 0.557639
C35   C     C_R   0.191773 0.237316 0.741262 0.006228
C36   C     C_R   0.088650 0.213220 0.760434 0.016415
C37   C     C_R   0.087095 0.199455 0.819697 -0.021629
C38   C     C_R   0.288994 0.237735 0.837465 -0.009049
C39   C     C_R   0.284078 0.258049 0.779567 -0.114219
C40   C     C_R   0.123195 0.747973 0.852054 0.051938
C41   C     C_R   0.192198 0.644762 0.648557 0.024004
C42   C     C_R   0.316012 0.577167 0.740374 -0.010608
C43   C     C_R   0.297189 0.566384 0.681536 -0.160925
C44   C     C_R   0.113368 0.743283 0.673602 0.229856
C45   C     C_R   0.750531 0.601352 0.566122 0.544218
C46   C     C_R   0.117243 0.747720 0.733442 0.010679
C47   C     C_R   0.215952 0.658566 0.767635 0.015067
C48   C     C_R   0.211846 0.656090 0.827436 -0.042908
C49   C     C_R   0.015155 0.822906 0.818426 0.231969
C50   C     C_R   0.019965 0.833841 0.759850 -0.018633
C51   C     C_R   0.265649 0.109954 0.069432 0.544420
C52   C     C_R   0.598804 0.775036 0.081770 0.544014
C53   C     C_R   0.189591 0.787918 0.069877 0.542058
C54   C     C_R   0.240238 0.119190 0.908895 0.542903
C55   C     C_R   0.574666 0.776813 0.918641 0.548413
C56   C     C_R   0.099367 0.279023 0.585605 0.531158
C57   C     C_R   0.162659 0.785867 0.907594 0.570194
C58   C     C_R   0.657544 0.754935 0.141593 0.019847
C59   C     C_R   0.684337 0.645083 0.347917 -0.001445
C60   C     C_R   0.600023 0.590334 0.258527 -0.012306
Cr1   Cr    Cr6+3 0.189770 0.415650 0.511620 1.038666
Cr2   Cr    Cr6+3 0.930400 0.667320 0.496770 1.040278
Cr3   Cr    Cr6+3 0.879870 0.417010 0.491650 1.051098
Cr4   Cr    Cr6+3 0.149500 0.973980 0.985330 1.038097
Cr5   Cr    Cr6+3 0.457000 0.976510 0.994660 1.014887
Cr6   Cr    Cr6+3 0.411170 0.724270 0.995270 1.012445
H1    H     H_    0.601477 0.609895 0.148292 0.146899
H2    H     H_    0.062418 0.661058 0.233974 0.154514
H3    H     H_    0.913319 0.180093 0.732163 0.124945
H4    H     H_    0.357759 0.283679 0.763978 0.106829
H5    H     H_    0.279612 0.266153 0.670648 0.141574
H6    H     H_    0.364555 0.496209 0.661375 0.131666
H7    H     H_    0.774372 0.868746 0.256056 0.111650
H8    H     H_    0.592263 0.522136 0.340126 0.140328
H9    H     H_    0.762801 0.777303 0.343473 0.133248
H10   H     H_    0.158383 0.086662 0.249958 0.075117
H11   H     H_    0.312574 0.710125 0.265797 0.140651
O1    O     O_R   0.196340 0.303200 0.448500 -0.498781
O2    O     O_R   0.811960 0.658090 0.547150 -0.504411
O3    O     O_R   0.757930 0.506140 0.547110 -0.492183
O4    O     O_R   0.988670 0.321620 0.556040 -0.482323
O5    O     O_3   0.000020 0.499990 0.500010 -0.255346
O6    O     O_R   0.113660 0.883270 0.047820 -0.508744
O7    O     O_R   0.186930 0.068530 0.043990 -0.497429
O8    O     O_R   0.377770 0.089040 0.054220 -0.517527
O9    O     O_R   0.562800 0.872960 0.056970 -0.499652
O10   O     O_R   0.555390 0.700940 0.062700 -0.527954
O11   O     O_R   0.295020 0.731920 0.049950 -0.501076
O12   O     O_R   0.199310 0.519670 0.454880 -0.488345
O13   O     O_R   0.094290 0.884230 0.921550 -0.450345
O14   O     O_R   0.168980 0.069410 0.926940 -0.503186
O15   O     O_R   0.358400 0.089990 0.927950 -0.523553
O16   O     O_R   0.544850 0.873850 0.939920 -0.492691
O17   O     O_R   0.536020 0.701900 0.936430 -0.507106
O18   O     O_R   0.277070 0.732810 0.932890 -0.515643
O19   O     O_3   0.339220 0.891590 0.991750 -0.247301
O20   O     O_R   0.045660 0.691380 0.441680 -0.509450
O21   O     O_R   0.811930 0.659460 0.430950 -0.506218
O22   O     O_R   0.757900 0.507620 0.421760 -0.515599
O23   O     O_R   0.988630 0.322990 0.439840 -0.496937
O24   O     O_R   0.196380 0.301720 0.573850 -0.523381
O25   O     O_R   0.199350 0.518300 0.571080 -0.513306
O26   O     O_R   0.045700 0.689900 0.567030 -0.471240
O27   O     O_3   0.720494 0.552021 0.766168 -0.714708
H12   H     H_    0.744639 0.485461 0.741772 0.323665
C61   C     C_3   0.621709 0.858173 0.720721 -0.429663
H13   H     H_    0.621581 0.929006 0.748513 0.123885
H14   H     H_    0.691361 0.849891 0.689320 0.124609
H15   H     H_    0.522863 0.878925 0.697568 0.145067
C62   C     C_3   0.969568 0.190092 0.842622 -0.379540
H16   H     H_    0.966461 0.212839 0.888033 0.151709
H17   H     H_    0.878784 0.251642 0.819717 0.121410
H18   H     H_    0.969944 0.103136 0.837958 0.174118
C63   C     C_3   0.399224 0.253761 0.876042 -0.375913
H19   H     H_    0.436165 0.313308 0.856965 0.092920
H20   H     H_    0.366313 0.287747 0.917381 0.142378
H21   H     H_    0.483822 0.173059 0.882800 0.171240
O28   O     O_3   0.910652 0.183949 0.623754 -0.689123
H22   H     H_    0.947782 0.158425 0.587654 0.338563
C64   C     C_3   0.277500 0.549062 0.863948 -0.381004
H23   H     H_    0.263891 0.478216 0.840175 0.143193
H24   H     H_    0.381469 0.533846 0.876855 0.148142
H25   H     H_    0.231186 0.552259 0.903581 0.132454
C65   C     C_3   0.746203 0.914256 0.142377 -0.375979
H26   H     H_    0.803771 0.950683 0.172344 0.120922
H27   H     H_    0.805805 0.875224 0.107753 0.142961
H28   H     H_    0.656905 0.984476 0.124318 0.167901
O29   O     O_3   0.910303 0.890073 0.844762 -0.694172
H29   H     H_    0.830531 0.907295 0.817434 0.316980
C66   C     C_3   0.448099 0.508314 0.770494 -0.376455
H30   H     H_    0.521107 0.479733 0.739799 0.150329
H31   H     H_    0.482194 0.560093 0.801684 0.183485
H32   H     H_    0.446482 0.431476 0.791138 0.108933
C67   C     C_3   0.931839 0.944664 0.729676 -0.360252
H33   H     H_    0.891258 0.011521 0.759980 0.120773
H34   H     H_    0.987953 0.978515 0.703908 0.210043
H35   H     H_    0.848334 0.934673 0.703211 0.131418
O30   O     O_3   0.024410 0.829532 0.639016 -0.682657
H36   H     H_    0.941033 0.817277 0.638089 0.330699
C68   C     C_3   0.537300 0.515561 0.227447 -0.411445
H37   H     H_    0.504466 0.467258 0.257359 0.145037
H38   H     H_    0.450779 0.567751 0.198265 0.139584
H39   H     H_    0.607917 0.453748 0.202544 0.136947
O31   O     O_3   0.177616 0.343272 0.242172 -0.684022
H40   H     H_    0.197300 0.380766 0.209569 0.324638

loop_
_geom_bond_atom_site_label_1
_geom_bond_atom_site_label_2
_ccdc_geom_bond_type
Cr5   O15   S    
C1    C21   S    
C43   H6    S    
C6    C58   A    
C66   H31   S    
C35   C36   A    
C9    C51   S    
C24   C27   S    
Cr4   O13   S    
C7    C65   S    
C4    C8    A    
O29   H29   S    
C51   O8    A    
C67   H35   S    
C63   H19   S    
C7    C8    A    
C48   C64   S    
C16   C53   S    
C34   O25   A    
Cr3   O4    S    
C65   H27   S    
C36   C37   A    
C19   C21   T    
C68   H38   S    
C56   O24   A    
Cr1   O5    S    
Cr6   O11   S    
C5    C6    A    
C38   C63   S    
C2    C60   A    
C61   H13   S    
C40   C49   A    
C17   C20   S    
C18   C19   S    
O28   H22   S    
Cr4   O7    S    
C12   O22   A    
Cr3   O22   S    
Cr2   O21   S    
C12   C59   S    
Cr5   O19   S    
C47   C48   A    
C44   C46   A    
C29   C38   A    
C1    O12   A    
C68   H39   S    
C53   O11   A    
C3    H9    S    
C7    C58   A    
C12   O21   A    
C5    C60   A    
C64   H25   S    
C55   O16   A    
Cr6   O17   S    
Cr5   O16   S    
C23   O23   A    
Cr2   O5    S    
C41   C43   A    
C34   C41   S    
C55   O17   A    
O27   H12   S    
Cr1   O12   S    
Cr3   O3    S    
C28   C45   S    
C57   O13   A    
Cr3   O5    S    
Cr2   O2    S    
Cr5   O9    S    
C68   H37   S    
Cr4   O19   S    
C45   O2    A    
C50   C67   S    
C1    O20   A    
Cr6   O10   S    
C2    C59   A    
O31   H40   S    
C67   H34   S    
C25   C26   S    
C30   C56   S    
C62   H16   S    
Cr1   O24   S    
C9    C14   T    
Cr4   O6    S    
C54   O15   A    
Cr3   O23   S    
Cr2   O20   S    
C31   C32   A    
Cr1   O1    S    
C16   C20   T    
C17   C18   D    
C42   C66   S    
C10   O31   S    
C24   C25   D    
C62   H18   S    
C37   C62   S    
C67   H33   S    
C52   C58   S    
C60   C68   S    
C65   H28   S    
C6    H1    S    
C11   H10   S    
C22   C27   T    
C13   C15   T    
C10   C14   S    
C41   C44   A    
C66   H32   S    
C24   C61   S    
C42   C43   A    
C3    C4    A    
C64   H23   S    
C64   H24   S    
Cr6   O19   S    
Cr2   O26   S    
C57   O18   A    
C40   C48   A    
C49   O29   S    
C46   C47   A    
C17   H2    S    
C44   O30   S    
C40   C57   S    
C30   C33   A    
C52   O10   A    
C32   O28   S    
C4    C5    A    
C2    H8    S    
C63   H20   S    
C25   O27   S    
Cr5   O8    S    
C22   C55   S    
C46   C50   A    
C26   C28   T    
C34   O26   A    
C53   O6    A    
C10   C11   D    
C52   O9    A    
C66   H30   S    
C54   O14   A    
C30   C32   A    
C11   C13   S    
C38   C39   A    
C61   H14   S    
C18   H11   S    
C35   C39   A    
C15   C23   S    
C8    H7    S    
C33   C35   A    
C39   H4    S    
C56   O4    A    
Cr1   O25   S    
C45   O3    A    
C42   C47   A    
C23   O1    A    
C62   H17   S    
C63   H21   S    
O30   H36   S    
C33   H5    S    
C31   H3    S    
C49   C50   A    
C29   C54   S    
C29   C37   A    
C31   C36   A    
C65   H26   S    
Cr4   O14   S    
C51   O7    A    
Cr6   O18   S    
C61   H15   S    
C3    C59   A    
