data_mof_unit_6816.cif
_audit_creation_date              2012-12-11T17:41:38-0500
_audit_creation_method            fapswitch 2.2
_symmetry_space_group_name_H-M    P1
_symmetry_Int_Tables_number       1
_space_group_crystal_system       triclinic
_cell_length_a                    15.5695
_cell_length_b                    15.076941
_cell_length_c                    15.019909
_cell_angle_alpha                 109.674613
_cell_angle_beta                  121.414804
_cell_angle_gamma                 58.588212
_cell_volume                      2557.72231888

loop_
_atom_site_label
_atom_site_type_symbol
_atom_type_description
_atom_site_fract_x
_atom_site_fract_y
_atom_site_fract_z
_atom_type_partial_charge
C1    C     C_R   0.754258 0.993582 0.791117 -0.120631
C2    C     C_R   0.224796 0.281355 0.038468 -0.137348
C3    C     C_R   0.683419 0.674013 0.866030 -0.142185
C4    C     C_R   0.314780 0.185703 0.036187 -0.132795
C5    C     C_R   0.689277 0.755191 0.946401 0.122960
C6    C     C_R   0.298095 0.094890 0.988075 0.111821
C7    C     C_R   0.793855 0.754889 0.018197 -0.184290
C8    C     C_R   0.189937 0.101466 0.940444 -0.186883
C9    C     C_R   0.890549 0.675419 0.008428 -0.108133
C10   C     C_R   0.100442 0.197148 0.943859 -0.116925
C11   C     C_R   0.883827 0.595159 0.927908 -0.100360
C12   C     C_R   0.196753 0.062042 0.226385 -0.136889
C13   C     C_R   0.117896 0.286910 0.993157 -0.099641
C14   C     C_R   0.583461 0.860331 0.053066 -0.242613
C15   C     C_R   0.391746 0.962703 0.883706 -0.248592
C16   C     C_R   0.245245 0.289764 0.492758 -0.132405
C17   C     C_R   0.802795 0.727121 0.561484 -0.105388
C18   C     C_R   0.490251 0.942660 0.067436 0.062792
C19   C     C_R   0.491671 0.898464 0.873895 0.042564
C20   C     C_R   0.392615 0.994589 0.980886 0.030330
C21   C     C_R   0.586687 0.838816 0.956824 0.029905
C22   C     C_2   0.153170 0.397380 0.616335 -0.218769
C23   C     C_R   0.214095 0.299316 0.568209 0.151227
C24   C     C_2   0.980825 0.653778 0.541013 -0.216436
C25   C     C_2   0.136279 0.488768 0.601040 -0.103474
C26   C     C_2   0.041260 0.583002 0.610518 -0.107261
C27   C     C_2   0.843689 0.119178 0.898612 -0.217683
C28   C     C_2   0.016858 0.045492 0.155612 -0.228012
C29   C     C_R   0.293614 0.790361 0.640395 -0.128398
C30   C     C_R   0.676755 0.138812 0.239458 -0.121477
C31   C     C_R   0.368612 0.710531 0.600368 -0.119168
C32   C     C_R   0.603537 0.228558 0.274960 -0.131241
C33   C     C_R   0.329060 0.665741 0.497344 0.119408
C34   C     C_R   0.864942 0.727018 0.521116 0.137400
C35   C     C_R   0.641683 0.299308 0.354639 0.124126
C36   C     C_R   0.213497 0.701359 0.435166 -0.188437
C37   C     C_R   0.754282 0.278905 0.397066 -0.173507
C38   C     C_R   0.138772 0.782067 0.475131 -0.121813
C39   C     C_R   0.827189 0.189139 0.361080 -0.097890
C40   C     C_R   0.591076 0.217280 0.487227 -0.149235
C41   C     C_R   0.405339 0.771423 0.445169 -0.132609
C42   C     C_R   0.178845 0.826538 0.577754 -0.091543
C43   C     C_R   0.788511 0.119118 0.282474 -0.096465
C44   C     C_R   0.409105 0.482116 0.442417 -0.226938
C45   C     C_R   0.497289 0.297556 0.429358 0.024949
C46   C     C_R   0.562205 0.491013 0.405818 -0.246672
C47   C     C_R   0.488690 0.391550 0.415939 0.062414
C48   C     C_R   0.487771 0.580371 0.440870 0.067430
C49   C     C_R   0.563741 0.394393 0.392805 0.014708
C50   C     C_R   0.407897 0.576650 0.456326 0.007569
C51   C     C_2   0.860999 0.104464 0.990591 -0.101379
C52   C     C_2   0.956286 0.114435 0.084465 -0.102321
C53   C     C_R   0.407344 0.979778 0.709592 -0.126562
C54   C     C_R   0.591536 0.958427 0.266843 -0.128068
C55   C     C_R   0.407070 0.285578 0.407263 0.023406
C56   C     C_R   0.496035 0.676300 0.464039 0.011317
C57   C     C_R   0.590793 0.693524 0.529903 0.054096
C58   C     C_R   0.591223 0.909270 0.788192 -0.151221
C59   C     C_R   0.405392 0.026897 0.194361 -0.129605
C60   C     C_R   0.244003 0.199420 0.584013 -0.148675
C61   C     C_R   0.801994 0.815701 0.468523 -0.152559
C62   C     C_R   0.755202 0.085139 0.700694 -0.148448
C63   C     C_R   0.196160 0.971220 0.315944 -0.164660
C64   C     C_R   0.784500 0.069558 0.800729 0.148138
C65   C     C_R   0.133317 0.024113 0.227438 0.158672
C66   C     C_R   0.498285 0.923353 0.792402 0.066111
C67   C     C_R   0.496311 0.973206 0.172096 0.047148
C68   C     C_R   0.780452 0.594057 0.857261 -0.134886
H1    H     H_    0.766157 0.961099 0.852800 0.091996
H2    H     H_    0.397125 0.182311 0.070718 0.105701
H3    H     H_    0.800277 0.816809 0.080777 0.104287
H4    H     H_    0.175334 0.032523 0.901345 0.118189
H5    H     H_    0.970704 0.676024 0.063344 0.104220
H6    H     H_    0.017402 0.201965 0.907551 0.100275
H7    H     H_    0.010731 0.584566 0.661728 0.124560
H8    H     H_    0.178129 0.492134 0.563651 0.130287
H9    H     H_    0.012609 0.650745 0.489981 0.135655
H10   H     H_    0.110109 0.395236 0.653336 0.130916
H11   H     H_    0.121019 0.888474 0.608985 0.101052
H12   H     H_    0.168221 0.118873 0.177121 0.091608
H13   H     H_    0.845115 0.049684 0.254836 0.093298
H14   H     H_    0.233417 0.351562 0.460890 0.102867
H15   H     H_    0.833396 0.679111 0.620019 0.093353
H16   H     H_    0.324379 0.823489 0.720235 0.119762
H17   H     H_    0.646729 0.084666 0.178416 0.111850
H18   H     H_    0.457198 0.682842 0.649341 0.100041
H19   H     H_    0.517013 0.243054 0.240126 0.102381
H20   H     H_    0.181582 0.666667 0.355887 0.114396
H21   H     H_    0.786022 0.331686 0.458828 0.110206
H22   H     H_    0.049861 0.809567 0.426853 0.101642
H23   H     H_    0.984663 0.995523 0.153638 0.125596
H24   H     H_    0.913830 0.173716 0.394347 0.110211
H25   H     H_    0.353010 0.478742 0.462155 0.141032
H26   H     H_    0.619542 0.496985 0.390221 0.141681
H27   H     H_    0.676870 0.198051 0.510367 0.109634
H28   H     H_    0.318671 0.787004 0.398404 0.119585
H29   H     H_    0.322009 0.992380 0.678062 0.089644
H30   H     H_    0.677478 0.920466 0.279141 0.092375
H31   H     H_    0.677385 0.861359 0.834580 0.113671
H32   H     H_    0.319135 0.046616 0.142053 0.120910
H33   H     H_    0.231753 0.178701 0.637457 0.102239
H34   H     H_    0.885326 0.157088 0.895859 0.123165
H35   H     H_    0.831816 0.846845 0.440796 0.091581
H36   H     H_    0.767438 0.138640 0.680351 0.098747
H37   H     H_    0.165069 0.946131 0.348190 0.098254
H38   H     H_    0.987551 0.164362 0.085017 0.127789
H39   H     H_    0.820254 0.066240 0.994376 0.126899
H40   H     H_    0.655627 0.815772 0.117852 0.129603
H41   H     H_    0.316137 0.005342 0.819966 0.124443
H42   H     H_    0.310113 0.324481 0.258641 0.104818
H43   H     H_    0.258455 0.282778 0.300835 0.106635
H44   H     H_    0.690813 0.557898 0.599535 0.097888
H45   H     H_    0.958724 0.533712 0.920427 0.098833
H46   H     H_    0.725432 0.655666 0.667626 0.100758
H47   H     H_    0.048427 0.360873 0.995504 0.105090
H48   H     H_    0.775506 0.531233 0.795643 0.105774
H49   H     H_    0.237836 0.351282 0.074991 0.107671
H50   H     H_    0.604097 0.671887 0.811490 0.102981
N1    N     N_R   0.705410 0.966550 0.689210 -0.046834
N2    N     N_R   0.556610 0.796750 0.548620 -0.054113
N3    N     N_R   0.556610 0.951620 0.703500 -0.041365
N4    N     N_R   0.443390 0.048380 0.296500 -0.045535
N5    N     N_R   0.294590 0.131500 0.522480 -0.041396
N6    N     N_R   0.705410 0.868500 0.477520 -0.040496
N7    N     N_R   0.705410 0.023370 0.632390 -0.041763
N8    N     N_R   0.294590 0.976630 0.367610 -0.038440
N9    N     N_3   0.298758 0.329796 0.323221 -0.230203
N10   N     N_3   0.698631 0.619358 0.591869 -0.227838
N11   N     N_R   0.294590 0.033450 0.310790 -0.044794
N12   N     N_R   0.294590 0.188320 0.465660 -0.047504
N13   N     N_R   0.705410 0.811680 0.534340 -0.045868
N14   N     N_R   0.556610 0.157790 0.497330 -0.044112
N15   N     N_R   0.443390 0.842210 0.502670 -0.047721
N16   N     N_R   0.443390 0.997080 0.657540 -0.037629
N17   N     N_R   0.556610 0.002920 0.342460 -0.036528
N18   N     N_R   0.443390 0.203250 0.451380 -0.050754
Ni1   Ni    Ni4+2 0.629830 0.882720 0.617850 0.208728
Ni2   Ni    Ni4+2 0.370170 0.117280 0.382150 0.204473
Ni3   Ni    Ni4+2 0.629830 0.013030 0.487540 0.212861
Ni4   Ni    Ni4+2 0.370170 0.986970 0.512460 0.212780

loop_
_geom_bond_atom_site_label_1
_geom_bond_atom_site_label_2
_ccdc_geom_bond_type
C30   C32   A    
C63   C65   A    
C29   C42   A    
C17   N13   A    
C28   C52   D    
C15   H41   S    
N6    Ni3   S    
C3    C68   A    
C57   N10   S    
C4    H2    S    
C47   C49   A    
N7    Ni3   S    
N14   Ni3   S    
C15   C19   A    
C46   C49   A    
N8    Ni4   S    
C61   N6    A    
C14   C21   A    
C19   C21   A    
C24   C26   D    
C38   C42   A    
C7    H3    S    
C41   H28   S    
C55   N18   A    
C33   C36   A    
C56   C57   A    
C19   C66   S    
C48   C56   S    
N2    N15   A    
C1    N1    A    
N3    Ni1   S    
C2    C13   A    
C14   C18   A    
C62   C64   A    
C44   H25   S    
C59   C67   A    
C58   C66   A    
N11   Ni2   S    
C22   C25   D    
C35   C49   S    
C31   C33   A    
N3    N16   A    
C63   H37   S    
C16   N12   A    
C44   C47   A    
H42   N9    S    
C59   N4    A    
C14   H40   S    
C40   N14   A    
C52   H38   S    
C42   H11   S    
C31   H18   S    
C29   C31   A    
C59   H32   S    
C23   C60   A    
C9    H5    S    
C41   N15   A    
C2    H49   S    
C27   C51   D    
C62   H36   S    
C45   C47   S    
C40   C45   A    
C37   C39   A    
C46   C48   A    
C8    H4    S    
C12   N11   A    
C58   H31   S    
C51   C52   S    
N1    Ni1   S    
C32   C35   A    
N4    Ni2   S    
C29   H16   S    
N18   Ni2   S    
C5    C7    A    
C39   C43   A    
C54   C67   A    
N8    N11   A    
C53   H29   S    
C25   C26   S    
C32   H19   S    
N5    Ni4   S    
C34   C61   A    
C24   C34   S    
N6    N13   A    
C15   C20   A    
C17   H15   S    
C60   N5    A    
C2    C4    A    
C41   C56   A    
N13   Ni1   S    
C3    H50   S    
H46   N10   S    
C46   H26   S    
N14   N18   A    
C16   H14   S    
C26   H7    S    
C30   H17   S    
C53   C66   A    
C9    C11   A    
C22   H10   S    
C13   H47   S    
C68   H48   S    
C57   N2    A    
N1    N7    A    
C4    C6    A    
C55   N9    S    
C16   C23   A    
N5    N12   A    
H43   N9    S    
C43   H13   S    
C30   C43   A    
C17   C34   A    
C40   H27   S    
C60   H33   S    
N12   Ni2   S    
C1    C64   A    
C39   H24   S    
C11   C68   A    
C35   C37   A    
C44   C50   A    
C7    C9    A    
C58   N3    A    
C61   H35   S    
C8    C10   A    
C53   N16   A    
C3    C5    A    
C10   C13   A    
C62   N7    A    
C6    C8    A    
C6    C20   S    
C12   C65   A    
C38   H22   S    
C27   H34   S    
C37   H21   S    
N17   Ni3   S    
C25   H8    S    
C36   C38   A    
C28   C65   S    
C33   C50   S    
C36   H20   S    
N16   Ni4   S    
C10   H6    S    
C54   N17   A    
C12   H12   S    
C48   C50   A    
C28   H23   S    
C18   C20   A    
C11   H45   S    
C1    H1    S    
N4    N17   A    
H44   N10   S    
C63   N8    A    
C27   C64   S    
C24   H9    S    
C5    C21   S    
C45   C55   A    
N15   Ni4   S    
C51   H39   S    
C18   C67   S    
C22   C23   S    
C54   H30   S    
N2    Ni1   S    
