data_mof_unit_13840.cif
_audit_creation_date              2012-12-10T18:02:49-0500
_audit_creation_method            fapswitch 2.2
_symmetry_space_group_name_H-M    P1
_symmetry_Int_Tables_number       1
_space_group_crystal_system       triclinic
_cell_length_a                    10.825379
_cell_length_b                    9.49312
_cell_length_c                    27.820027
_cell_angle_alpha                 89.578889
_cell_angle_beta                  90.037794
_cell_angle_gamma                 89.990126
_cell_volume                      2858.89230965

loop_
_atom_site_label
_atom_site_type_symbol
_atom_type_description
_atom_site_fract_x
_atom_site_fract_y
_atom_site_fract_z
_atom_type_partial_charge
C1    C     C_R   0.261991 0.500007 0.499974 0.795356
C2    C     C_R   0.738008 0.499992 0.500030 0.796579
C3    C     C_R   0.498141 0.509105 0.101599 -0.099928
C4    C     C_R   0.493054 0.530399 0.898670 -0.099303
C5    C     C_R   0.391700 0.545746 0.127769 -0.082603
C6    C     C_R   0.605031 0.535872 0.872960 -0.088244
C7    C     C_R   0.287482 0.596903 0.103554 -0.116581
C8    C     C_R   0.716914 0.547771 0.897773 -0.116057
C9    C     C_R   0.605100 0.461164 0.126168 -0.117612
C10   C     C_R   0.379337 0.522086 0.873546 -0.120291
C11   C     C_R   0.502207 0.501988 0.354022 -0.122393
C12   C     C_R   0.498090 0.499816 0.646261 -0.174265
C13   C     C_R   0.383224 0.539753 0.975519 0.007577
C14   C     C_R   0.607381 0.497452 0.024693 0.013905
C15   C     C_R   0.609706 0.524980 0.974468 -0.011282
C16   C     C_R   0.386486 0.556134 0.026202 -0.009380
C17   C     C_R   0.495337 0.532228 0.949616 0.042493
C18   C     C_R   0.497337 0.521021 0.050767 0.043796
C19   C     C_R   0.271933 0.520691 0.950356 -0.138494
C20   C     C_R   0.708643 0.437840 0.049058 -0.147400
C21   C     C_R   0.268368 0.513243 0.900376 0.422471
C22   C     C_R   0.709365 0.420579 0.098833 0.419130
C23   C     C_R   0.501091 0.500710 0.407272 0.863245
C24   C     C_R   0.499734 0.499305 0.592833 0.837877
C25   C     C_R   0.284696 0.605601 0.053583 0.347782
C26   C     C_R   0.720371 0.545226 0.947797 0.347428
C27   C     C_R   0.063889 0.371958 0.500182 -0.169430
C28   C     C_R   0.936108 0.628040 0.499823 -0.168048
C29   C     C_R   0.936152 0.371949 0.500231 -0.169051
C30   C     C_R   0.063845 0.628048 0.499777 -0.168013
C31   C     C_R   0.871802 0.499990 0.500038 -0.019733
C32   C     C_R   0.128195 0.500008 0.499968 -0.018662
C33   C     C_R   0.421514 0.075140 0.470791 -0.018184
C34   C     C_R   0.578589 0.924856 0.529160 -0.011696
C35   C     C_R   0.578721 0.073857 0.529100 -0.021760
C36   C     C_R   0.421590 0.926121 0.470761 -0.004347
C37   C     C_R   0.393588 0.536697 0.178002 0.655752
C38   C     C_R   0.602686 0.532879 0.822687 0.650904
C39   C     C_R   0.602274 0.455487 0.176990 0.665050
C40   C     C_R   0.382461 0.519658 0.822706 0.665638
C41   C     C_R   0.525540 0.622510 0.276541 0.088530
C42   C     C_R   0.498208 0.384120 0.725231 0.147942
C43   C     C_R   0.527011 0.626479 0.327275 0.088900
C44   C     C_R   0.500489 0.374563 0.674781 0.087853
C45   C     C_R   0.477924 0.376038 0.329500 -0.305998
C46   C     C_R   0.493517 0.630915 0.669557 -0.275976
C47   C     C_R   0.476715 0.372520 0.279451 0.402080
C48   C     C_R   0.491333 0.639407 0.719480 0.400740
C49   C     C_R   0.500089 0.495663 0.252926 0.256276
C50   C     C_R   0.493677 0.516185 0.747381 0.228899
Cu1   Cu    Cu3+1 0.500000 0.640660 0.500000 0.966372
Cu2   Cu    Cu3+1 0.500000 0.359340 0.500000 0.947135
H1    H     H_    0.458663 0.279714 0.349230 0.198077
H2    H     H_    0.491528 0.728235 0.648998 0.203799
H3    H     H_    0.358747 0.131990 0.447410 0.124564
H4    H     H_    0.641467 0.868015 0.552498 0.126121
H5    H     H_    0.641973 0.129653 0.552263 0.117073
H6    H     H_    0.358935 0.870273 0.447342 0.127384
H7    H     H_    0.208335 0.634612 0.123531 0.231109
H8    H     H_    0.802764 0.561838 0.878299 0.245473
H9    H     H_    0.186412 0.503300 0.969437 0.235292
H10   H     H_    0.786512 0.396826 0.029380 0.221400
H11   H     H_    0.111987 0.271876 0.500324 0.151384
H12   H     H_    0.888010 0.728122 0.499679 0.152169
H13   H     H_    0.888087 0.271865 0.500423 0.152009
H14   H     H_    0.111908 0.728133 0.499588 0.151431
N1    N     N_R   0.497894 0.493340 0.201361 -0.441587
N2    N     N_R   0.492814 0.524324 0.798853 -0.443317
N3    N     N_R   0.500000 0.852070 0.500000 -0.161164
N4    N     N_R   0.500000 0.147930 0.500000 -0.160977
O1    O     O_R   0.319640 0.618740 0.500000 -0.591051
O2    O     O_R   0.680360 0.381260 0.500000 -0.589212
O3    O     O_R   0.680360 0.618740 0.500000 -0.588392
O4    O     O_R   0.319640 0.381260 0.500000 -0.591136
O5    O     O_R   0.500020 0.618770 0.430260 -0.544876
O6    O     O_R   0.499980 0.381230 0.569740 -0.593700
O7    O     O_R   0.499980 0.618770 0.569740 -0.580744
O8    O     O_R   0.500020 0.381230 0.430260 -0.591237
O9    O     O_2   0.292359 0.572205 0.203511 -0.493372
O10   O     O_2   0.709395 0.537707 0.797644 -0.486561
O11   O     O_2   0.277252 0.513022 0.796921 -0.436239
O12   O     O_2   0.702625 0.415231 0.202264 -0.436003
Cl1   Cl    Cl    0.444465 0.212557 0.250482 -0.555168
Cl2   Cl    Cl    0.485753 0.806216 0.746567 -0.555179
N5    N     N_3   0.505967 0.236784 0.654093 -0.569917
H15   H     H_    0.586286 0.228531 0.633502 0.236144
H16   H     H_    0.427766 0.220911 0.632765 0.253257
N6    N     N_3   0.555178 0.755521 0.351515 -0.554989
H17   H     H_    0.642992 0.789464 0.341013 0.231764
H18   H     H_    0.490326 0.831824 0.341472 0.232293
N7    N     N_3   0.500845 0.259510 0.754666 -0.525729
H19   H     H_    0.424742 0.197154 0.745716 0.279414
H20   H     H_    0.581156 0.203213 0.746642 0.273834
N8    N     N_3   0.550026 0.746346 0.248258 -0.540763
H21   H     H_    0.485155 0.823588 0.256956 0.265537
H22   H     H_    0.638202 0.783504 0.256702 0.248318
Cl3   Cl    Cl    0.120579 0.489611 0.874726 -0.435985
Cl4   Cl    Cl    0.844146 0.344298 0.123585 -0.431146
Cl5   Cl    Cl    0.161989 0.705592 0.029004 -0.473286
Cl6   Cl    Cl    0.862560 0.594978 0.973875 -0.481094

loop_
_geom_bond_atom_site_label_1
_geom_bond_atom_site_label_2
_ccdc_geom_bond_type
C33   H3    S    
C34   H4    S    
C22   Cl4   S    
C5    C37   A    
C27   C29   A    
C8    C26   A    
C14   C18   A    
C47   C49   A    
N5    H15   S    
C37   O9    S    
C1    O1    A    
Cu1   O1    S    
C3    C9    A    
C43   N6    S    
C19   C21   A    
Cu1   O5    S    
C34   C35   A    
C36   H6    S    
Cu2   O8    S    
C9    C22   A    
C9    C39   A    
C33   C36   A    
C3    C18   A    
C10   C40   A    
C42   N7    S    
C7    H7    S    
C25   Cl5   S    
C35   N4    A    
C6    C38   A    
C11   C43   A    
C47   Cl1   S    
C48   C50   A    
C45   H1    S    
C41   C43   A    
C42   C44   A    
C2    O2    A    
C41   C49   A    
C45   C47   A    
C10   C21   A    
C46   C48   A    
C13   C19   A    
N5    H16   S    
Cu1   Cu2   S    
C14   C20   A    
C4    C6    A    
C23   O5    A    
N7    H19   S    
C5    C7    A    
C24   O6    A    
C15   C26   A    
C6    C8    A    
Cu2   O6    S    
C1    C32   S    
C48   Cl2   S    
C2    C31   S    
Cu1   O7    S    
Cu2   O2    S    
N7    H20   S    
C21   Cl3   S    
C41   N8    S    
C46   H2    S    
N8    H22   S    
C34   N3    A    
C30   H14   S    
C2    O3    A    
C27   H11   S    
C33   N4    A    
C42   C50   A    
C29   H13   S    
C4    C17   A    
C28   H12   S    
C12   C46   A    
C20   C22   A    
C11   C45   A    
C1    O4    A    
C4    C10   A    
C44   N5    S    
C36   N3    A    
C16   C25   A    
C15   C17   A    
N6    H18   S    
C49   N1    S    
C27   C32   A    
C39   N1    A    
C40   O11   S    
C28   C31   A    
Cu1   O3    S    
C39   O12   S    
C38   N2    A    
C3    C5    A    
C12   C24   S    
Cu2   O4    S    
C7    C25   A    
C13   C17   A    
C35   H5    S    
C28   C30   A    
C29   C31   A    
C8    H8    S    
C30   C32   A    
C38   O10   S    
C19   H9    S    
C37   N1    A    
C11   C23   S    
C23   O8    A    
C20   H10   S    
N8    H21   S    
Cu2   N4    S    
C24   O7    A    
N6    H17   S    
C16   C18   A    
C40   N2    A    
C13   C16   A    
C14   C15   A    
C12   C44   A    
Cu1   N3    S    
C50   N2    S    
C26   Cl6   S    
