data_mof_unit_64863.cif
_audit_creation_date              2012-12-10T18:21:55-0500
_audit_creation_method            fapswitch 2.2
_symmetry_space_group_name_H-M    P1
_symmetry_Int_Tables_number       1
_space_group_crystal_system       triclinic
_cell_length_a                    19.373965
_cell_length_b                    10.646844
_cell_length_c                    9.515653
_cell_angle_alpha                 88.384191
_cell_angle_beta                  89.361084
_cell_angle_gamma                 90.883646
_cell_volume                      1961.6632002

loop_
_atom_site_label
_atom_site_type_symbol
_atom_type_description
_atom_site_fract_x
_atom_site_fract_y
_atom_site_fract_z
_atom_type_partial_charge
C1    C     C_R   0.499956 0.260002 0.501257 0.904851
C2    C     C_R   0.500044 0.739998 0.498743 0.904852
C3    C     C_3   0.553308 0.039443 0.575143 -0.092971
C4    C     C_3   0.446692 0.960557 0.424857 -0.092971
C5    C     C_3   0.558833 0.962044 0.441716 0.261854
C6    C     C_3   0.441167 0.037955 0.558284 0.261852
C7    C     C_3   0.499736 0.876588 0.497680 -0.118624
C8    C     C_3   0.500264 0.123412 0.502320 -0.118624
C9    C     C_3   0.494302 0.952874 0.633057 -0.230541
C10   C     C_3   0.505698 0.047126 0.366943 -0.230540
C11   C     C_3   0.508392 0.612071 0.045319 -0.030637
C12   C     C_3   0.491608 0.387929 0.954681 -0.030637
C13   C     C_3   0.450767 0.567793 0.948686 0.232862
C14   C     C_3   0.549234 0.432207 0.051314 0.232863
C15   C     C_3   0.557450 0.544377 0.947326 -0.015891
C16   C     C_3   0.442550 0.455623 0.052674 -0.015890
C17   C     C_R   0.367682 0.497702 0.501217 0.863998
C18   C     C_R   0.632318 0.502298 0.498783 0.863998
C19   C     C_R   0.252632 0.448244 0.620804 0.301286
C20   C     C_R   0.747368 0.551756 0.379196 0.301286
C21   C     C_R   0.180773 0.450217 0.618027 -0.152996
C22   C     C_R   0.819227 0.549783 0.381972 -0.152996
C23   C     C_R   0.146071 0.498575 0.500524 -0.009723
C24   C     C_R   0.853929 0.501425 0.499476 -0.009723
C25   C     C_R   0.184572 0.545382 0.384249 -0.124726
C26   C     C_R   0.815428 0.454617 0.615751 -0.124725
C27   C     C_R   0.256464 0.544027 0.385902 -0.167158
C28   C     C_R   0.743536 0.455973 0.614098 -0.167157
C29   C     C_R   0.291531 0.496020 0.503663 -0.084752
C30   C     C_R   0.708469 0.503980 0.496337 -0.084753
C31   C     C_R   0.929995 0.500563 0.499958 0.444757
C32   C     C_R   0.070004 0.499437 0.500042 0.444757
Cu1   Cu    Cu3+1 0.500020 0.499990 0.643150 1.057632
Cu2   Cu    Cu3+1 0.499980 0.500010 0.356850 1.057633
H1    H     H_    0.152062 0.412788 0.708521 0.189970
H2    H     H_    0.847938 0.587211 0.291479 0.189970
H3    H     H_    0.159277 0.583498 0.291920 0.179392
H4    H     H_    0.840723 0.416503 0.708081 0.179392
H5    H     H_    0.284680 0.582328 0.295221 0.186481
H6    H     H_    0.715320 0.417672 0.704779 0.186481
H7    H     H_    0.489586 0.913990 0.742348 0.218539
H8    H     H_    0.510414 0.086010 0.257652 0.218539
N1    N     N_R   0.035559 0.545101 0.386811 -0.215583
N2    N     N_R   0.964441 0.454899 0.613189 -0.215583
N3    N     N_R   0.966933 0.545628 0.386833 -0.216333
N4    N     N_R   0.033067 0.454371 0.613167 -0.216333
N5    N     N_3   0.500050 0.499970 0.858290 -0.232744
N6    N     N_3   0.499950 0.500030 0.141710 -0.232743
O1    O     O_R   0.500030 0.316850 0.620870 -0.583271
O2    O     O_R   0.499970 0.683150 0.379130 -0.583270
O3    O     O_R   0.500000 0.316860 0.379090 -0.543844
O4    O     O_R   0.500000 0.683140 0.620910 -0.543844
O5    O     O_R   0.400160 0.499980 0.620930 -0.516658
O6    O     O_R   0.599840 0.500020 0.379070 -0.516658
O7    O     O_R   0.400130 0.499990 0.379150 -0.593123
O8    O     O_R   0.599870 0.500010 0.620850 -0.593124
Br1   Br    Br    0.292146 0.373310 0.786552 -0.393233
Br2   Br    Br    0.707854 0.626690 0.213448 -0.393231
C33   C     C_2   0.623877 0.596914 0.887304 0.566822
H9    H     H_    0.671406 0.546262 0.902903 0.071755
O9    O     O_2   0.624746 0.695902 0.819417 -0.510885
C34   C     C_2   0.376123 0.403086 0.112696 0.566822
H10   H     H_    0.328594 0.453738 0.097096 0.071755
O10   O     O_2   0.375254 0.304098 0.180583 -0.510884
Br3   Br    Br    0.645396 0.910870 0.360051 -0.359549
Br4   Br    Br    0.354604 0.089130 0.639950 -0.359551
C35   C     C_2   0.614584 0.078664 0.659008 0.434258
H11   H     H_    0.644251 0.007822 0.714530 0.136502
O11   O     O_2   0.631852 0.189062 0.664379 -0.559784
C36   C     C_2   0.385416 0.921336 0.340992 0.434259
H12   H     H_    0.355748 0.992179 0.285471 0.136502
O12   O     O_2   0.368148 0.810938 0.335619 -0.559785
Br5   Br    Br    0.379410 0.676404 0.874815 -0.439010
Br6   Br    Br    0.620590 0.323595 0.125185 -0.439010
C37   C     C_2   0.514849 0.744255 0.093835 0.516516
H13   H     H_    0.470824 0.788378 0.141717 0.094890
O13   O     O_2   0.568565 0.804096 0.076304 -0.470334
C38   C     C_2   0.485151 0.255745 0.906165 0.516515
H14   H     H_    0.529176 0.211623 0.858280 0.094891
O14   O     O_2   0.431437 0.195902 0.923701 -0.470336

loop_
_geom_bond_atom_site_label_1
_geom_bond_atom_site_label_2
_ccdc_geom_bond_type
C33   H9    S    
C10   H8    S    
C1    C8    S    
C17   C29   S    
C2    C7    S    
C15   N5    S    
C16   N6    S    
C6    C9    S    
C4    C36   S    
C20   C30   A    
C19   Br1   S    
Cu1   O4    S    
Cu2   O3    S    
C16   C34   S    
C14   Br6   S    
C19   C21   A    
C24   C26   A    
C12   N5    S    
C38   O14   D    
C27   C29   A    
C28   H6    S    
Cu1   O1    S    
C37   O13   D    
C34   O10   D    
C2    O2    A    
C25   H3    S    
C11   C15   S    
C12   C16   S    
C27   H5    S    
C12   C38   S    
C36   H12   S    
C18   C30   S    
C17   O7    A    
C18   O8    A    
Cu1   O8    S    
Cu2   O7    S    
C11   N6    S    
C32   N4    A    
C4    C7    S    
C26   C28   A    
N2    N4    A    
Cu1   O5    S    
Cu2   O2    S    
C33   O9    D    
C31   N2    A    
C35   H11   S    
C5    Br3   S    
C3    C8    S    
C5    C7    S    
C38   H14   S    
C26   H4    S    
C14   N6    S    
C35   O11   D    
C37   H13   S    
C34   H10   S    
C3    C9    S    
N1    N3    A    
Cu1   Cu2   S    
C1    O3    A    
C2    O4    A    
C4    C6    S    
C20   C22   A    
Cu2   O6    S    
C21   C23   A    
Cu1   N5    S    
C22   C24   A    
Cu2   N6    S    
C20   Br2   S    
C19   C29   A    
C17   O5    A    
C13   N5    S    
C7    C9    S    
C13   Br5   S    
C15   C33   S    
C3    C35   S    
C12   C14   S    
C3    C5    S    
C6    C8    S    
C21   H1    S    
C25   C27   A    
C22   H2    S    
C9    H7    S    
C23   C32   S    
C28   C30   A    
C24   C31   S    
C5    C10   S    
C11   C37   S    
C11   C13   S    
C1    O1    A    
C32   N1    A    
C23   C25   A    
C18   O6    A    
C6    Br4   S    
C8    C10   S    
C31   N3    A    
C13   C16   S    
C14   C15   S    
C36   O12   D    
C4    C10   S    
