data_mof_unit_49672.cif
_audit_creation_date              2012-12-10T17:02:58-0500
_audit_creation_method            fapswitch 2.2
_symmetry_space_group_name_H-M    P1
_symmetry_Int_Tables_number       1
_space_group_crystal_system       triclinic
_cell_length_a                    9.803857
_cell_length_b                    11.065874
_cell_length_c                    13.544703
_cell_angle_alpha                 93.934567
_cell_angle_beta                  82.182309
_cell_angle_gamma                 111.202175
_cell_volume                      1356.94187583

loop_
_atom_site_label
_atom_site_type_symbol
_atom_type_description
_atom_site_fract_x
_atom_site_fract_y
_atom_site_fract_z
_atom_type_partial_charge
C1    C     C_R   0.557539 0.745558 0.503420 0.856918
C2    C     C_R   0.447511 0.498115 0.969217 0.113754
C3    C     C_R   0.486323 0.534038 0.868243 0.065650
C4    C     C_R   0.556341 0.540837 0.035796 0.057841
C5    C     C_R   0.706820 0.588600 0.997755 0.074453
C6    C     C_R   0.744205 0.631531 0.899506 -0.180206
C7    C     C_R   0.634077 0.614790 0.839047 -0.157048
C8    C     C_R   0.518691 0.542176 0.139421 -0.086798
C9    C     C_R   0.769381 0.566432 0.161583 -0.233282
C10   C     C_R   0.377593 0.486427 0.800260 -0.128499
C11   C     C_2   0.588159 0.884785 0.502621 -0.390585
C12   C     C_R   0.423589 0.493414 0.690812 0.788055
C13   C     C_2   0.502484 0.934658 0.461965 0.009755
C14   C     C_2   0.417212 0.117317 0.477816 -0.340560
C15   C     C_2   0.526593 0.072240 0.478736 -0.202318
C16   C     C_2   0.924855 0.490797 0.493799 -0.037470
C17   C     C_2   0.084425 0.517514 0.503339 0.044533
C18   C     C_R   0.444488 0.254880 0.491060 0.869596
C19   C     C_R   0.577941 0.518647 0.310101 0.800966
C20   C     C_R   0.813939 0.598150 0.060955 -0.025282
C21   C     C_R   0.622462 0.541171 0.202474 -0.124694
C22   C     C_R   0.229129 0.413337 0.838359 0.004836
C23   C     C_R   0.196346 0.374679 0.937030 -0.200850
C24   C     C_R   0.304085 0.412669 0.000437 -0.158539
Cu1   Cu    Cu3+1 0.362000 0.479240 0.482530 0.969697
Cu2   Cu    Cu3+1 0.638000 0.520760 0.517470 0.949734
H1    H     H_    0.850845 0.568526 0.209042 0.169055
H2    H     H_    0.307286 0.053072 0.464462 0.154537
H3    H     H_    0.679371 0.948089 0.540923 0.144134
H4    H     H_    0.144415 0.596261 0.550515 0.213382
H5    H     H_    0.873222 0.416786 0.439948 0.129488
H6    H     H_    0.097449 0.372691 0.411510 0.179732
H7    H     H_    0.857709 0.683348 0.870506 0.188270
H8    H     H_    0.274079 0.372056 0.074067 0.115874
H9    H     H_    0.085790 0.312897 0.965322 0.136529
H10   H     H_    0.667888 0.664764 0.769312 0.160376
H11   H     H_    0.634913 0.136838 0.495400 0.180126
N1    N     N_2   0.845330 0.551960 0.543750 -0.225785
N2    N     N_2   0.154690 0.448120 0.456210 -0.314112
O1    O     O_R   0.426290 0.668220 0.490680 -0.573821
O2    O     O_R   0.659360 0.703290 0.520190 -0.612087
O3    O     O_R   0.326580 0.473880 0.629020 -0.529679
O4    O     O_R   0.559660 0.508940 0.658530 -0.590511
O5    O     O_R   0.340640 0.296710 0.479810 -0.578025
O6    O     O_R   0.573710 0.331780 0.509320 -0.577610
O7    O     O_R   0.440340 0.491060 0.341470 -0.602381
O8    O     O_R   0.673420 0.526120 0.370980 -0.586654
C25   C     C_1   0.387935 0.857754 0.401453 0.322358
N3    N     N_1   0.296497 0.797034 0.353508 -0.261696
C26   C     C_2   0.904352 0.651874 0.615127 0.542379
H12   H     H_    0.878904 0.739575 0.617653 0.038020
O9    O     O_2   0.972735 0.636490 0.679073 -0.554227
C27   C     C_1   0.968522 0.634753 0.023949 0.246743
N4    N     N_1   0.092284 0.663823 0.994328 -0.210615
C28   C     C_2   0.386816 0.576170 0.177849 0.400712
H13   H     H_    0.295959 0.512182 0.226317 0.090130
O10   O     O_2   0.376256 0.674967 0.150529 -0.506775
C29   C     C_2   0.103794 0.368136 0.778687 0.408345
H14   H     H_    0.030394 0.267497 0.781559 0.037445
O11   O     O_2   0.074374 0.444545 0.732573 -0.473312

loop_
_geom_bond_atom_site_label_1
_geom_bond_atom_site_label_2
_ccdc_geom_bond_type
Cu1   O3    S    
C22   C29   S    
C13   C25   S    
C2    C4    A    
C28   H13   S    
C6    C7    A    
N1    C26   S    
C18   O5    A    
C7    H10   S    
C14   C18   S    
C9    C20   A    
C23   H9    S    
C1    C11   S    
C6    H7    S    
C4    C8    A    
C23   C24   A    
C9    C21   A    
C13   C15   S    
C2    C3    A    
Cu1   Cu2   S    
C19   O7    A    
C3    C10   A    
C27   N4    T    
C10   C22   A    
C16   H5    S    
C17   H4    S    
C11   C13   D    
C11   H3    S    
Cu1   N2    S    
C10   C12   S    
Cu2   O8    S    
C8    C28   S    
C20   C27   S    
Cu1   O5    S    
C1    O2    A    
C25   N3    T    
C19   C21   S    
Cu2   O4    S    
C26   H12   S    
C12   O4    A    
C3    C7    A    
C28   O10   D    
Cu1   O1    S    
C2    C24   A    
C5    C6    A    
C19   O8    A    
C29   O11   D    
C18   O6    A    
C4    C5    A    
C8    C21   A    
C9    H1    S    
C17   N2    D    
H6    N2    S    
C26   O9    D    
C5    C20   A    
C14   C15   D    
Cu2   N1    S    
C12   O3    A    
C1    O1    A    
C14   H2    S    
C29   H14   S    
C22   C23   A    
Cu1   O7    S    
C15   H11   S    
Cu2   O2    S    
C16   N1    D    
C16   C17   S    
Cu2   O6    S    
C24   H8    S    
