data_mof_unit_14307.cif
_audit_creation_date              2012-12-11T14:52:45-0500
_audit_creation_method            fapswitch 2.2
_symmetry_space_group_name_H-M    P1
_symmetry_Int_Tables_number       1
_space_group_crystal_system       triclinic
_cell_length_a                    20.683256
_cell_length_b                    7.304879
_cell_length_c                    20.286485
_cell_angle_alpha                 90.000113
_cell_angle_beta                  101.269195
_cell_angle_gamma                 90.000113
_cell_volume                      3005.9635578

loop_
_atom_site_label
_atom_site_type_symbol
_atom_type_description
_atom_site_fract_x
_atom_site_fract_y
_atom_site_fract_z
_atom_type_partial_charge
O1    O     O_R   0.673670 0.377510 0.185950 -0.510364
O2    O     O_R   0.326330 0.622490 0.814050 -0.512102
O3    O     O_R   0.826330 0.877510 0.314050 -0.510364
O4    O     O_R   0.173670 0.122490 0.685950 -0.512103
O5    O     O_R   0.806260 0.705340 0.185590 -0.540713
O6    O     O_R   0.193740 0.294660 0.814410 -0.537218
O7    O     O_R   0.693740 0.205340 0.314410 -0.540713
O8    O     O_R   0.306260 0.794660 0.685590 -0.537218
C1    C     C_R   0.825425 0.539643 0.170813 0.718375
C2    C     C_R   0.174416 0.460462 0.828971 0.720464
C3    C     C_R   0.674575 0.039643 0.329187 0.718375
C4    C     C_R   0.325584 0.960462 0.671029 0.720464
O9    O     O_R   0.672940 0.707120 0.178050 -0.544712
O10   O     O_R   0.327060 0.292880 0.821950 -0.544043
O11   O     O_R   0.827060 0.207120 0.321950 -0.544713
O12   O     O_R   0.172940 0.792880 0.678050 -0.544044
O13   O     O_R   0.692060 0.879040 0.306460 -0.535972
O14   O     O_R   0.307940 0.120960 0.693540 -0.536331
O15   O     O_R   0.807940 0.379040 0.193540 -0.535972
O16   O     O_R   0.192060 0.620960 0.806460 -0.536330
C5    C     C_R   0.649184 0.539741 0.160845 0.746350
C6    C     C_R   0.350921 0.460259 0.839011 0.743643
C7    C     C_R   0.850816 0.039742 0.339155 0.746350
C8    C     C_R   0.149079 0.960259 0.660989 0.743642
O17   O     O_3   0.756430 0.544390 0.292140 -0.370923
O18   O     O_3   0.243570 0.455610 0.707860 -0.370738
O19   O     O_3   0.743570 0.044390 0.207860 -0.370923
O20   O     O_3   0.256430 0.955610 0.792140 -0.370737
V1    V     V_3+5 0.748810 0.818610 0.242180 1.448691
V2    V     V_3+5 0.251190 0.181390 0.757820 1.463483
V3    V     V_3+5 0.751190 0.318610 0.257820 1.448692
V4    V     V_3+5 0.248810 0.681390 0.742180 1.463485
C9    C     C_R   0.088536 0.958893 0.606884 -0.151067
C10   C     C_R   0.911149 0.041318 0.393543 -0.148677
C11   C     C_R   0.411464 0.458895 0.893115 -0.151058
C12   C     C_R   0.588851 0.541315 0.106458 -0.148672
C13   C     C_R   0.006995 0.214934 0.451867 0.402115
C14   C     C_R   0.992426 0.785818 0.548859 0.402189
C15   C     C_R   0.493001 0.714923 0.048138 0.402096
C16   C     C_R   0.507576 0.285825 0.951137 0.402177
C17   C     C_R   0.952270 0.195291 0.399264 -0.324389
C18   C     C_R   0.047277 0.805246 0.601363 -0.326644
C19   C     C_R   0.547727 0.695282 0.100740 -0.324392
C20   C     C_R   0.452725 0.305253 0.898634 -0.326653
C21   C     C_R   0.926924 0.898296 0.440364 0.334688
C22   C     C_R   0.072635 0.102088 0.560176 0.336032
C23   C     C_R   0.573076 0.398297 0.059635 0.334692
C24   C     C_R   0.427364 0.602087 0.939825 0.336035
C25   C     C_R   0.979713 0.919529 0.497236 -0.079552
C26   C     C_R   0.019762 0.081024 0.503402 -0.079521
C27   C     C_R   0.520288 0.419531 0.002763 -0.079547
C28   C     C_R   0.480237 0.581021 0.996600 -0.079518
H1    H     H_    0.057369 0.698890 0.639228 0.137374
H2    H     H_    0.942197 0.301772 0.361448 0.137973
H3    H     H_    0.442634 0.198899 0.860768 0.137376
H4    H     H_    0.557799 0.801757 0.138558 0.137971
C29   C     C_3   0.561650 0.071981 0.538946 -0.022005
C30   C     C_3   0.444755 0.956497 0.468036 -0.026945
C31   C     C_3   0.938350 0.571980 0.961054 -0.022006
C32   C     C_3   0.055245 0.456497 0.031964 -0.026942
C33   C     C_3   0.526690 0.891334 0.550107 0.332369
C34   C     C_3   0.479540 0.137503 0.457118 0.318006
C35   C     C_3   0.973309 0.391334 0.949893 0.332369
C36   C     C_3   0.020460 0.637503 0.042882 0.318012
C37   C     C_1   0.371873 0.964509 0.625976 -0.206092
C38   C     C_1   0.629587 0.037832 0.375694 -0.195916
C39   C     C_1   0.128127 0.464509 0.874023 -0.206092
C40   C     C_1   0.870413 0.537832 0.124306 -0.195916
C41   C     C_3   0.494841 0.175486 0.533870 -0.022552
C42   C     C_3   0.511316 0.853616 0.473988 -0.022762
C43   C     C_3   0.005159 0.675485 0.966130 -0.022554
C44   C     C_3   0.988683 0.353617 0.026011 -0.022767
C45   C     C_3   0.460259 0.992232 0.544973 0.031030
C46   C     C_3   0.545576 0.035452 0.462014 0.025999
C47   C     C_3   0.039741 0.492231 0.955027 0.031029
C48   C     C_3   0.954424 0.535452 0.037986 0.026001
C49   C     C_1   0.411543 0.970810 0.589166 -0.024480
C50   C     C_1   0.591807 0.041504 0.414566 -0.001569
C51   C     C_1   0.088457 0.470810 0.910834 -0.024480
C52   C     C_1   0.908193 0.541504 0.085434 -0.001568
O21   O     O_3   0.109894 0.259327 0.570452 -0.606107
H5    H     H_    0.078542 0.361588 0.571368 0.316846
O22   O     O_3   0.889672 0.741042 0.430052 -0.607076
H6    H     H_    0.921047 0.638629 0.429556 0.317306
O23   O     O_3   0.390105 0.759326 0.929550 -0.606114
H7    H     H_    0.421457 0.861591 0.928645 0.316857
O24   O     O_3   0.610330 0.241045 0.069945 -0.607078
H8    H     H_    0.578955 0.138628 0.070437 0.317312
O25   O     O_3   0.048868 0.362823 0.452469 -0.627917
H9    H     H_    0.032580 0.443000 0.413292 0.281618
O26   O     O_3   0.950398 0.638358 0.548428 -0.629140
H10   H     H_    0.966640 0.558374 0.587673 0.280631
O27   O     O_3   0.451124 0.862799 0.047541 -0.627925
H11   H     H_    0.467409 0.942967 0.086720 0.281623
O28   O     O_3   0.549607 0.138372 0.951565 -0.629143
H12   H     H_    0.533366 0.058393 0.912318 0.280632
O29   O     O_3   0.551845 0.765197 0.600105 -0.666072
H13   H     H_    0.597098 0.736847 0.593863 0.275054
O30   O     O_3   0.455265 0.264205 0.406798 -0.660415
H14   H     H_    0.411510 0.301443 0.415208 0.275413
O31   O     O_3   0.948155 0.265195 0.899895 -0.666072
H15   H     H_    0.902902 0.236847 0.906136 0.275055
O32   O     O_3   0.044735 0.764207 0.093202 -0.660416
H16   H     H_    0.088489 0.801449 0.084791 0.275409
C53   C     C_3   0.631213 0.124802 0.575504 -0.348799
C54   C     C_3   0.635694 0.155047 0.651018 -0.300050
C55   C     C_3   0.707222 0.175758 0.687377 -0.765687
H17   H     H_    0.735379 0.048835 0.682130 0.232315
H18   H     H_    0.730735 0.293288 0.666456 0.234178
H19   H     H_    0.708896 0.201019 0.741667 0.219522
H20   H     H_    0.608916 0.281782 0.659180 0.203567
H21   H     H_    0.613262 0.038097 0.673390 0.224605
H22   H     H_    0.665312 0.012990 0.567515 0.175013
H23   H     H_    0.646890 0.250980 0.552606 0.171489
C56   C     C_3   0.376284 0.895030 0.431288 -0.344126
C57   C     C_3   0.371040 0.879129 0.355059 -0.299104
C58   C     C_3   0.300211 0.840139 0.319798 -0.755867
H24   H     H_    0.282568 0.710321 0.338712 0.233475
H25   H     H_    0.267281 0.954012 0.328522 0.232457
H26   H     H_    0.297928 0.826812 0.264858 0.220891
H27   H     H_    0.387551 0.007990 0.334506 0.229527
H28   H     H_    0.402533 0.765563 0.343499 0.193626
H29   H     H_    0.364887 0.760446 0.451889 0.175640
H30   H     H_    0.339690 0.996528 0.442093 0.182569
C59   C     C_3   0.868787 0.624801 0.924496 -0.348798
C60   C     C_3   0.864306 0.655045 0.848982 -0.300050
C61   C     C_3   0.792778 0.675754 0.812623 -0.765685
H31   H     H_    0.764622 0.548829 0.817869 0.232314
H32   H     H_    0.769265 0.793283 0.833545 0.234178
H33   H     H_    0.791104 0.701016 0.758333 0.219522
H34   H     H_    0.891084 0.781781 0.840820 0.203567
H35   H     H_    0.886738 0.538095 0.826610 0.224604
H36   H     H_    0.834688 0.512988 0.932485 0.175013
H37   H     H_    0.853111 0.750979 0.947394 0.171489
C62   C     C_3   0.123715 0.395022 0.068711 -0.344133
C63   C     C_3   0.128965 0.379161 0.144942 -0.299092
C64   C     C_3   0.199790 0.340098 0.180197 -0.755882
H38   H     H_    0.217408 0.210238 0.161289 0.233475
H39   H     H_    0.232737 0.453915 0.171459 0.232463
H40   H     H_    0.202078 0.326815 0.235138 0.220890
H41   H     H_    0.112478 0.508058 0.165490 0.229522
H42   H     H_    0.097456 0.265648 0.156512 0.193631
H43   H     H_    0.135104 0.260422 0.048116 0.175645
H44   H     H_    0.160312 0.496498 0.057897 0.182566
C65   C     C_3   0.522311 0.678090 0.436843 -0.316137
C66   C     C_3   0.593372 0.605980 0.456514 -0.320230
C67   C     C_3   0.614767 0.509465 0.397674 -0.671627
H45   H     H_    0.577804 0.404954 0.375958 0.247962
H46   H     H_    0.619632 0.609984 0.357891 0.221329
H47   H     H_    0.663222 0.442240 0.415175 0.216848
H48   H     H_    0.628954 0.717861 0.473852 0.193562
H49   H     H_    0.596692 0.508220 0.498584 0.180612
H50   H     H_    0.487174 0.573827 0.447433 0.197158
H51   H     H_    0.510720 0.708447 0.382192 0.183044
C68   C     C_3   0.485498 0.359864 0.567797 -0.325718
C69   C     C_3   0.468838 0.338956 0.638228 -0.324922
C70   C     C_3   0.483977 0.510329 0.681264 -0.696063
H52   H     H_    0.537837 0.536921 0.692596 0.247171
H53   H     H_    0.457320 0.629708 0.655224 0.261985
H54   H     H_    0.467367 0.490139 0.729628 0.191332
H55   H     H_    0.415224 0.312838 0.632619 0.207602
H56   H     H_    0.496461 0.222628 0.665680 0.198973
H57   H     H_    0.531684 0.437923 0.571447 0.211476
H58   H     H_    0.445159 0.437835 0.535685 0.166777
C71   C     C_3   0.977688 0.178090 0.063156 -0.316130
C72   C     C_3   0.906627 0.105981 0.043485 -0.320233
C73   C     C_3   0.885231 0.009465 0.102325 -0.671629
H59   H     H_    0.922194 0.904954 0.124041 0.247962
H60   H     H_    0.880366 0.109984 0.142107 0.221330
H61   H     H_    0.836776 0.942241 0.084824 0.216848
H62   H     H_    0.871046 0.217862 0.026147 0.193563
H63   H     H_    0.903306 0.008221 0.001415 0.180612
H64   H     H_    0.012825 0.073826 0.052565 0.197158
H65   H     H_    0.989280 0.208445 0.117808 0.183044
C74   C     C_3   0.014502 0.859863 0.932203 -0.325719
C75   C     C_3   0.031162 0.838954 0.861772 -0.324920
C76   C     C_3   0.016023 0.010327 0.818736 -0.696066
H66   H     H_    0.962163 0.036918 0.807405 0.247171
H67   H     H_    0.042680 0.129707 0.844775 0.261984
H68   H     H_    0.032633 0.990136 0.770372 0.191333
H69   H     H_    0.084776 0.812837 0.867380 0.207602
H70   H     H_    0.003539 0.722626 0.834320 0.198974
H71   H     H_    0.968317 0.937922 0.928553 0.211477
H72   H     H_    0.054842 0.937834 0.964315 0.166775

loop_
_geom_bond_atom_site_label_1
_geom_bond_atom_site_label_2
_ccdc_geom_bond_type
C33   C42   S    
C40   C52   T    
C36   O32   S    
C29   C53   S    
O24   H8    S    
O1    C5    A    
C70   H52   S    
O19   V1    S    
O13   V1    S    
C44   C71   S    
O3    C7    A    
O28   H12   S    
C44   C48   S    
O15   V3    S    
O21   H5    S    
C62   C63   S    
C73   H60   S    
C5    C12   S    
C54   H21   S    
C2    C39   S    
O7    C3    A    
C6    C11   S    
C64   H39   S    
O5    C1    A    
C60   C61   S    
C59   C60   S    
C57   H28   S    
C9    C18   A    
O9    V1    S    
C69   C70   S    
C67   H46   S    
C14   C18   A    
C58   H25   S    
C18   H1    S    
C65   C66   S    
O4    C8    A    
C54   C55   S    
C32   C44   S    
C71   H64   S    
C56   C57   S    
C22   O21   S    
O1    V3    S    
C57   C58   S    
C12   C23   A    
O2    V4    S    
C36   C43   S    
O3    V1    S    
C15   O27   S    
C63   H42   S    
C59   H37   S    
O32   H16   S    
C1    O15   A    
C67   H45   S    
C2    O16   A    
C76   H67   S    
O2    C6    A    
C55   H17   S    
C41   C45   S    
O14   V2    S    
C60   H35   S    
C16   C20   A    
C3    C38   S    
C35   O31   S    
C65   H50   S    
C7    C10   S    
O11   C7    A    
C15   C28   A    
C64   H38   S    
C69   H56   S    
C72   H62   S    
O12   C8    A    
C72   H63   S    
C9    C22   A    
C55   H18   S    
C21   O22   S    
C10   C17   A    
O10   V2    S    
C11   C24   A    
O29   H13   S    
C73   H61   S    
O5    V1    S    
C54   H20   S    
C75   H69   S    
C38   C50   T    
C64   H40   S    
C56   H29   S    
C57   H27   S    
C27   C28   A    
O8    V4    S    
O31   H15   S    
C53   H23   S    
C67   H47   S    
O7    V3    S    
C58   H26   S    
C73   H59   S    
C10   C21   A    
O18   V4    S    
C30   C42   S    
C23   C27   A    
C68   H57   S    
C71   H65   S    
O23   H7    S    
C14   O26   S    
C66   H48   S    
C34   C41   S    
C23   O24   S    
C29   C46   S    
C75   H70   S    
C61   H32   S    
C42   C46   S    
C63   H41   S    
C37   C49   T    
C19   H4    S    
C4    C37   S    
O22   H6    S    
C21   C25   A    
O8    C4    A    
C76   H68   S    
C59   H36   S    
C36   C48   S    
O9    C5    A    
O27   H11   S    
C41   C68   S    
O11   V3    S    
C11   C20   A    
C32   C62   S    
C42   C65   S    
C30   C34   S    
C66   H49   S    
C65   H51   S    
C62   H44   S    
O6    V2    S    
C69   H55   S    
C76   H66   S    
C70   H54   S    
C72   C73   S    
C55   H19   S    
C31   C59   S    
C16   O28   S    
C61   H31   S    
O26   H10   S    
C14   C25   A    
C74   H71   S    
C66   C67   S    
O16   V4    S    
C53   H22   S    
C3    O13   A    
C56   H30   S    
O17   V3    S    
C33   O29   S    
C48   C52   S    
C63   C64   S    
O6    C2    A    
C15   C19   A    
C29   C33   S    
C68   H58   S    
O12   V4    S    
C16   C27   A    
C53   C54   S    
C22   C26   A    
C32   C47   S    
C31   C35   S    
C8    C9    S    
O30   H14   S    
C13   O25   S    
C32   C36   S    
C33   C45   S    
O10   C6    A    
O20   V2    S    
C1    C40   S    
C74   C75   S    
C58   H24   S    
C43   C47   S    
C13   C26   A    
C20   H3    S    
C30   C56   S    
C35   C47   S    
C60   H34   S    
C62   H43   S    
C43   C74   S    
C13   C17   A    
C17   H2    S    
C61   H33   S    
C75   C76   S    
C34   O30   S    
C71   C72   S    
C24   C28   A    
C35   C44   S    
C70   H53   S    
C25   C26   A    
C46   C50   S    
C4    O14   A    
C68   C69   S    
C45   C49   S    
C24   O23   S    
C34   C46   S    
C12   C19   A    
C29   C41   S    
O25   H9    S    
C47   C51   S    
C31   C48   S    
C39   C51   T    
O4    V2    S    
C30   C45   S    
C31   C43   S    
C74   H72   S    
