data_mof_unit_27152.cif
_audit_creation_date              2012-12-11T18:11:32-0500
_audit_creation_method            fapswitch 2.2
_symmetry_space_group_name_H-M    P1
_symmetry_Int_Tables_number       1
_space_group_crystal_system       triclinic
_cell_length_a                    8.29605
_cell_length_b                    12.752133
_cell_length_c                    18.671867
_cell_angle_alpha                 99.770151
_cell_angle_beta                  91.101054
_cell_angle_gamma                 98.89019
_cell_volume                      1921.20828298

loop_
_atom_site_label
_atom_site_type_symbol
_atom_type_description
_atom_site_fract_x
_atom_site_fract_y
_atom_site_fract_z
_atom_type_partial_charge
Ba1   Ba    Ba6+2 0.852780 0.548340 0.465070 1.703656
Ba2   Ba    Ba6+2 0.337060 0.451750 0.534940 1.690628
C1    C     C_3   0.608330 0.854071 0.177895 -0.281461
C2    C     C_3   0.569034 0.778119 0.232098 0.327496
C3    C     C_3   0.397675 0.213682 0.310304 0.410659
C4    C     C_3   0.269213 0.115664 0.283022 -0.275996
C5    C     C_3   0.057731 0.237679 0.734785 0.363403
C6    C     C_3   0.072696 0.212449 0.811140 -0.323599
C7    C     C_3   0.553311 0.181640 0.709098 0.363016
C8    C     C_3   0.626889 0.121160 0.761869 -0.023438
C9    C     C_R   0.996508 0.434832 0.046311 0.006815
C10   C     C_R   0.901718 0.380896 0.095276 -0.079293
C11   C     C_R   0.770167 0.402626 0.952187 -0.090107
C12   C     C_3   0.186768 0.797189 0.268864 0.392715
C13   C     C_R   0.934537 0.441806 0.975631 0.022883
C14   C     C_R   0.712631 0.405987 0.882469 -0.090674
C15   C     C_R   0.815446 0.449111 0.832463 -0.030354
C16   C     C_R   0.977693 0.496977 0.855625 0.016010
C17   C     C_R   0.038002 0.492677 0.927341 0.032261
C18   C     C_R   0.760345 0.445992 0.760011 0.014177
C19   C     C_R   0.866753 0.489331 0.711307 -0.254680
C20   C     C_R   0.023644 0.544149 0.733759 0.018414
C21   C     C_R   0.079003 0.549841 0.807444 -0.044098
C22   C     C_R   0.160610 0.479962 0.068428 0.035534
C23   C     C_3   0.103708 0.757645 0.193450 0.017181
C24   C     C_R   0.220031 0.479315 0.140825 0.013555
C25   C     C_R   0.114435 0.437343 0.191666 -0.040546
C26   C     C_R   0.960138 0.381397 0.165744 -0.008053
C27   C     C_R   0.231583 0.607017 0.834964 0.004513
C28   C     C_R   0.292986 0.599942 0.903788 -0.061904
C29   C     C_R   0.201410 0.538806 0.949980 0.005526
C30   C     C_R   0.265506 0.526870 0.019147 0.028221
C31   C     C_R   0.432918 0.557409 0.040162 -0.099821
C32   C     C_R   0.384868 0.521166 0.162467 -0.011834
C33   C     C_R   0.491412 0.553042 0.109833 -0.083089
C34   C     C_3   0.242439 0.783296 0.616919 0.309440
C35   C     C_R   0.436496 0.534151 0.236779 -0.000117
C36   C     C_R   0.326177 0.502244 0.287512 -0.260564
C37   C     C_R   0.167351 0.451707 0.266300 0.065053
C38   C     C_R   0.761627 0.183321 0.532295 -0.254966
C39   C     C_R   0.436329 0.806460 0.466225 -0.250670
C40   C     C_R   0.400012 0.984992 0.449991 -0.074642
C41   C     C_R   0.343140 0.874940 0.440050 -0.058134
C42   C     C_R   0.579951 0.848024 0.508797 0.090868
C43   C     C_R   0.638785 0.961460 0.520824 -0.039623
C44   C     C_R   0.547914 0.030174 0.489652 -0.020799
C45   C     C_3   0.315603 0.902373 0.635828 -0.395467
C46   C     C_R   0.611638 0.141291 0.495817 0.054008
C47   C     C_R   0.853832 0.117159 0.561328 0.011158
C48   C     C_R   0.790769 0.007729 0.557931 -0.088041
C49   C     C_3   0.897133 0.204473 0.351507 0.282398
C50   C     C_3   0.828392 0.100189 0.300172 -0.112217
C51   C     C_3   0.794386 0.765339 0.690645 0.460213
C52   C     C_3   0.917977 0.866572 0.716598 -0.318173
H1    H     H_    0.536512 0.822088 0.284630 0.036197
H2    H     H_    0.246998 0.945853 0.678248 0.174860
H3    H     H_    0.443970 0.911777 0.656578 0.141681
H4    H     H_    0.311412 0.941106 0.587335 0.071047
H5    H     H_    0.800145 0.253269 0.365231 0.073491
H6    H     H_    0.950736 0.188388 0.402734 0.029045
H7    H     H_    0.713861 0.106347 0.271101 0.139670
H8    H     H_    0.914809 0.078200 0.257734 0.146394
H9    H     H_    0.851763 0.699238 0.660365 -0.016568
H10   H     H_    0.505219 0.898646 0.172312 0.097256
H11   H     H_    0.977170 0.894679 0.669454 0.077243
H12   H     H_    0.011592 0.850466 0.754723 0.142057
H13   H     H_    0.856562 0.931557 0.745645 0.135020
H14   H     H_    0.459748 0.722140 0.208678 -0.080493
H15   H     H_    0.628006 0.807115 0.123893 0.133561
H16   H     H_    0.342958 0.281506 0.340275 0.043517
H17   H     H_    0.188459 0.133147 0.240064 0.144209
H18   H     H_    0.329442 0.046901 0.258954 0.139701
H19   H     H_    0.195576 0.092649 0.328516 0.116975
H20   H     H_    0.719892 0.912839 0.195977 0.169977
H21   H     H_    0.183922 0.710993 0.158444 0.018964
H22   H     H_    0.928572 0.244878 0.723044 -0.110652
H23   H     H_    0.203041 0.216364 0.827423 0.176653
H24   H     H_    0.020121 0.271957 0.850348 0.062053
H25   H     H_    0.005903 0.130589 0.813112 0.134591
H26   H     H_    0.461562 0.124666 0.671794 0.069894
H27   H     H_    0.716635 0.178172 0.800095 0.073584
H28   H     H_    0.690022 0.058784 0.730765 0.031988
H29   H     H_    0.232127 0.726643 0.285524 -0.128795
H30   H     H_    0.823662 0.484823 0.655636 0.074155
H31   H     H_    0.306853 0.657029 0.803351 0.142584
H32   H     H_    0.620648 0.578750 0.122593 0.101546
H33   H     H_    0.366602 0.513532 0.344144 0.069290
H34   H     H_    0.680827 0.369439 0.986743 0.091795
H35   H     H_    0.412042 0.645979 0.920366 0.103062
H36   H     H_    0.290821 0.861144 0.265078 -0.029987
H37   H     H_    0.522629 0.583668 0.003184 0.085259
H38   H     H_    0.324379 0.034190 0.427801 0.099747
H39   H     H_    0.866124 0.959409 0.580692 0.090430
H40   H     H_    0.811939 0.267306 0.533992 0.051521
H41   H     H_    0.987106 0.703553 0.196902 0.139326
H42   H     H_    0.333522 0.738031 0.589032 0.023668
H43   H     H_    0.133237 0.774303 0.580010 0.051854
O1    O     O_2   0.873090 0.425890 0.325140 -0.455830
O2    O     O_3   0.666708 0.792073 0.650964 -0.629614
O3    O     O_3   0.078449 0.841601 0.317723 -0.532086
O4    O     O_2   0.316610 0.574140 0.674900 -0.426563
O5    O     O_3   0.067290 0.565720 0.585630 -0.508335
O6    O     O_3   0.530210 0.372990 0.631200 -0.462934
O7    O     O_3   0.198371 0.745844 0.681100 -0.623250
O8    O     O_3   0.611340 0.366290 0.463630 -0.468299
O9    O     O_3   0.108550 0.314140 0.595200 -0.485100
O10   O     O_2   0.189744 0.120737 0.550409 -0.475557
O11   O     O_3   0.108193 0.154896 0.684933 -0.592582
O12   O     O_3   0.122420 0.434370 0.414380 -0.483609
O13   O     O_3   0.578370 0.633800 0.536380 -0.468515
O14   O     O_2   0.341510 0.231850 0.465510 -0.466506
O15   O     O_3   0.519547 0.180949 0.350240 -0.660552
O16   O     O_2   0.426408 0.460220 0.756774 -0.473655
O17   O     O_3   0.474686 0.262136 0.748275 -0.591876
O18   O     O_3   0.659500 0.627100 0.368810 -0.451381
O19   O     O_2   0.772381 0.538379 0.244760 -0.470299
O20   O     O_3   0.021486 0.255791 0.315547 -0.672175
O21   O     O_3   0.704644 0.728005 0.243571 -0.553586
O22   O     O_2   0.848200 0.768190 0.534530 -0.490167
O23   O     O_3   0.081160 0.685950 0.404810 -0.470612
O24   O     O_2   0.014293 0.878150 0.455992 -0.437797
P1    P     P_3+3 0.041040 0.394770 0.336330 0.983775
P2    P     P_3+3 0.672880 0.754030 0.556100 0.988740
P3    P     P_3+3 0.132420 0.822855 0.405247 1.015906
P4    P     P_3+3 0.148670 0.605320 0.663680 0.988828
P5    P     P_3+3 0.063951 0.175590 0.596907 0.974403
P6    P     P_3+3 0.640470 0.605637 0.273374 1.009579
P7    P     P_3+3 0.522112 0.229712 0.443792 0.943116
P8    P     P_3+3 0.549369 0.387499 0.725210 0.985476
I1    I     I_    0.794577 0.972254 0.357504 -0.463288
I2    I     I_    0.690978 0.716754 0.786053 -0.449366
I3    I     I_    0.507542 0.265197 0.216995 -0.523923
H44   H     H_    0.136647 0.315969 0.733181 0.080471
H45   H     H_    0.652591 0.212012 0.675113 -0.122884
I4    I     I_    0.446560 0.044928 0.824866 -0.407828
H46   H     H_    0.585515 0.374056 0.868737 0.118915
H47   H     H_    0.881177 0.337724 0.199583 0.129204
H48   H     H_    0.781020 0.336437 0.080896 0.102900
H49   H     H_    0.389469 0.721078 0.458589 0.048689
I5    I     I_    0.062970 0.888103 0.140982 -0.456643

loop_
_geom_bond_atom_site_label_1
_geom_bond_atom_site_label_2
_ccdc_geom_bond_type
Ba2   O12   S    
C32   C35   A    
C18   P8    S    
O5    P4    S    
C17   C29   A    
Ba1   P2    S    
C5    C6    S    
C52   H11   S    
C1    H10   S    
C51   O2    S    
C4    H18   S    
C47   P5    S    
C24   C25   A    
C27   C28   A    
C37   P1    S    
O16   P8    D    
C10   C26   A    
C7    O17   S    
C21   C27   A    
C1    H15   S    
C35   C36   A    
C22   C24   A    
Ba1   Ba2   S    
C50   H7    S    
C31   H37   S    
C40   C44   A    
C28   C29   A    
C32   C33   A    
C33   H32   S    
O12   P1    S    
C46   P7    S    
Ba2   O5    S    
C38   C47   A    
C9    C22   A    
C15   C18   A    
O18   P6    S    
C34   C45   S    
O1    P1    D    
C16   C17   A    
Ba1   O22   S    
C1    H20   S    
Ba1   P1    S    
C12   H36   S    
O24   P3    D    
Ba1   O12   S    
C9    C13   A    
C24   C32   A    
C3    I3    S    
O7    P4    S    
C51   C52   S    
C25   C37   A    
C14   C15   A    
O19   P6    D    
C6    H25   S    
O4    P4    D    
C34   H43   S    
C51   I2    S    
C7    C8    S    
C27   H31   S    
C7    H45   S    
C19   C20   A    
C6    H24   S    
C39   C41   A    
C2    O21   S    
C12   H29   S    
C28   H35   S    
C4    H17   S    
C44   C46   A    
Ba2   O14   S    
C39   H49   S    
C16   C21   A    
O11   P5    S    
C23   I5    S    
C36   C37   A    
C8    I4    S    
C2    H14   S    
C20   P4    S    
C52   H13   S    
Ba2   O4    S    
C43   C44   A    
C8    H28   S    
C49   C50   S    
O3    P3    S    
Ba1   O23   S    
C13   C17   A    
O20   P1    S    
C22   C30   A    
C3    H16   S    
O13   P2    S    
C45   H3    S    
C34   H42   S    
C29   C30   A    
C19   H30   S    
C39   C42   A    
C15   C16   A    
C12   O3    S    
O6    P8    S    
C23   H41   S    
C11   C13   A    
C2    H1    S    
C6    H23   S    
C49   O20   S    
O17   P8    S    
C10   H48   S    
C49   H5    S    
O21   P6    S    
C1    C2    S    
C14   H46   S    
O14   P7    D    
C42   C43   A    
C4    H19   S    
O2    P2    S    
C38   C46   A    
Ba2   O13   S    
C42   P2    S    
O8    P7    S    
C20   C21   A    
Ba1   O13   S    
C26   H47   S    
O10   P5    D    
C38   H40   S    
Ba1   O1    S    
C9    C10   A    
C48   H39   S    
C5    H44   S    
C5    H22   S    
C52   H12   S    
C3    O15   S    
O22   P2    D    
O9    P5    S    
C8    H27   S    
C36   H33   S    
C34   O7    S    
C50   I1    S    
C30   C31   A    
C50   H8    S    
C45   H4    S    
C43   C48   A    
C51   H9    S    
C3    C4    S    
Ba2   O6    S    
C41   P3    S    
C11   H34   S    
C31   C33   A    
Ba2   O9    S    
C40   H38   S    
C12   C23   S    
O15   P7    S    
Ba2   O8    S    
Ba2   P4    S    
C18   C19   A    
C47   C48   A    
C40   C41   A    
C11   C14   A    
C25   C26   A    
C5    O11   S    
C49   H6    S    
Ba1   O18   S    
C23   H21   S    
Ba1   O5    S    
C7    H26   S    
O23   P3    S    
Ba1   O8    S    
C45   H2    S    
C35   P6    S    
