data_mof_unit_14010.cif
_audit_creation_date              2013-03-05T16:48:40-0500
_audit_creation_method            fapswitch 2.2
_symmetry_space_group_name_H-M    P1
_symmetry_Int_Tables_number       1
_space_group_crystal_system       triclinic
_cell_length_a                    27.781602
_cell_length_b                    9.039541
_cell_length_c                    8.084129
_cell_angle_alpha                 90.251391
_cell_angle_beta                  89.99274
_cell_angle_gamma                 90.051726
_cell_volume                      2030.17062066

loop_
_atom_site_label
_atom_site_type_symbol
_atom_site_description
_atom_site_fract_x
_atom_site_fract_y
_atom_site_fract_z
_atom_type_partial_charge
O1    O     O_R   0.500000 0.285350 0.636850 -0.619386
O2    O     O_R   0.500000 0.714650 0.363150 -0.620382
O3    O     O_R   0.500000 0.714650 0.636850 -0.616206
O4    O     O_R   0.500000 0.285350 0.363150 -0.617752
C1    C     C_R   0.500013 0.217721 0.499767 0.913659
C2    C     C_R   0.500005 0.782280 0.500231 0.920675
O5    O     O_R   0.428760 0.500000 0.636860 -0.615010
O6    O     O_R   0.571240 0.500000 0.363140 -0.617826
O7    O     O_R   0.571240 0.500000 0.636860 -0.561115
O8    O     O_R   0.428760 0.500000 0.363140 -0.552553
C3    C     C_R   0.405621 0.502225 0.500020 0.967847
C4    C     C_R   0.594256 0.497532 0.499991 0.973035
Zn1   Zn    Zn3+2 0.500000 0.500000 0.682780 1.054931
Zn2   Zn    Zn3+2 0.500000 0.500000 0.317220 1.056412
C5    C     C_R   0.176595 0.358760 0.490397 0.659818
C6    C     C_R   0.823002 0.617590 0.445131 0.656721
C7    C     C_R   0.176261 0.621442 0.522860 0.651359
C8    C     C_R   0.822496 0.364053 0.526798 0.652950
O9    O     O_2   0.201539 0.230977 0.479670 -0.502255
O10   O     O_2   0.798284 0.740236 0.402827 -0.514086
O11   O     O_2   0.200875 0.749893 0.534988 -0.503905
O12   O     O_2   0.797287 0.242006 0.568470 -0.513663
N1    N     N_R   0.200463 0.490277 0.508189 -0.304896
N2    N     N_R   0.798844 0.491370 0.486522 -0.300692
C9    C     C_R   0.276909 0.539810 0.648210 0.425453
C10   C     C_R   0.722033 0.418872 0.364897 0.426967
C11   C     C_R   0.276483 0.451665 0.362342 0.321473
C12   C     C_R   0.723764 0.566465 0.618773 0.321888
C13   C     C_R   0.327113 0.557084 0.640987 0.237564
C14   C     C_R   0.671555 0.413681 0.371546 0.235568
C15   C     C_R   0.327255 0.448312 0.362253 0.281303
C16   C     C_R   0.673016 0.563015 0.626292 0.280700
C17   C     C_R   0.251988 0.491301 0.507356 0.093426
C18   C     C_R   0.747461 0.492529 0.489911 0.101007
C19   C     C_R   0.100783 0.489610 0.501635 -0.060908
C20   C     C_R   0.898425 0.489781 0.487226 -0.059156
C21   C     C_R   0.126296 0.356482 0.482951 -0.071211
C22   C     C_R   0.873340 0.619722 0.446960 -0.073056
C23   C     C_R   0.125962 0.622969 0.524085 -0.069210
C24   C     C_R   0.872807 0.360364 0.525810 -0.072343
C25   C     C_R   0.101245 0.225762 0.449697 -0.285312
C26   C     C_R   0.898927 0.747071 0.404797 -0.281207
C27   C     C_R   0.100503 0.753545 0.553246 -0.284973
C28   C     C_R   0.897803 0.232371 0.569132 -0.280205
C29   C     C_R   0.352621 0.505094 0.500115 -0.305547
C30   C     C_R   0.647016 0.490853 0.499446 -0.296607
H1    H     H_    0.120772 0.124873 0.422222 0.191618
H2    H     H_    0.879877 0.844781 0.363635 0.195281
H3    H     H_    0.119628 0.854622 0.583592 0.191434
H4    H     H_    0.878240 0.134907 0.608497 0.195684
C31   C     C_R   0.974251 0.355021 0.512176 0.041889
C32   C     C_R   0.024735 0.624846 0.503483 0.046161
C33   C     C_R   0.974579 0.623746 0.470321 0.041858
C34   C     C_R   0.024823 0.354069 0.486871 0.046117
C35   C     C_R   0.949141 0.489448 0.489634 -0.091100
C36   C     C_R   0.050051 0.489491 0.497370 -0.089885
C37   C     C_R   0.948263 0.229697 0.567439 0.504013
C38   C     C_R   0.050051 0.753842 0.551394 0.497071
C39   C     C_R   0.949359 0.749066 0.411468 0.505934
C40   C     C_R   0.050796 0.225196 0.443228 0.498094
C41   C     C_1   0.500019 0.064944 0.499672 -0.154091
C42   C     C_1   0.500014 0.935060 0.500323 -0.152765
N3    N     N_1   0.500000 0.500000 0.073640 -0.000293
N4    N     N_1   0.500000 0.500000 0.926360 -0.001188
O13   O     O_3   0.352687 0.387010 0.231944 -0.707591
H5    H     H_    0.332637 0.309946 0.178166 0.357808
O14   O     O_3   0.648062 0.629446 0.754482 -0.715818
H6    H     H_    0.667881 0.624873 0.856161 0.360904
O15   O     O_3   0.349993 0.626476 0.771542 -0.719352
H7    H     H_    0.375343 0.691556 0.725443 0.351077
O16   O     O_3   0.647489 0.329146 0.255188 -0.728297
H8    H     H_    0.619291 0.282615 0.309024 0.347713
O17   O     O_3   0.249570 0.418482 0.223290 -0.711642
H9    H     H_    0.269338 0.436826 0.123579 0.360056
O18   O     O_3   0.751447 0.642304 0.733007 -0.716693
H10   H     H_    0.732856 0.728141 0.774653 0.366013
O19   O     O_3   0.250508 0.575797 0.787826 -0.709508
H11   H     H_    0.272357 0.605312 0.878835 0.389830
O20   O     O_3   0.748131 0.350840 0.240226 -0.706809
H12   H     H_    0.726071 0.308257 0.156510 0.398847
O21   O     O_3   0.972501 0.113051 0.637685 -0.692442
H13   H     H_    0.949041 0.037975 0.676416 0.359386
O22   O     O_3   0.025103 0.872374 0.615248 -0.686071
H14   H     H_    0.048251 0.946537 0.658855 0.360817
O23   O     O_3   0.974482 0.865235 0.343586 -0.692432
H15   H     H_    0.951530 0.940299 0.301720 0.359604
O24   O     O_3   0.026766 0.106589 0.375161 -0.685429
H16   H     H_    0.050495 0.032508 0.335551 0.360909

loop_
_geom_bond_atom_site_label_1
_geom_bond_atom_site_label_2
_geom_bond_distance
_ccdc_geom_bond_type
O24   H16   0.992184 S    
O17   H9    0.989819 S    
O3    C2    1.264698 A    
C14   O16   1.381560 S    
C33   C39   1.416637 A    
C34   C40   1.414247 A    
O19   H11   0.989466 S    
C11   C17   1.400830 A    
O5    C3    1.279763 A    
C7    N1    1.368268 A    
C9    O19   1.383720 S    
C19   C21   1.404757 A    
C22   C26   1.395917 A    
C7    C23   1.397492 A    
C8    C24   1.398163 A    
C5    C21   1.398814 A    
O7    Zn1   2.013626 S    
C27   C38   1.401719 A    
C5    O9    1.350023 S    
C10   C18   1.398987 A    
N1    C17   1.431487 S    
C31   C37   1.416746 A    
C24   C28   1.395930 A    
C31   C35   1.414197 A    
C41   C42   1.174125 T    
O3    Zn1   1.977143 S    
C6    O10   1.349974 S    
C5    N1    1.367780 A    
C12   C18   1.399944 A    
C6    N2    1.366049 A    
O4    Zn2   1.977144 S    
O2    C2    1.263275 A    
C40   O24   1.375350 S    
O21   H13   0.992163 S    
C13   O15   1.380241 S    
C33   C35   1.413395 A    
C9    C13   1.404579 A    
C34   C36   1.412267 A    
C11   C15   1.410875 A    
O14   H6    0.990452 S    
C12   C16   1.411496 A    
C8    N2    1.366397 A    
C4    C30   1.467060 S    
O8    Zn2   2.013629 S    
C27   H3    1.083742 S    
C23   C27   1.395745 A    
O23   H15   0.992168 S    
N2    C18   1.427808 S    
O20   H12   0.989534 S    
C13   C29   1.419746 A    
C19   C23   1.404314 A    
O18   H10   0.990231 S    
C39   O23   1.376474 S    
O22   H14   0.992203 S    
C20   C24   1.405012 A    
C28   C37   1.402137 A    
O6    C4    1.278175 A    
C25   H1    1.083721 S    
C1    C41   1.381036 S    
C26   H2    1.083702 S    
C32   C38   1.413865 A    
C16   O14   1.382116 S    
C10   C14   1.404127 A    
O1    C1    1.263278 A    
C3    C29   1.472677 S    
O1    Zn1   1.973944 S    
C32   C33   1.419004 A    
C28   H4    1.083700 S    
C15   O13   1.382531 S    
O6    Zn2   2.013718 S    
C19   C36   1.409856 A    
C8    O12   1.350160 S    
C16   C30   1.411460 A    
C14   C30   1.419444 A    
C25   C40   1.402537 A    
O4    C1    1.264683 A    
C26   C39   1.402231 A    
C10   O20   1.383777 S    
C31   C34   1.419783 A    
C2    C42   1.381060 S    
C20   C22   1.405780 A    
O16   H8    0.990448 S    
C20   C35   1.409126 A    
C38   O22   1.375242 S    
Zn1   N4    1.969132 S    
Zn2   N3    1.969132 S    
C37   O21   1.376362 S    
C21   C25   1.395972 A    
O15   H7    0.990978 S    
O2    Zn2   1.973943 S    
O7    C4    1.277994 A    
C7    O11   1.350199 S    
O8    C3    1.279754 A    
N3    N4    1.190630 T    
O5    Zn1   2.013721 S    
O13   H5    0.990591 S    
C15   C29   1.413048 A    
C9    C17   1.401245 A    
C11   O17   1.381831 S    
C12   O18   1.381284 S    
C32   C36   1.412503 A    
C6    C22   1.398679 A    
