data_mof_unit_10148.cif
_audit_creation_date              2012-12-11T14:58:35-0500
_audit_creation_method            fapswitch 2.2
_symmetry_space_group_name_H-M    P1
_symmetry_Int_Tables_number       1
_space_group_crystal_system       triclinic
_cell_length_a                    10.905858
_cell_length_b                    10.940394
_cell_length_c                    18.738947
_cell_angle_alpha                 90.283559
_cell_angle_beta                  90.676293
_cell_angle_gamma                 59.951622
_cell_volume                      1935.20141744

loop_
_atom_site_label
_atom_site_type_symbol
_atom_type_description
_atom_site_fract_x
_atom_site_fract_y
_atom_site_fract_z
_atom_type_partial_charge
C1    C     C_R   0.357750 0.774826 0.397721 0.536647
C2    C     C_R   0.256717 0.450274 0.195328 -0.153625
C3    C     C_R   0.263787 0.465347 0.268764 -0.033840
C4    C     C_R   0.414697 0.377821 0.382417 0.547902
C5    C     C_R   0.880146 0.796461 0.360156 -0.118799
C6    C     C_R   0.934302 0.657281 0.382883 -0.108110
C7    C     C_R   0.058644 0.548811 0.353203 -0.042903
C8    C     C_R   0.133385 0.579541 0.302485 0.060916
C9    C     C_R   0.390009 0.368387 0.306018 -0.004319
C10   C     C_R   0.955506 0.303419 0.308417 -0.156253
C11   C     C_R   0.984141 0.296375 0.236147 -0.127574
C12   C     C_R   0.623399 0.132547 0.159119 0.057623
C13   C     C_R   0.874812 0.333591 0.185824 0.038134
C14   C     C_R   0.734971 0.390754 0.206952 -0.144882
C15   C     C_R   0.705547 0.404875 0.279183 -0.119509
C16   C     C_R   0.778294 0.378440 0.403361 0.531034
C17   C     C_R   0.816230 0.356371 0.329561 0.038398
C18   C     C_R   0.455605 0.822901 0.289033 -0.141347
C19   C     C_R   0.436133 0.865916 0.217787 -0.135987
C20   C     C_R   0.299242 0.935070 0.188322 0.022668
C21   C     C_R   0.182498 0.970348 0.231893 -0.153865
C22   C     C_R   0.201443 0.932807 0.303227 -0.143399
C23   C     C_R   0.367350 0.338421 0.158742 -0.000505
C24   C     C_R   0.337925 0.850803 0.330917 0.027508
C25   C     C_R   0.464712 0.278554 0.717414 -0.132376
C26   C     C_R   0.446991 0.277895 0.789669 -0.147378
C27   C     C_R   0.310801 0.335281 0.816731 0.031326
C28   C     C_R   0.344002 0.770847 0.604224 0.553451
C29   C     C_R   0.191249 0.406680 0.771941 -0.132140
C30   C     C_R   0.209306 0.411094 0.698938 -0.139583
C31   C     C_R   0.346389 0.341676 0.671532 0.035712
C32   C     C_R   0.754405 0.472336 0.730752 -0.126282
C33   C     C_R   0.761783 0.460730 0.803671 -0.127019
C34   C     C_R   0.505528 0.265164 0.267791 -0.158189
C35   C     C_R   0.813902 0.328905 0.835706 0.020526
C36   C     C_R   0.842129 0.210780 0.793804 -0.143625
C37   C     C_R   0.829175 0.223687 0.719679 -0.152200
C38   C     C_R   0.789615 0.354168 0.687871 0.029242
C39   C     C_R   0.197308 0.844271 0.711421 -0.148746
C40   C     C_R   0.372725 0.351997 0.597381 0.550837
C41   C     C_R   0.190536 0.851882 0.784739 -0.182628
C42   C     C_R   0.303695 0.843542 0.824732 0.050244
C43   C     C_R   0.426894 0.825183 0.790544 0.254801
C44   C     C_R   0.432186 0.816807 0.716130 -0.133624
C45   C     C_R   0.497448 0.249448 0.194648 -0.024961
C46   C     C_R   0.319547 0.823092 0.676857 -0.007395
C47   C     C_R   0.910970 0.316166 0.111797 0.530033
C48   C     C_R   0.330989 0.295806 0.091191 0.529875
C49   C     C_R   0.271976 0.963313 0.112038 0.562110
C50   C     C_R   0.878243 0.310621 0.905972 0.544916
C51   C     C_R   0.296305 0.291508 0.886748 0.545717
C52   C     C_R   0.759459 0.378910 0.611916 0.546210
C53   C     C_R   0.276664 0.892588 0.898092 0.580861
C54   C     C_R   0.846128 0.906935 0.086216 -0.109164
C55   C     C_R   0.787935 0.044513 0.060170 -0.083720
C56   C     C_R   0.075794 0.719405 0.278648 -0.093227
C57   C     C_R   0.678446 0.157342 0.096849 -0.056925
C58   C     C_3   0.609314 0.876435 0.805155 -0.006580
C59   C     C_3   0.703722 0.884481 0.863287 -0.351097
C60   C     C_R   0.950542 0.827367 0.307835 -0.119250
C61   C     C_R   0.683362 0.993663 0.185116 -0.100538
C62   C     C_R   0.793863 0.881538 0.148641 -0.124355
Cr1   Cr    Cr6+3 0.601770 0.606860 0.505860 0.992480
Cr2   Cr    Cr6+3 0.291380 0.601660 0.495070 1.021972
Cr3   Cr    Cr6+3 0.606880 0.291510 0.499120 1.002665
Cr4   Cr    Cr6+3 0.062440 0.063090 0.008210 0.978856
Cr5   Cr    Cr6+3 0.062880 0.375170 0.998920 1.002218
Cr6   Cr    Cr6+3 0.374700 0.061720 0.992470 1.029331
H1    H     H_    0.604795 0.196091 0.295176 0.135955
H2    H     H_    0.527672 0.836538 0.184885 0.135655
H3    H     H_    0.076032 0.021856 0.209814 0.141697
H4    H     H_    0.838223 0.774740 0.168521 0.124726
H5    H     H_    0.109816 0.958857 0.335416 0.134355
H6    H     H_    0.571719 0.230042 0.697517 0.142243
H7    H     H_    0.539887 0.224210 0.823926 0.122226
H8    H     H_    0.084964 0.451006 0.792596 0.134331
H9    H     H_    0.117605 0.464706 0.663997 0.118529
H10   H     H_    0.720835 0.575107 0.708146 0.136229
H11   H     H_    0.740217 0.552678 0.834809 0.185514
H12   H     H_    0.783415 0.880220 0.382836 0.113689
H13   H     H_    0.882677 0.107600 0.817729 0.121164
H14   H     H_    0.852253 0.132309 0.687446 0.113389
H15   H     H_    0.109009 0.848518 0.682114 0.140053
H16   H     H_    0.907711 0.935057 0.289631 0.112342
H17   H     H_    0.094295 0.868938 0.809875 0.130550
H18   H     H_    0.931053 0.819945 0.057767 0.108291
H19   H     H_    0.826906 0.063489 0.011141 0.134463
H20   H     H_    0.127922 0.744363 0.237146 0.124649
H21   H     H_    0.642634 0.971780 0.232838 0.106534
H22   H     H_    0.157868 0.519644 0.167709 0.138527
H23   H     H_    0.880344 0.633783 0.423857 0.137908
H24   H     H_    0.529767 0.985882 0.788559 0.153512
H25   H     H_    0.678545 0.818506 0.759511 0.104631
H26   H     H_    0.789205 0.776474 0.877875 0.141449
H27   H     H_    0.752554 0.945889 0.843792 0.072159
H28   H     H_    0.640885 0.936676 0.911558 0.187474
H29   H     H_    0.527033 0.796972 0.688860 0.111775
H30   H     H_    0.633437 0.263198 0.075516 0.092569
H31   H     H_    0.099135 0.441531 0.371213 0.112633
H32   H     H_    0.040541 0.268590 0.347374 0.102560
H33   H     H_    0.092032 0.258207 0.219197 0.118534
H34   H     H_    0.649665 0.425976 0.168066 0.108034
H35   H     H_    0.596414 0.455237 0.296114 0.109809
H36   H     H_    0.562618 0.759440 0.309644 0.137630
O1    O     O_R   0.748800 0.497470 0.428000 -0.531004
O2    O     O_R   0.417600 0.174890 0.067840 -0.516723
O3    O     O_R   0.375320 0.946260 0.070860 -0.496929
O4    O     O_R   0.476420 0.724060 0.429470 -0.509298
O5    O     O_R   0.160600 0.919630 0.926660 -0.541779
O6    O     O_R   0.933060 0.190520 0.936020 -0.522608
O7    O     O_R   0.908880 0.403460 0.925020 -0.519918
O8    O     O_R   0.179600 0.361450 0.918490 -0.503790
O9    O     O_R   0.391510 0.170860 0.907530 -0.533444
O10   O     O_R   0.351130 0.942530 0.922260 -0.443843
O11   O     O_3   0.166667 0.166667 0.999870 -0.266549
O12   O     O_R   0.300070 0.471040 0.567100 -0.496375
O13   O     O_R   0.264580 0.744340 0.416750 -0.512814
O14   O     O_R   0.309380 0.472470 0.418200 -0.497344
O15   O     O_R   0.501710 0.260430 0.414300 -0.521559
O16   O     O_R   0.728090 0.305600 0.428960 -0.515230
O17   O     O_R   0.738760 0.495930 0.588610 -0.531661
O18   O     O_R   0.467110 0.722640 0.578360 -0.508048
O19   O     O_R   0.254530 0.742800 0.577360 -0.519590
O20   O     O_3   0.543484 0.803050 0.831840 -0.564824
O21   O     O_R   0.491670 0.258900 0.574910 -0.524420
O22   O     O_R   0.718780 0.304180 0.577850 -0.505267
O23   O     O_3   0.500010 0.500010 0.500020 -0.259774
O24   O     O_R   0.186690 0.923650 0.086970 -0.518104
O25   O     O_R   0.957250 0.194250 0.084630 -0.528667
O26   O     O_R   0.934970 0.407490 0.085330 -0.512504
O27   O     O_R   0.203780 0.365190 0.067090 -0.512017

loop_
_geom_bond_atom_site_label_1
_geom_bond_atom_site_label_2
_ccdc_geom_bond_type
C25   C31   A    
C4    C9    S    
C51   O8    A    
C23   C45   A    
C27   C29   A    
C60   H16   S    
C41   C42   A    
C35   C36   A    
C8    C56   A    
C28   O19   A    
C7    C8    A    
C39   C41   A    
C29   H8    S    
C40   O12   A    
C28   C46   S    
C26   C27   A    
C37   C38   A    
C7    H31   S    
C21   H3    S    
Cr2   O12   S    
Cr3   O23   S    
C36   C37   A    
C58   H25   S    
C18   C19   A    
C16   O16   A    
C42   C53   S    
C30   C31   A    
C28   O18   A    
C56   H20   S    
C38   C52   S    
C57   H30   S    
C10   C17   A    
C6    H23   S    
C50   O6    A    
Cr2   O14   S    
C31   C40   S    
C25   H6    S    
C44   H29   S    
C2    H22   S    
Cr5   O11   S    
C30   H9    S    
C48   O2    A    
C19   C20   A    
C61   H21   S    
C16   C17   S    
C48   O27   A    
Cr6   O3    S    
C32   C38   A    
Cr1   O1    S    
C29   C30   A    
Cr6   O9    S    
Cr4   O25   S    
C13   C14   A    
C4    O14   A    
Cr6   O2    S    
Cr1   O17   S    
C27   C51   S    
Cr4   O11   S    
C47   O26   A    
C49   O3    A    
C3    C8    S    
C54   H18   S    
C52   O22   A    
C33   H11   S    
C1    O13   A    
C54   C62   A    
C25   C26   A    
Cr2   O13   S    
C56   C60   A    
Cr3   O21   S    
C43   C44   A    
C20   C49   S    
C3    C9    A    
C52   O17   A    
C36   H13   S    
Cr2   O23   S    
C35   C50   S    
C26   H7    S    
Cr3   O15   S    
C62   H4    S    
C11   H33   S    
C34   C45   A    
C18   H36   S    
Cr4   O6    S    
C5    H12   S    
C10   H32   S    
C34   H1    S    
C16   O1    A    
C59   H27   S    
C39   C46   A    
C12   C57   A    
Cr5   O7    S    
C59   H26   S    
C47   O25   A    
C55   C57   A    
C9    C34   A    
C18   C24   A    
C37   H14   S    
Cr5   O26   S    
C42   C43   A    
Cr6   O11   S    
Cr1   O18   S    
C53   O10   A    
C13   C47   S    
C53   O5    A    
C15   C17   A    
C49   O24   A    
C54   C55   A    
C23   C48   S    
C5    C60   A    
C51   O9    A    
Cr5   O27   S    
C12   C45   S    
C6    C7    A    
Cr2   O19   S    
C41   H17   S    
C58   O20   S    
Cr3   O22   S    
C4    O15   A    
C2    C3    A    
C58   C59   S    
C39   H15   S    
C32   C33   A    
C12   C61   A    
C11   C13   A    
C5    C6    A    
C40   O21   A    
C50   O7    A    
C33   C35   A    
Cr3   O16   S    
Cr4   O24   S    
C22   C24   A    
Cr4   O5    S    
C55   H19   S    
C61   C62   A    
C14   H34   S    
C10   C11   A    
C1    O4    A    
C32   H10   S    
Cr5   O8    S    
C20   C21   A    
C1    C24   S    
C59   H28   S    
C2    C23   A    
C14   C15   A    
C19   H2    S    
C22   H5    S    
C15   H35   S    
Cr1   O4    S    
C21   C22   A    
C58   H24   S    
C43   O20   S    
C44   C46   A    
Cr1   O23   S    
Cr6   O10   S    
