data_mof_unit_10508.cif
_audit_creation_date              2012-12-11T15:11:43-0500
_audit_creation_method            fapswitch 2.2
_symmetry_space_group_name_H-M    P1
_symmetry_Int_Tables_number       1
_space_group_crystal_system       triclinic
_cell_length_a                    20.140913
_cell_length_b                    7.217159
_cell_length_c                    14.065341
_cell_angle_alpha                 90.223478
_cell_angle_beta                  103.99329
_cell_angle_gamma                 89.803647
_cell_volume                      1983.84511483

loop_
_atom_site_label
_atom_site_type_symbol
_atom_type_description
_atom_site_fract_x
_atom_site_fract_y
_atom_site_fract_z
_atom_type_partial_charge
O1    O     O_R   0.449830 0.506740 0.599960 -0.538800
O2    O     O_R   0.550170 0.006740 0.400040 -0.538792
O3    O     O_R   0.588980 0.179860 0.596720 -0.557845
O4    O     O_R   0.411020 0.679860 0.403280 -0.556929
C1    C     C_R   0.613729 0.347525 0.624012 0.661655
C2    C     C_R   0.385849 0.847282 0.376326 0.656212
O5    O     O_R   0.452740 0.177340 0.612040 -0.547098
O6    O     O_R   0.547260 0.677340 0.387960 -0.548220
O7    O     O_R   0.412960 0.002070 0.415460 -0.533754
O8    O     O_R   0.587040 0.502070 0.584540 -0.532120
C3    C     C_R   0.436744 0.343800 0.638304 0.693118
C4    C     C_R   0.563178 0.842805 0.361530 0.693248
O9    O     O_3   0.487110 0.337570 0.435490 -0.378876
O10   O     O_3   0.512890 0.837570 0.564510 -0.377433
V1    V     V_3+5 0.502390 0.064650 0.511970 1.393718
V2    V     V_3+5 0.497610 0.564650 0.488030 1.394861
C5    C     C_R   0.601798 0.871955 0.110472 0.386292
C6    C     C_R   0.399579 0.369419 0.890246 0.390245
H1    H     H_    0.515132 0.935252 0.170575 0.139833
H2    H     H_    0.485736 0.433549 0.830204 0.139954
H3    H     H_    0.684246 0.829190 0.985846 0.114006
H4    H     H_    0.317171 0.323996 0.015448 0.113331
C7    C     C_R   0.601292 0.837073 0.282127 -0.202927
C8    C     C_R   0.398989 0.340845 0.717831 -0.205783
C9    C     C_R   0.929457 0.854958 0.311261 0.037165
C10   C     C_R   0.073389 0.389975 0.692726 0.041161
C11   C     C_R   0.892445 0.852853 0.382232 -0.164696
C12   C     C_R   0.111251 0.428432 0.625265 -0.170804
C13   C     C_R   0.821881 0.842003 0.361140 0.078839
C14   C     C_R   0.179751 0.380269 0.642306 0.077212
C15   C     C_R   0.782879 0.824268 0.261540 0.029580
C16   C     C_R   0.218138 0.337058 0.740066 0.029255
C17   C     C_R   0.820133 0.836447 0.186191 0.002018
C18   C     C_R   0.181363 0.340216 0.815823 0.001814
C19   C     C_R   0.708968 0.809825 0.232538 0.007183
C20   C     C_R   0.291694 0.315205 0.768226 0.009858
C21   C     C_R   0.673779 0.838741 0.133953 -0.055588
C22   C     C_R   0.327453 0.337678 0.867014 -0.056145
C23   C     C_R   0.710643 0.831118 0.062558 -0.274773
C24   C     C_R   0.290742 0.327189 0.938697 -0.275916
C25   C     C_R   0.782678 0.828966 0.087171 0.285678
C26   C     C_R   0.218596 0.324945 0.914286 0.286096
C27   C     C_R   0.667265 0.754259 0.295014 0.309089
C28   C     C_R   0.332577 0.261380 0.704312 0.308206
C29   C     C_R   0.568446 0.892340 0.187179 -0.190314
C30   C     C_R   0.432273 0.393357 0.813434 -0.191338
C31   C     C_R   0.893936 0.855399 0.211697 -0.120421
C32   C     C_R   0.107903 0.360596 0.790800 -0.118724
H5    H     H_    0.918970 0.856177 0.458025 0.114214
H6    H     H_    0.085243 0.476674 0.553514 0.125795
C33   C     C_3   0.236341 0.714649 0.149158 -0.028400
C34   C     C_3   0.763858 0.216490 0.849601 -0.029729
H7    H     H_    0.210917 0.581803 0.158393 0.156702
H8    H     H_    0.789785 0.084084 0.839481 0.157777
C35   C     C_3   0.307079 0.703745 0.225111 -0.408624
C36   C     C_3   0.692967 0.205208 0.774303 -0.416218
H9    H     H_    0.349831 0.707283 0.187725 0.156946
H10   H     H_    0.650374 0.207875 0.811813 0.159609
H11   H     H_    0.311125 0.568914 0.264216 0.142120
H12   H     H_    0.689230 0.070544 0.734651 0.140603
H13   H     H_    0.268347 0.749366 0.407351 0.097753
H14   H     H_    0.731972 0.238284 0.596785 0.098571
C37   C     C_3   0.186278 0.834642 0.284838 0.143884
C38   C     C_3   0.813457 0.341432 0.713851 0.137418
C39   C     C_3   0.229143 0.058781 0.181852 -0.355551
C40   C     C_3   0.769940 0.561708 0.819358 -0.362890
C41   C     C_3   0.190686 0.868587 0.178223 0.032477
C42   C     C_3   0.809152 0.371739 0.821307 0.041089
H15   H     H_    0.202640 0.169927 0.214078 0.176166
H16   H     H_    0.796122 0.675659 0.789135 0.170218
H17   H     H_    0.228669 0.101296 0.109010 0.169975
H18   H     H_    0.769508 0.602551 0.892706 0.169867
C43   C     C_3   0.316016 0.864180 0.301433 0.044696
C44   C     C_3   0.683404 0.365119 0.698739 0.045774
C45   C     C_3   0.257567 0.862334 0.355934 0.207370
C46   C     C_3   0.741408 0.359583 0.643701 0.206851
C47   C     C_3   0.305599 0.045942 0.240493 -0.301224
C48   C     C_3   0.693734 0.548264 0.759228 -0.303637
H19   H     H_    0.340145 0.047028 0.189584 0.120683
H20   H     H_    0.658681 0.551237 0.809226 0.120481
H21   H     H_    0.318753 0.171045 0.287919 0.182670
H22   H     H_    0.680929 0.672206 0.711369 0.181908
H23   H     H_    0.149871 0.939234 0.302303 0.110664
H24   H     H_    0.847220 0.451020 0.695052 0.105246
O11   O     O_R   0.912980 0.203550 0.915410 -0.537342
O12   O     O_R   0.087020 0.703550 0.084590 -0.543334
O13   O     O_R   0.047270 0.535570 0.887960 -0.550956
O14   O     O_R   0.952730 0.035570 0.112040 -0.550917
C49   C     C_R   0.065838 0.368013 0.865012 0.783192
C50   C     C_R   0.935146 0.867833 0.136532 0.783632
O15   O     O_R   0.911030 0.532970 0.903270 -0.539449
O16   O     O_R   0.088970 0.032970 0.096730 -0.538892
O17   O     O_R   0.949820 0.708150 0.099970 -0.528445
O18   O     O_R   0.050180 0.208150 0.900030 -0.530420
C51   C     C_R   0.882243 0.368073 0.887747 0.637534
C52   C     C_R   0.117779 0.867419 0.111761 0.626878
O19   O     O_3   0.012900 0.375230 0.064480 -0.380000
O20   O     O_3   0.987100 0.875230 0.935520 -0.376883
V3    V     V_3+5 0.997610 0.648190 0.988040 1.451191
V4    V     V_3+5 0.002390 0.148190 0.011960 1.452926
C53   C     C_3   0.240407 0.708465 0.039726 -0.403548
C54   C     C_3   0.252481 0.881684 0.984044 -0.315508
C55   C     C_3   0.262944 0.830719 0.882801 -0.712364
H25   H     H_    0.309181 0.742641 0.889816 0.240908
H26   H     H_    0.217646 0.755709 0.838976 0.223435
H27   H     H_    0.269630 0.958091 0.842459 0.239146
H28   H     H_    0.205694 0.968564 0.970313 0.223802
H29   H     H_    0.298239 0.957684 0.025408 0.207435
H30   H     H_    0.282469 0.612630 0.037249 0.201976
H31   H     H_    0.191240 0.651951 0.996321 0.209266
C56   C     C_3   0.759402 0.208915 0.958867 -0.400529
C57   C     C_3   0.743047 0.379466 0.013760 -0.319162
C58   C     C_3   0.728945 0.326723 0.112565 -0.707904
H32   H     H_    0.682303 0.239462 0.101366 0.243438
H33   H     H_    0.773129 0.250810 0.158704 0.223730
H34   H     H_    0.720526 0.453365 0.152770 0.239996
H35   H     H_    0.789013 0.469063 0.031436 0.221051
H36   H     H_    0.697514 0.452979 0.969900 0.207407
H37   H     H_    0.718939 0.108372 0.960096 0.201457
H38   H     H_    0.809291 0.157646 0.003199 0.208732
O21   O     O_3   0.162965 0.655138 0.296335 -0.679641
H39   H     H_    0.113573 0.653234 0.263678 0.282314
O22   O     O_3   0.839723 0.165048 0.701437 -0.674386
H40   H     H_    0.890130 0.174470 0.722359 0.281988
O23   O     O_3   0.256292 0.030516 0.406104 -0.679622
H41   H     H_    0.269694 0.002114 0.476507 0.282461
O24   O     O_3   0.739731 0.520062 0.587174 -0.674507
H42   H     H_    0.725962 0.478191 0.517036 0.275880
O25   O     O_3   0.563254 0.894780 0.016005 -0.634594
H43   H     H_    0.575975 0.793947 0.975633 0.285502
O26   O     O_3   0.438765 0.385191 0.984962 -0.634384
H44   H     H_    0.424657 0.286029 0.024463 0.286397
O27   O     O_3   0.686147 0.594002 0.347970 -0.671350
H45   H     H_    0.649917 0.555075 0.379764 0.296299
O28   O     O_3   0.311744 0.106824 0.647106 -0.669945
H46   H     H_    0.346642 0.072924 0.611652 0.293624
C59   C     C_3   0.007406 0.843033 0.342197 -0.355037
C60   C     C_3   0.038412 0.846030 0.454319 -0.329685
C61   C     C_3   0.115315 0.833573 0.481749 -0.792121
H47   H     H_    0.129573 0.704570 0.449233 0.262792
H48   H     H_    0.137803 0.958027 0.456310 0.248416
H49   H     H_    0.133880 0.825651 0.562790 0.230089
H50   H     H_    0.023757 0.974008 0.487236 0.207039
H51   H     H_    0.019571 0.725826 0.488198 0.186380
H52   H     H_    0.021407 0.709101 0.313198 0.162609
H53   H     H_    0.029432 0.959313 0.308455 0.162059
C62   C     C_3   0.997448 0.349503 0.658018 -0.360131
C63   C     C_3   0.969522 0.341812 0.545647 -0.324603
C64   C     C_3   0.900863 0.247161 0.516571 -0.771090
H54   H     H_    0.904790 0.108511 0.550858 0.237315
H55   H     H_    0.862302 0.331833 0.540793 0.250084
H56   H     H_    0.885459 0.232121 0.435396 0.231455
H57   H     H_    0.963544 0.483423 0.515424 0.191797
H58   H     H_    0.004901 0.263610 0.510725 0.196674
H59   H     H_    0.990539 0.209777 0.687050 0.166991
H60   H     H_    0.967747 0.452066 0.689819 0.153457
C65   C     C_3   0.794721 0.840070 0.452240 -0.295102
C66   C     C_3   0.744519 0.993889 0.458375 -0.329394
C67   C     C_3   0.700656 0.926787 0.525686 -0.692591
H61   H     H_    0.677876 0.789880 0.503364 0.244726
H62   H     H_    0.731177 0.918604 0.602771 0.243223
H63   H     H_    0.657897 0.021342 0.519500 0.227276
H64   H     H_    0.773453 0.119999 0.487390 0.198753
H65   H     H_    0.712347 0.038322 0.386962 0.190193
H66   H     H_    0.776518 0.701237 0.460131 0.238712
H67   H     H_    0.835435 0.851527 0.521512 0.160112
C68   C     C_3   0.203777 0.362431 0.549417 -0.299524
C69   C     C_3   0.258009 0.502618 0.541836 -0.319386
C70   C     C_3   0.297029 0.429483 0.469438 -0.697287
H68   H     H_    0.318303 0.290833 0.489688 0.242538
H69   H     H_    0.263988 0.426687 0.393682 0.252707
H70   H     H_    0.341336 0.516321 0.473785 0.226982
H71   H     H_    0.232787 0.635272 0.518980 0.188283
H72   H     H_    0.293120 0.539985 0.612082 0.189148
H73   H     H_    0.217700 0.217818 0.540971 0.230716
H74   H     H_    0.161740 0.381438 0.481991 0.161616
O29   O     O_3   0.817439 0.823254 0.014140 -0.667748
H75   H     H_    0.786283 0.861623 0.951991 0.255915
O30   O     O_3   0.184172 0.317708 0.987033 -0.671147
H76   H     H_    0.215026 0.358429 0.048995 0.255693

loop_
_geom_bond_atom_site_label_1
_geom_bond_atom_site_label_2
_ccdc_geom_bond_type
C1    C44   S    
C40   C42   S    
C65   C66   S    
C7    C29   A    
C35   H11   S    
C11   C13   A    
C70   H69   S    
C70   H68   S    
C9    C59   S    
C62   C63   S    
O1    C3    A    
C41   C52   S    
O2    C4    A    
C2    O7    A    
O27   H45   S    
O22   H40   S    
C23   C25   A    
H13   C45   S    
C69   H72   S    
C4    C7    S    
C53   C54   S    
C44   C46   S    
C2    C43   S    
O12   V3    S    
C38   C42   S    
C59   H52   S    
C19   C21   A    
C5    C29   A    
C14   C68   S    
C58   H32   S    
C60   H50   S    
C64   H55   S    
C57   H35   S    
C61   H49   S    
C48   H20   S    
C53   H30   S    
C3    C8    S    
O16   C52   A    
C7    C27   A    
C56   H37   S    
C49   O18   A    
C27   O27   S    
C38   H24   S    
O19   V3    S    
C12   H6    S    
C40   H18   S    
C56   C57   S    
C12   C14   A    
C39   C41   S    
C18   C26   A    
C67   H62   S    
C54   H29   S    
C47   H21   S    
C19   C27   A    
C9    C31   A    
C34   C42   S    
C66   H65   S    
C58   H34   S    
C28   O28   S    
C24   C26   A    
O6    V2    S    
C22   C24   A    
C43   C45   S    
H14   C46   S    
C6    O26   S    
C10   C62   S    
C63   H58   S    
C6    C30   A    
C57   C58   S    
C37   O21   S    
C34   H8    S    
O13   V3    S    
C47   H19   S    
C69   H71   S    
C40   C48   S    
C37   C41   S    
C42   C51   S    
C39   C47   S    
C5    O25   S    
C59   H53   S    
O28   H46   S    
C36   C44   S    
C63   C64   S    
O4    C2    A    
C64   H56   S    
C65   H66   S    
C68   C69   S    
C13   C65   S    
C34   C56   S    
C53   H31   S    
C39   H17   S    
C36   H12   S    
C37   H23   S    
C56   H38   S    
C33   H7    S    
C16   C18   A    
C66   C67   S    
O4    V2    S    
O5    C3    A    
C62   H60   S    
C57   H36   S    
C48   H22   S    
C67   H61   S    
H3    C23   S    
O18   V4    S    
C26   O30   S    
O6    C4    A    
H4    C24   S    
C15   C17   A    
C38   C46   S    
C67   H63   S    
C54   H28   S    
C55   H26   S    
O1    V2    S    
C33   C41   S    
O11   C51   A    
O2    V1    S    
O21   H39   S    
O14   V4    S    
O12   C52   A    
C66   H64   S    
C69   C70   S    
O14   C50   A    
O29   H75   S    
O20   V4    S    
C32   C49   S    
C35   H9    S    
O23   H41   S    
C8    C28   A    
C31   C50   S    
C15   C19   A    
C20   C28   A    
C33   C53   S    
C63   H57   S    
C5    C21   A    
O26   H44   S    
C16   C20   A    
O19   V4    S    
O3    V1    S    
C11   H5    S    
O16   V4    S    
C50   O17   A    
C68   H73   S    
O25   H43   S    
C25   O29   S    
C39   H15   S    
O17   V3    S    
O3    C1    A    
C65   H67   S    
C61   H47   S    
H1    C29   S    
C10   C32   A    
C62   H59   S    
C9    C11   A    
C38   O22   S    
C59   C60   S    
C10   C12   A    
C8    C30   A    
O13   C49   A    
C6    C22   A    
C17   C25   A    
C1    O8    A    
C13   C15   A    
O11   V4    S    
O8    V2    S    
C64   H54   S    
C20   C22   A    
C14   C16   A    
C61   H48   S    
C40   H16   S    
C37   C45   S    
C17   C31   A    
O5    V1    S    
C70   H70   S    
C36   H10   S    
C55   H27   S    
C33   C35   S    
O7    V1    S    
C54   C55   S    
C60   C61   S    
O15   C51   A    
O30   H76   S    
C35   C43   S    
C34   C36   S    
C18   C32   A    
C21   C23   A    
O20   V3    S    
C44   C48   S    
O9    V2    S    
C55   H25   S    
C46   O24   S    
C43   C47   S    
O10   V1    S    
C60   H51   S    
C45   O23   S    
O15   V3    S    
H2    C30   S    
O24   H42   S    
C68   H74   S    
C58   H33   S    
