data_mof_unit_33822.cif
_audit_creation_date              2012-12-10T18:30:26-0500
_audit_creation_method            fapswitch 2.2
_symmetry_space_group_name_H-M    P1
_symmetry_Int_Tables_number       1
_space_group_crystal_system       triclinic
_cell_length_a                    14.991504
_cell_length_b                    14.172302
_cell_length_c                    15.468982
_cell_angle_alpha                 89.78656
_cell_angle_beta                  81.747558
_cell_angle_gamma                 104.26799
_cell_volume                      3149.62103825

loop_
_atom_site_label
_atom_site_type_symbol
_atom_type_description
_atom_site_fract_x
_atom_site_fract_y
_atom_site_fract_z
_atom_type_partial_charge
C1    C     C_R   0.559268 0.514614 0.337666 0.883963
C2    C     C_R   0.441265 0.488663 0.662517 0.885412
C3    C     C_R   0.567535 0.560359 0.097908 0.064297
C4    C     C_R   0.454925 0.536162 0.897085 0.059507
C5    C     C_R   0.658859 0.553691 0.063498 0.074121
C6    C     C_R   0.365589 0.549685 0.928891 0.074579
C7    C     C_R   0.502545 0.566566 0.040901 0.104192
C8    C     C_R   0.525795 0.552505 0.951009 0.104939
C9    C     C_R   0.619409 0.555852 0.917676 -0.236514
C10   C     C_R   0.414208 0.583267 0.070717 -0.243783
C11   C     C_R   0.684765 0.557797 0.972781 -0.231248
C12   C     C_R   0.347777 0.576085 0.015559 -0.232906
C13   C     C_R   0.158548 0.353086 0.363205 0.068949
C14   C     C_R   0.835906 0.630240 0.649084 0.058254
C15   C     C_R   0.248710 0.381277 0.385979 0.282476
C16   C     C_R   0.751407 0.615573 0.616145 0.299367
C17   C     C_R   0.202820 0.489438 0.490131 -0.112521
C18   C     C_R   0.793033 0.502120 0.515824 -0.127678
C19   C     C_R   0.108992 0.456741 0.477209 -0.076321
C20   C     C_R   0.879214 0.512692 0.545926 -0.071144
C21   C     C_R   0.086501 0.387895 0.411705 0.016521
C22   C     C_R   0.899458 0.574839 0.616512 0.043176
C23   C     C_R   0.498604 0.329168 0.499686 0.879598
C24   C     C_R   0.501450 0.670847 0.500128 0.881632
C25   C     C_R   0.037448 0.490779 0.527706 0.078568
C26   C     C_R   0.946469 0.465506 0.505787 0.066087
C27   C     C_R   0.924497 0.392136 0.446115 -0.292143
C28   C     C_R   0.052520 0.543860 0.603142 -0.307279
C29   C     C_R   0.992155 0.352869 0.399467 0.235520
C30   C     C_R   0.983083 0.580113 0.650580 0.239204
C31   C     C_1   0.496248 0.226968 0.498906 -0.214360
C32   C     C_1   0.503902 0.773070 0.500531 -0.219914
C33   C     C_1   0.496765 0.141797 0.498871 -0.018154
C34   C     C_1   0.503558 0.858282 0.500388 -0.020116
C35   C     C_1   0.499066 0.042390 0.499319 -0.000397
C36   C     C_1   0.501402 0.957724 0.499852 0.001280
C37   C     C_R   0.598728 0.532187 0.244573 -0.156972
C38   C     C_R   0.406380 0.496331 0.755558 -0.149248
C39   C     C_R   0.721313 0.540494 0.120551 0.155957
C40   C     C_R   0.296460 0.536599 0.873053 0.150263
C41   C     C_R   0.691122 0.530043 0.211445 0.176620
C42   C     C_R   0.317176 0.509947 0.785986 0.180578
C43   C     C_R   0.540896 0.552304 0.188337 -0.338035
C44   C     C_R   0.470626 0.503019 0.813003 -0.325329
H1    H     H_    0.754596 0.558002 0.942948 0.152037
H2    H     H_    0.281766 0.589743 0.042658 0.155929
H3    H     H_    0.853466 0.359433 0.438315 0.156186
H4    H     H_    0.115867 0.552591 0.630501 0.139045
H5    H     H_    0.533890 0.481632 0.790318 0.176105
H6    H     H_    0.472788 0.557242 0.217121 0.176409
H7    H     H_    0.644747 0.558108 0.848693 0.133866
H8    H     H_    0.394628 0.604597 0.136076 0.144766
H9    H     H_    0.772555 0.457373 0.462491 0.162651
H10   H     H_    0.225906 0.545087 0.534890 0.158015
N1    N     N_R   0.268300 0.449640 0.447270 -0.117039
N2    N     N_R   0.731700 0.550360 0.552730 -0.120439
O1    O     O_R   0.616880 0.525390 0.394380 -0.582112
O2    O     O_R   0.383120 0.474610 0.605620 -0.580152
O3    O     O_R   0.468100 0.493070 0.360490 -0.587931
O4    O     O_R   0.531900 0.506930 0.639510 -0.602588
O5    O     O_R   0.574410 0.389880 0.516950 -0.596390
O6    O     O_R   0.425590 0.610120 0.483050 -0.597348
O7    O     O_R   0.425630 0.357560 0.483060 -0.582932
O8    O     O_R   0.574370 0.642440 0.516940 -0.573735
Zn1   Zn    Zn3+2 0.599340 0.521580 0.522630 0.945885
Zn2   Zn    Zn3+2 0.400660 0.478420 0.477370 0.950002
N3    N     N_2   0.248195 0.496220 0.729649 -0.289227
H11   H     H_    0.207093 0.544906 0.737345 0.232550
C45   C     C_3   0.193854 0.396640 0.728742 -0.749415
H12   H     H_    0.151414 0.373660 0.793803 0.231516
H13   H     H_    0.240029 0.346947 0.711547 0.245536
H14   H     H_    0.146420 0.390835 0.679032 0.233783
N4    N     N_2   0.753579 0.517026 0.269161 -0.287981
H15   H     H_    0.789323 0.465153 0.250632 0.233161
C46   C     C_3   0.814293 0.606873 0.291712 -0.728730
H16   H     H_    0.861493 0.643627 0.232711 0.232596
H17   H     H_    0.857391 0.590766 0.339784 0.228313
H18   H     H_    0.772779 0.656688 0.321486 0.247401
N5    N     N_2   0.814536 0.537482 0.088179 -0.313282
H19   H     H_    0.850084 0.592967 0.043552 0.217986
C47   C     C_3   0.826006 0.442548 0.062503 -0.825595
H20   H     H_    0.791636 0.419327 0.004414 0.244339
H21   H     H_    0.795862 0.387314 0.116750 0.243461
H22   H     H_    0.901314 0.445982 0.045800 0.242937
N6    N     N_2   0.205416 0.547872 0.903361 -0.313509
H23   H     H_    0.174680 0.512081 0.962341 0.221088
C48   C     C_3   0.196012 0.646844 0.897586 -0.827158
H24   H     H_    0.238055 0.693625 0.942095 0.243540
H25   H     H_    0.121903 0.647397 0.916645 0.243860
H26   H     H_    0.219086 0.677809 0.829675 0.240109
N7    N     N_2   0.963436 0.272371 0.346090 -0.268064
H27   H     H_    0.944060 0.205931 0.379935 0.224665
C49   C     C_3   0.902390 0.282820 0.283946 -0.803848
H28   H     H_    0.906371 0.229312 0.232234 0.247037
H29   H     H_    0.923795 0.357158 0.252398 0.244273
H30   H     H_    0.829145 0.268141 0.316749 0.224233
N8    N     N_2   0.996859 0.616618 0.734559 -0.309914
H31   H     H_    0.064945 0.651648 0.739203 0.222141
C50   C     C_3   0.956077 0.545739 0.805857 -0.823362
H32   H     H_    0.962767 0.581601 0.869103 0.237222
H33   H     H_    0.992545 0.486094 0.802608 0.256226
H34   H     H_    0.880845 0.514646 0.803320 0.239502
N9    N     N_2   0.683570 0.665077 0.651693 -0.246304
H35   H     H_    0.667610 0.657649 0.718820 0.207201
C51   C     C_3   0.699586 0.765152 0.620403 -0.714495
H36   H     H_    0.749362 0.814517 0.656723 0.232510
H37   H     H_    0.633024 0.787371 0.632087 0.232570
H38   H     H_    0.726202 0.773587 0.549186 0.236476
N10   N     N_2   0.317394 0.331648 0.352604 -0.253731
H39   H     H_    0.301288 0.259166 0.372643 0.197601
C52   C     C_3   0.357442 0.349601 0.261277 -0.732016
H40   H     H_    0.323718 0.290406 0.221118 0.210414
H41   H     H_    0.432255 0.350131 0.253879 0.244065
H42   H     H_    0.350845 0.420623 0.236220 0.235071
N11   N     N_2   0.140293 0.289146 0.293322 -0.280904
H43   H     H_    0.173334 0.233315 0.288443 0.220245
C53   C     C_3   0.139665 0.336677 0.210321 -0.733719
H44   H     H_    0.111588 0.281025 0.164324 0.233173
H45   H     H_    0.210839 0.376839 0.181214 0.222682
H46   H     H_    0.095181 0.389055 0.218575 0.252425
N12   N     N_2   0.857013 0.705778 0.709029 -0.303903
H47   H     H_    0.859766 0.684066 0.771953 0.253250
C54   C     C_3   0.925878 0.793395 0.674308 -0.765815
H48   H     H_    0.925450 0.852012 0.721633 0.231568
H49   H     H_    0.909728 0.818410 0.611544 0.238342
H50   H     H_    0.996615 0.780743 0.662855 0.244680

loop_
_geom_bond_atom_site_label_1
_geom_bond_atom_site_label_2
_ccdc_geom_bond_type
C44   H5    S    
C7    C10   A    
C48   H24   S    
C49   H28   S    
C27   C29   A    
N4    H15   S    
C15   N10   S    
C35   C36   T    
C9    H7    S    
C4    C8    A    
C10   H8    S    
N1    Zn2   S    
C16   N2    A    
N8    H31   S    
C54   H48   S    
C39   C41   A    
N6    H23   S    
C25   C28   A    
C51   H37   S    
C30   N8    S    
C3    C43   A    
C26   C27   A    
C19   C21   A    
C5    C11   A    
C3    C7    A    
C53   H45   S    
O3    Zn2   S    
C6    C12   A    
C2    O4    A    
C23   O7    A    
C54   H49   S    
C39   N5    S    
N2    Zn1   S    
C45   H13   S    
C18   H9    S    
N8    C50   S    
O2    Zn2   S    
C52   H40   S    
C8    C9    A    
N11   C53   S    
C31   C33   T    
C17   N1    A    
C18   C20   A    
C18   N2    A    
C40   C42   A    
O7    Zn2   S    
C49   H29   S    
C14   N12   S    
N4    C46   S    
C47   H21   S    
C47   H20   S    
N6    C48   S    
C51   H38   S    
O6    Zn2   S    
N3    H11   S    
C7    C8    A    
C6    C40   A    
C4    C6    A    
C53   H46   S    
N7    H27   S    
N5    C47   S    
C17   C19   A    
C54   H50   S    
C4    C44   A    
C23   C31   S    
C25   C26   A    
C21   C29   A    
N3    C45   S    
C15   N1    A    
C40   N6    S    
C37   C43   A    
C45   H14   S    
C46   H16   S    
C24   C32   S    
C38   C44   A    
C1    O1    A    
N7    C49   S    
C9    C11   A    
C2    C38   S    
C16   N9    S    
C50   H32   S    
C13   C21   A    
C52   H41   S    
C46   H17   S    
N12   H47   S    
C13   N11   S    
C10   C12   A    
C12   H2    S    
C50   H33   S    
C20   C22   A    
O4    Zn1   S    
C49   H30   S    
C13   C15   A    
C42   N3    S    
N9    C51   S    
C14   C16   A    
C11   H1    S    
C29   N7    S    
C47   H22   S    
C27   H3    S    
C5    C39   A    
C28   H4    S    
C24   O6    A    
C22   C30   A    
O1    Zn1   S    
C3    C5    A    
C2    O2    A    
C43   H6    S    
C38   C42   A    
C1    C37   S    
C51   H36   S    
O8    Zn1   S    
C14   C22   A    
C1    O3    A    
N10   H39   S    
C20   C26   A    
N10   C52   S    
C28   C30   A    
C33   C35   S    
C52   H42   S    
C34   C36   S    
C37   C41   A    
C45   H12   S    
C19   C25   A    
C46   H18   S    
N12   C54   S    
C41   N4    S    
N5    H19   S    
O5    Zn1   S    
C23   O5    A    
C50   H34   S    
C24   O8    A    
C48   H26   S    
N9    H35   S    
C48   H25   S    
C53   H44   S    
C17   H10   S    
N11   H43   S    
C32   C34   T    
