data_mof_unit_6623.cif
_audit_creation_date              2012-12-11T16:08:51-0500
_audit_creation_method            fapswitch 2.2
_symmetry_space_group_name_H-M    P1
_symmetry_Int_Tables_number       1
_space_group_crystal_system       triclinic
_cell_length_a                    12.980741
_cell_length_b                    13.277326
_cell_length_c                    27.724889
_cell_angle_alpha                 95.007603
_cell_angle_beta                  90.111513
_cell_angle_gamma                 119.338903
_cell_volume                      4144.0786119

loop_
_atom_site_label
_atom_site_type_symbol
_atom_type_description
_atom_site_fract_x
_atom_site_fract_y
_atom_site_fract_z
_atom_type_partial_charge
C1    C     C_R   0.627851 0.895182 0.427458 0.547221
C2    C     C_R   0.580979 0.255421 0.219795 -0.104790
C3    C     C_R   0.569568 0.239511 0.269101 -0.102876
C4    C     C_R   0.663304 0.311771 0.302786 0.035959
C5    C     C_R   0.686479 0.343359 0.203814 0.035457
C6    C     C_1   0.695035 0.366747 0.153765 -0.058251
C7    C     C_1   0.650105 0.292666 0.353315 -0.058590
C8    C     C_1   0.703490 0.394489 0.113049 -0.014341
C9    C     C_R   0.201013 0.756719 0.347456 -0.130281
C10   C     C_R   0.190051 0.751972 0.297610 0.008423
C11   C     C_R   0.177107 0.747272 0.197133 0.009851
C12   C     C_R   0.600909 0.221670 0.440463 0.545183
C13   C     C_R   0.191249 0.662462 0.218161 -0.131766
C14   C     C_R   0.195688 0.663690 0.268236 -0.133961
C15   C     C_R   0.161131 0.739592 0.147301 -0.130182
C16   C     C_R   0.127986 0.812725 0.126605 -0.006162
C17   C     C_R   0.197128 0.938722 0.356824 -0.137270
C18   C     C_R   0.178253 0.931197 0.306606 0.010895
C19   C     C_R   0.179447 0.839806 0.276901 0.060574
C20   C     C_R   0.163543 0.015685 0.285307 -0.134133
C21   C     C_R   0.149049 0.008901 0.234927 -0.133084
C22   C     C_R   0.152299 0.919343 0.205283 0.010372
C23   C     C_R   0.269491 0.876059 0.425451 0.546305
C24   C     C_R   0.170587 0.836150 0.226426 0.059764
C25   C     C_R   0.130372 0.906779 0.155149 -0.136430
C26   C     C_R   0.213543 0.853893 0.377008 -0.004393
C27   C     C_R   0.753692 0.935383 0.357905 -0.129255
C28   C     C_R   0.759618 0.925866 0.307988 0.012610
C29   C     C_R   0.762849 0.915360 0.207308 0.011957
C30   C     C_R   0.855021 0.008714 0.235707 -0.126930
C31   C     C_R   0.854339 0.013016 0.285897 -0.126074
C32   C     C_R   0.767217 0.907519 0.157409 -0.127126
C33   C     C_R   0.685745 0.805866 0.129033 -0.005652
C34   C     C_R   0.627594 0.898304 0.564645 0.546978
C35   C     C_R   0.561555 0.759665 0.352012 -0.133295
C36   C     C_R   0.568664 0.745895 0.301837 0.014386
C37   C     C_R   0.665894 0.831935 0.279661 0.062097
C38   C     C_R   0.477575 0.651554 0.273184 -0.126923
C39   C     C_R   0.482969 0.642542 0.222750 -0.126857
C40   C     C_R   0.578083 0.729250 0.200412 0.014672
C41   C     C_R   0.668619 0.825574 0.229107 0.062329
C42   C     C_R   0.587987 0.719083 0.150200 -0.135743
C43   C     C_R   0.651138 0.857910 0.379628 -0.005097
C44   C     C_R   0.741909 0.301185 0.651331 -0.139005
C45   C     C_R   0.603316 0.227701 0.578318 0.545395
C46   C     C_R   0.755831 0.324658 0.701797 0.006446
C47   C     C_R   0.770997 0.352757 0.803685 0.005701
C48   C     C_R   0.861330 0.347199 0.777944 -0.140416
C49   C     C_R   0.853030 0.331697 0.727271 -0.140329
C50   C     C_R   0.779285 0.371365 0.854329 -0.138482
C51   C     C_R   0.688862 0.379246 0.879159 -0.005830
C52   C     C_R   0.560967 0.313386 0.652334 -0.135207
C53   C     C_R   0.570238 0.330718 0.702472 0.001444
C54   C     C_R   0.666819 0.334308 0.727483 0.056814
C55   C     C_R   0.480021 0.336572 0.727938 -0.143540
C56   C     C_R   0.271815 0.879494 0.563437 0.546939
C57   C     C_R   0.483717 0.342872 0.778211 -0.142886
C58   C     C_R   0.579420 0.346856 0.803405 0.001158
C59   C     C_R   0.672482 0.344532 0.778205 0.056035
C60   C     C_R   0.585957 0.358876 0.853565 -0.133345
C61   C     C_R   0.640891 0.289119 0.626944 -0.006906
C62   C     C_1   0.222191 0.863048 0.610167 -0.012628
C63   C     C_R   0.076641 0.746779 0.718015 -0.103749
C64   C     C_R   0.061567 0.736695 0.767628 -0.103545
C65   C     C_R   0.233224 0.927600 0.786043 -0.104887
C66   C     C_R   0.248244 0.937729 0.736401 -0.104446
C67   C     C_1   0.632252 0.267346 0.394397 -0.014565
C68   C     C_R   0.170340 0.847131 0.702283 0.036059
C69   C     C_R   0.140426 0.826587 0.801752 0.036418
C70   C     C_1   0.123555 0.814253 0.852647 -0.058195
C71   C     C_1   0.193363 0.854166 0.651567 -0.057513
C72   C     C_1   0.100223 0.797117 0.894246 -0.014254
C73   C     C_1   0.647483 0.860946 0.609008 -0.014533
C74   C     C_R   0.691264 0.904329 0.735073 -0.104182
C75   C     C_R   0.701686 0.887519 0.783426 -0.102264
C76   C     C_R   0.680409 0.698383 0.758131 -0.106384
C77   C     C_R   0.669756 0.715198 0.709544 -0.105328
C78   C     C_R   0.769284 0.399114 0.286804 -0.106148
C79   C     C_R   0.675304 0.818456 0.698000 0.036785
C80   C     C_R   0.696073 0.784600 0.795133 0.036443
C81   C     C_1   0.709863 0.770155 0.845126 -0.058566
C82   C     C_1   0.661248 0.837358 0.648665 -0.057820
C83   C     C_1   0.724869 0.761814 0.887179 -0.011389
C84   C     C_R   0.065534 0.773236 0.079020 0.549722
C85   C     C_R   0.717033 0.441487 0.067310 0.548925
C86   C     C_R   0.720610 0.782866 0.081064 0.558254
C87   C     C_R   0.056477 0.766202 0.941222 0.538379
C88   C     C_R   0.710265 0.434230 0.928914 0.536823
C89   C     C_R   0.780705 0.415050 0.237430 -0.104331
C90   C     C_R   0.748463 0.754403 0.936896 0.563372
Cr1   Cr    Cr6+3 0.416430 0.829200 0.492370 1.021427
Cr2   Cr    Cr6+3 0.674630 0.087020 0.504170 1.021187
Cr3   Cr    Cr6+3 0.408920 0.083740 0.503490 1.021272
Cr4   Cr    Cr6+3 0.914010 0.832750 0.013970 1.016995
Cr5   Cr    Cr6+3 0.922310 0.578600 0.003000 1.017081
Cr6   Cr    Cr6+3 0.656280 0.574630 0.003870 1.021123
H1    H     H_    0.842564 0.455054 0.312420 0.112075
H2    H     H_    0.134963 0.073317 0.219173 0.101565
H3    H     H_    0.162339 0.086300 0.307583 0.104687
H4    H     H_    0.205684 0.013284 0.379644 0.123272
H5    H     H_    0.841782 0.976249 0.141289 0.132366
H6    H     H_    0.824066 0.010233 0.379204 0.132221
H7    H     H_    0.928509 0.077294 0.219102 0.099701
H8    H     H_    0.926371 0.085757 0.307402 0.102849
H9    H     H_    0.524251 0.641111 0.128247 0.124233
H10   H     H_    0.412751 0.568187 0.201253 0.103584
H11   H     H_    0.402343 0.584925 0.289767 0.099866
H12   H     H_    0.862308 0.484234 0.225558 0.119387
H13   H     H_    0.482805 0.698792 0.368901 0.122575
H14   H     H_    0.858584 0.386372 0.874028 0.128954
H15   H     H_    0.804850 0.284315 0.631642 0.127690
H16   H     H_    0.937713 0.353819 0.796983 0.113723
H17   H     H_    0.922167 0.324652 0.708037 0.113064
H18   H     H_    0.514883 0.363221 0.872414 0.137983
H19   H     H_    0.412566 0.346088 0.797406 0.113816
H20   H     H_    0.484155 0.306856 0.633615 0.135705
H21   H     H_    0.016581 0.675775 0.692045 0.113569
H22   H     H_    0.507102 0.200323 0.194298 0.114465
H23   H     H_    0.989041 0.658370 0.779396 0.117489
H24   H     H_    0.294298 0.997836 0.812049 0.114363
H25   H     H_    0.321720 0.015344 0.724628 0.119963
H26   H     H_    0.695223 0.984282 0.726583 0.117303
H27   H     H_    0.714341 0.954902 0.811686 0.116417
H28   H     H_    0.676573 0.618627 0.766812 0.121600
H29   H     H_    0.656927 0.647979 0.681186 0.113346
H30   H     H_    0.487378 0.171195 0.281001 0.120335
H31   H     H_    0.161999 0.668408 0.125248 0.132973
H32   H     H_    0.211573 0.689612 0.362703 0.131317
H33   H     H_    0.195641 0.593513 0.195900 0.104237
H34   H     H_    0.106414 0.964501 0.139064 0.123793
O1    O     O_R   0.296680 0.802170 0.437540 -0.524697
O2    O     O_R   0.662610 0.183990 0.557860 -0.502140
O3    O     O_R   0.500730 0.201280 0.562180 -0.519930
O4    O     O_R   0.312500 0.978850 0.548170 -0.494666
O5    O     O_3   0.499990 0.999990 0.500010 -0.242237
O6    O     O_R   0.820790 0.857990 0.068830 -0.519772
O7    O     O_R   0.016700 0.827330 0.062850 -0.501939
O8    O     O_R   0.041970 0.673520 0.060040 -0.516996
O9    O     O_R   0.817980 0.483660 0.048840 -0.491312
O10   O     O_R   0.637200 0.461990 0.052510 -0.508826
O11   O     O_R   0.664790 0.681920 0.057970 -0.494475
O12   O     O_R   0.525380 0.838530 0.443500 -0.503564
O13   O     O_R   0.815840 0.852920 0.961840 -0.503903
O14   O     O_R   0.012100 0.822630 0.963670 -0.511526
O15   O     O_R   0.037010 0.668460 0.953040 -0.508099
O16   O     O_R   0.813390 0.478970 0.949660 -0.503604
O17   O     O_R   0.632250 0.456930 0.945520 -0.527873
O18   O     O_R   0.660200 0.677230 0.958780 -0.491890
O19   O     O_3   0.830870 0.661990 0.006950 -0.264666
O20   O     O_R   0.702130 0.995190 0.446810 -0.519659
O21   O     O_R   0.661770 0.181390 0.458760 -0.494443
O22   O     O_R   0.499820 0.198480 0.455280 -0.510369
O23   O     O_R   0.311660 0.976250 0.449080 -0.500139
O24   O     O_R   0.297580 0.804960 0.544440 -0.507014
O25   O     O_R   0.526220 0.841130 0.542590 -0.494198
O26   O     O_R   0.703030 0.997990 0.553710 -0.510579
H35   H     H_    0.405145 0.333153 0.708943 0.113336
H36   H     H_    0.205183 0.596626 0.284005 0.099602

loop_
_geom_bond_atom_site_label_1
_geom_bond_atom_site_label_2
_ccdc_geom_bond_type
C39   H10   S    
C66   C68   A    
C17   C26   A    
C16   C25   A    
C12   O22   A    
C60   H18   S    
C35   C36   A    
Cr5   O15   S    
C42   H9    S    
C16   C84   S    
C2    H22   S    
C3    H30   S    
C57   H19   S    
C34   O25   A    
Cr4   O19   S    
C4    C78   A    
C5    C6    S    
C46   C49   A    
C64   H23   S    
C14   H36   S    
C75   H27   S    
C33   C42   A    
C36   C37   A    
Cr2   O2    S    
C8    C85   S    
C29   C32   A    
Cr3   O3    S    
C52   C61   A    
C38   C39   A    
C63   H21   S    
Cr1   O1    S    
C58   C60   A    
C15   C16   A    
C65   H24   S    
C11   C24   A    
C50   H14   S    
C18   C19   A    
C23   C26   S    
C45   C61   S    
C38   H11   S    
Cr6   O17   S    
C23   O23   A    
C90   O18   A    
C1    O12   A    
Cr6   O11   S    
C11   C15   A    
C1    C43   S    
C22   C25   A    
C30   H7    S    
Cr4   O6    S    
C49   H17   S    
Cr5   O19   S    
C87   O14   A    
C35   C43   A    
C75   C80   A    
C85   O9    A    
C18   C20   A    
C90   O13   A    
C35   H13   S    
Cr1   O12   S    
C40   C42   A    
C84   O8    A    
C15   H31   S    
C21   C22   A    
C12   O21   A    
Cr5   O16   S    
Cr2   O21   S    
C4    C7    S    
C25   H34   S    
C81   C83   T    
C44   C46   A    
C9    C26   A    
C50   C51   A    
C47   C50   A    
C54   C59   A    
C53   C55   A    
C78   C89   A    
Cr6   O18   S    
C12   C67   S    
C66   H25   S    
C9    H32   S    
C74   C75   A    
C76   H28   S    
C76   C77   A    
Cr1   O24   S    
C56   O24   A    
Cr3   O4    S    
C10   C14   A    
C39   C40   A    
C6    C8    T    
C58   C59   A    
C53   C54   A    
C47   C59   A    
C33   C86   S    
Cr1   O25   S    
C29   C30   A    
C47   C48   A    
C74   H26   S    
C10   C19   A    
C46   C54   A    
C78   H1    S    
C17   C18   A    
C77   C79   A    
C23   O1    A    
C1    O20   A    
Cr2   O26   S    
C64   C69   A    
C85   O10   A    
C86   O6    A    
C48   C49   A    
C48   H16   S    
C84   O7    A    
C74   C79   A    
C55   C57   A    
Cr2   O20   S    
C22   C24   A    
Cr2   O5    S    
Cr4   O13   S    
C3    C4    A    
C73   C82   T    
C72   C87   S    
C77   H29   S    
C52   C53   A    
C9    C10   A    
C52   H20   S    
C83   C90   S    
C63   C68   A    
C40   C41   A    
Cr5   O8    S    
C88   O16   A    
C87   O15   A    
C29   C41   A    
Cr5   O9    S    
C28   C31   A    
C76   C80   A    
C80   C81   S    
Cr3   O5    S    
C51   C88   S    
Cr6   O10   S    
C79   C82   S    
C56   O4    A    
C34   O26   A    
C44   C61   A    
C27   H6    S    
C45   O3    A    
Cr4   O14   S    
C32   C33   A    
Cr3   O23   S    
C19   C24   A    
C31   H8    S    
C21   H2    S    
C11   C13   A    
C57   C58   A    
C30   C31   A    
C20   H3    S    
C28   C37   A    
C68   C71   S    
C65   C69   A    
Cr6   O19   S    
C89   H12   S    
C36   C38   A    
C88   O17   A    
C62   C71   T    
C2    C3    A    
C56   C62   S    
C37   C41   A    
C69   C70   S    
C17   H4    S    
C34   C73   S    
C7    C67   T    
C63   C64   A    
C2    C5    A    
C44   H15   S    
C27   C43   A    
C55   H35   S    
Cr1   O5    S    
C20   C21   A    
C45   O2    A    
C65   C66   A    
C27   C28   A    
Cr4   O7    S    
C13   H33   S    
C32   H5    S    
Cr3   O22   S    
C70   C72   T    
C51   C60   A    
C13   C14   A    
C5    C89   A    
C86   O11   A    
