data_mof_unit_42725.cif
_audit_creation_date              2012-12-10T20:27:55-0500
_audit_creation_method            fapswitch 2.2
_symmetry_space_group_name_H-M    P1
_symmetry_Int_Tables_number       1
_space_group_crystal_system       triclinic
_cell_length_a                    12.870368
_cell_length_b                    10.682476
_cell_length_c                    9.860404
_cell_angle_alpha                 89.913324
_cell_angle_beta                  97.183273
_cell_angle_gamma                 90.139573
_cell_volume                      1345.03588906

loop_
_atom_site_label
_atom_site_type_symbol
_atom_type_description
_atom_site_fract_x
_atom_site_fract_y
_atom_site_fract_z
_atom_type_partial_charge
C1    C     C_R   0.502831 0.259988 0.500610 0.881460
C2    C     C_R   0.028765 0.522487 0.561266 0.187962
C3    C     C_R   0.971183 0.479185 0.438833 0.186396
C4    C     C_R   0.864167 0.468237 0.431075 -0.283767
C5    C     C_R   0.870774 0.541888 0.665646 -0.205938
C6    C     C_R   0.978603 0.552671 0.674650 -0.225177
C7    C     C_R   0.513510 0.063676 0.625652 0.102353
C8    C     C_R   0.518324 0.128616 0.504164 -0.091303
C9    C     C_R   0.542003 0.065027 0.387514 -0.228399
C10   C     C_R   0.541927 0.935527 0.387361 -0.232636
C11   C     C_R   0.517908 0.871425 0.503729 -0.100958
C12   C     C_R   0.298156 0.500627 0.473224 0.892182
C13   C     C_R   0.512724 0.936010 0.625225 0.098653
C14   C     C_3   0.435098 0.929637 0.726697 -0.088830
C15   C     C_3   0.436242 0.072205 0.726765 -0.542200
C16   C     C_R   0.450208 0.406940 0.063368 0.217086
C17   C     C_R   0.556820 0.585356 0.081135 -0.133266
C18   C     C_R   0.556810 0.585385 0.937113 -0.139917
C19   C     C_R   0.450147 0.406942 0.920734 0.219317
C20   C     C_3   0.336137 0.376809 0.896965 -0.505598
C21   C     C_3   0.336372 0.376886 0.050812 -0.525598
C22   C     C_R   0.502880 0.739975 0.500403 0.902200
C23   C     C_R   0.701840 0.499627 0.526822 0.875763
C24   C     C_R   0.813983 0.501451 0.543088 -0.046762
C25   C     C_R   0.185990 0.499368 0.457084 -0.051421
C26   C     C_R   0.021329 0.448136 0.325775 -0.222336
C27   C     C_R   0.129142 0.457903 0.335080 -0.210802
C28   C     C_R   0.135786 0.533927 0.568680 -0.283169
H1    H     H_    0.819883 0.435184 0.336982 0.159122
H2    H     H_    0.467744 0.886366 0.825543 0.163635
H3    H     H_    0.361303 0.116483 0.683003 0.197070
H4    H     H_    0.471990 0.112370 0.825704 0.192936
H5    H     H_    0.601065 0.655753 0.142603 0.143533
H6    H     H_    0.601017 0.655810 0.889831 0.139966
H7    H     H_    0.288729 0.453888 0.845265 0.218151
H8    H     H_    0.320709 0.282933 0.850475 0.197239
H9    H     H_    0.289600 0.454500 0.086986 0.214595
H10   H     H_    0.321347 0.283061 0.093299 0.200088
H11   H     H_    0.831791 0.567953 0.752618 0.157780
H12   H     H_    0.977534 0.414999 0.231555 0.139454
H13   H     H_    0.022438 0.585311 0.769062 0.138259
H14   H     H_    0.167944 0.430096 0.248786 0.153883
H15   H     H_    0.180030 0.568291 0.662115 0.153917
H16   H     H_    0.553825 0.114297 0.294530 0.168432
H17   H     H_    0.553878 0.886656 0.294382 0.165420
N1    N     N_R   0.499290 0.499140 0.142710 -0.106687
N2    N     N_R   0.499290 0.499180 0.857070 -0.104959
O1    O     O_R   0.500010 0.316790 0.614690 -0.613135
O2    O     O_R   0.500000 0.316760 0.385350 -0.626488
O3    O     O_R   0.346360 0.499990 0.595720 -0.619854
O4    O     O_R   0.346350 0.499960 0.366370 -0.623123
O5    O     O_R   0.500000 0.683240 0.614650 -0.609846
O6    O     O_R   0.499990 0.683210 0.385310 -0.629162
O7    O     O_R   0.653650 0.500040 0.633630 -0.628005
O8    O     O_R   0.653640 0.500010 0.404280 -0.626138
Zn1   Zn    Zn3+2 0.500010 0.500020 0.653130 0.948327
Zn2   Zn    Zn3+2 0.499990 0.499980 0.346870 0.939357
N3    N     N_3   0.334231 0.875714 0.669513 -0.432999
H18   H     H_    0.280690 0.892564 0.738806 0.188493
H19   H     H_    0.305948 0.920968 0.578107 0.195447

loop_
_geom_bond_atom_site_label_1
_geom_bond_atom_site_label_2
_ccdc_geom_bond_type
C12   O3    A    
C23   C24   S    
C1    O1    A    
C23   O8    A    
C16   C21   S    
O4    Zn2   S    
C25   C27   A    
C1    C8    S    
C11   C13   A    
C9    C10   A    
C11   C22   S    
C4    H1    S    
C12   C25   S    
C18   N2    A    
C10   H17   S    
C7    C15   S    
C17   C18   A    
C21   H9    S    
C7    C8    A    
C13   C14   S    
C17   N1    A    
C25   C28   A    
C15   H3    S    
C18   H6    S    
C27   H14   S    
C26   H12   S    
C26   C27   A    
C2    C6    A    
C5    C24   A    
C17   H5    S    
C14   H2    S    
C16   C19   A    
C4    C24   A    
C2    C3    A    
C22   O6    A    
O7    Zn1   S    
O8    Zn2   S    
N1    Zn2   S    
C5    C6    A    
C14   N3    S    
C19   N2    A    
C10   C11   A    
N3    H19   S    
C3    C4    A    
C20   H8    S    
O5    Zn1   S    
C7    C13   A    
C12   O4    A    
O2    Zn2   S    
C20   C21   S    
C23   O7    A    
C22   O5    A    
C16   N1    A    
O1    Zn1   S    
C5    H11   S    
O6    Zn2   S    
C14   C15   S    
N2    Zn1   S    
C9    H16   S    
C2    C28   A    
C28   H15   S    
N3    H18   S    
C20   H7    S    
C1    O2    A    
C3    C26   A    
O3    Zn1   S    
C21   H10   S    
C19   C20   S    
C8    C9    A    
C6    H13   S    
C15   H4    S    
