data_mof_unit_43641.cif
_audit_creation_date              2012-12-10T19:07:38-0500
_audit_creation_method            fapswitch 2.2
_symmetry_space_group_name_H-M    P1
_symmetry_Int_Tables_number       1
_space_group_crystal_system       triclinic
_cell_length_a                    10.841
_cell_length_b                    10.917341
_cell_length_c                    9.553411
_cell_angle_alpha                 91.497242
_cell_angle_beta                  90.808315
_cell_angle_gamma                 90.671355
_cell_volume                      1130.11181117

loop_
_atom_site_label
_atom_site_type_symbol
_atom_type_description
_atom_site_fract_x
_atom_site_fract_y
_atom_site_fract_z
_atom_type_partial_charge
C1    C     C_R   0.496348 0.262728 0.497792 0.801794
C2    C     C_R   0.939513 0.518061 0.622172 0.026982
C3    C     C_3   0.936672 0.626038 0.722327 -0.209117
C4    C     C_3   0.078069 0.625819 0.719379 -0.061068
C5    C     C_R   0.502434 0.067025 0.615853 0.112203
C6    C     C_R   0.488205 0.129939 0.492918 -0.153353
C7    C     C_R   0.465814 0.058209 0.368202 -0.036603
C8    C     C_R   0.466136 0.929511 0.373557 -0.256111
C9    C     C_R   0.489156 0.869871 0.500618 -0.105072
C10   C     C_R   0.503188 0.943716 0.620327 0.138893
C11   C     C_3   0.536366 0.946371 0.772371 -0.483539
C12   C     C_R   0.262469 0.496375 0.498932 0.811899
C13   C     C_3   0.535448 0.086500 0.766086 -0.411669
C14   C     C_R   0.597065 0.549618 0.077104 0.260510
C15   C     C_R   0.410255 0.440779 0.071045 -0.047982
C16   C     C_R   0.410394 0.440386 0.922325 -0.078853
C17   C     C_R   0.596646 0.550272 0.929420 0.255949
C18   C     C_3   0.634021 0.681580 0.931605 -0.526060
C19   C     C_3   0.639532 0.679379 0.089446 -0.487907
C20   C     C_R   0.497746 0.737380 0.501266 0.814668
C21   C     C_R   0.737490 0.498388 0.500696 0.824357
C22   C     C_R   0.066196 0.517314 0.619843 -0.006396
C23   C     C_R   0.129146 0.485886 0.498097 -0.087700
C24   C     C_R   0.060648 0.439425 0.380793 0.149473
C25   C     C_R   0.931306 0.441234 0.383479 -0.259422
C26   C     C_R   0.870279 0.487773 0.501905 -0.108023
Cu1   Cu    Cu3+1 0.499990 0.499980 0.640670 0.941530
Cu2   Cu    Cu3+1 0.500010 0.500020 0.359330 0.960856
H1    H     H_    0.630375 0.910769 0.792312 0.217803
H2    H     H_    0.459688 0.129795 0.826120 0.217024
H3    H     H_    0.628216 0.129634 0.781497 0.204325
H4    H     H_    0.336721 0.394252 0.123991 0.175057
H5    H     H_    0.336814 0.393472 0.864259 0.143965
H6    H     H_    0.724485 0.698932 0.883938 0.195822
H7    H     H_    0.557222 0.736963 0.892640 0.218372
H8    H     H_    0.734868 0.687914 0.133290 0.198640
H9    H     H_    0.571189 0.740966 0.138877 0.219607
H10   H     H_    0.879293 0.409503 0.291554 0.161728
H11   H     H_    0.900073 0.600730 0.825681 0.112824
H12   H     H_    0.121279 0.602666 0.821530 0.151837
H13   H     H_    0.449270 0.876478 0.277629 0.160521
H14   H     H_    0.460733 0.909877 0.837291 0.198929
N1    N     N_R   0.500790 0.500930 0.147930 -0.192774
N2    N     N_R   0.500790 0.500890 0.852020 -0.190216
O1    O     O_R   0.500000 0.319640 0.618810 -0.582318
O2    O     O_R   0.500010 0.319680 0.381230 -0.573283
O3    O     O_R   0.319650 0.499970 0.618810 -0.602903
O4    O     O_R   0.319660 0.500010 0.381230 -0.557822
O5    O     O_R   0.499990 0.680320 0.618770 -0.584586
O6    O     O_R   0.500000 0.680360 0.381190 -0.591328
O7    O     O_R   0.680340 0.499990 0.618770 -0.580318
O8    O     O_R   0.680350 0.500030 0.381190 -0.586124
N3    N     N_3   0.120925 0.392876 0.258454 -0.589406
H15   H     H_    0.091614 0.302179 0.240467 0.217707
H16   H     H_    0.091944 0.443863 0.173129 0.208293
C27   C     C_1   0.877167 0.734224 0.662261 0.301935
N4    N     N_1   0.830368 0.818796 0.615073 -0.310883
N5    N     N_3   0.133910 0.734797 0.657564 -0.560903
H17   H     H_    0.229761 0.726525 0.663640 0.228959
H18   H     H_    0.109902 0.739251 0.551321 0.230218
C28   C     C_1   0.442450 0.110934 0.233520 0.285667
N6    N     N_1   0.423682 0.152014 0.124977 -0.326611

loop_
_geom_bond_atom_site_label_1
_geom_bond_atom_site_label_2
_ccdc_geom_bond_type
C2    C22   A    
Cu1   O5    S    
C23   C24   A    
C24   C25   A    
C6    C7    A    
C19   H9    S    
C25   H10   S    
C4    C22   S    
C3    C27   S    
C16   N2    A    
C9    C20   S    
C5    C13   S    
C14   C17   A    
C21   O7    A    
C12   O4    A    
Cu2   O2    S    
Cu1   O1    S    
N3    H16   S    
C17   C18   S    
C24   N3    S    
C17   N2    A    
C3    H11   S    
C5    C10   A    
C2    C26   A    
N3    H15   S    
C8    H13   S    
C8    C9    A    
Cu2   O8    S    
C12   C23   S    
C1    O1    A    
C20   O5    A    
C12   O3    A    
C5    C6    A    
C14   C19   S    
C9    C10   A    
C21   C26   S    
Cu1   O7    S    
C2    C3    S    
N5    H18   S    
C19   H8    S    
C18   H6    S    
C28   N6    T    
C16   H5    S    
C1    O2    A    
N5    H17   S    
C7    C8    A    
C10   C11   S    
C15   N1    A    
C1    C6    S    
C4    H12   S    
C13   H2    S    
C11   C13   S    
C27   N4    T    
C11   H1    S    
C11   H14   S    
C18   C19   S    
C18   H7    S    
Cu1   O3    S    
Cu1   Cu2   S    
C22   C23   A    
Cu2   O4    S    
C20   O6    A    
Cu2   N1    S    
C4    N5    S    
C25   C26   A    
Cu2   O6    S    
Cu1   N2    S    
C13   H3    S    
C21   O8    A    
C7    C28   S    
C3    C4    S    
C15   C16   A    
C14   N1    A    
C15   H4    S    
