data_mof_unit_27028.cif
_audit_creation_date              2012-12-11T15:56:56-0500
_audit_creation_method            fapswitch 2.2
_symmetry_space_group_name_H-M    P1
_symmetry_Int_Tables_number       1
_space_group_crystal_system       triclinic
_cell_length_a                    17.422073
_cell_length_b                    24.375561
_cell_length_c                    14.972847
_cell_angle_alpha                 90.087539
_cell_angle_beta                  126.029738
_cell_angle_gamma                 90.135651
_cell_volume                      5142.19535497

loop_
_atom_site_label
_atom_site_type_symbol
_atom_type_description
_atom_site_fract_x
_atom_site_fract_y
_atom_site_fract_z
_atom_type_partial_charge
C1    C     C_R   0.308129 0.123061 0.907511 0.015150
C2    C     C_R   0.308081 0.876597 0.908056 0.001785
C3    C     C_R   0.808130 0.623062 0.907510 0.015145
C4    C     C_R   0.808081 0.376597 0.908056 0.001747
C5    C     C_R   0.645373 0.153015 0.092436 -0.246667
C6    C     C_R   0.646186 0.847181 0.090985 -0.242776
C7    C     C_R   0.145373 0.653016 0.092436 -0.246654
C8    C     C_R   0.146188 0.347182 0.090986 -0.242775
C9    C     C_R   0.553865 0.847194 0.908093 0.665463
C10   C     C_R   0.552959 0.153640 0.909932 0.653227
C11   C     C_R   0.053866 0.347194 0.908093 0.665408
C12   C     C_R   0.052958 0.653640 0.909932 0.653239
C13   C     C_R   0.552203 0.000947 0.728718 0.094645
C14   C     C_R   0.052189 0.500946 0.728706 0.094721
C15   C     C_R   0.825667 0.000647 0.280286 0.040562
C16   C     C_R   0.325668 0.500648 0.280293 0.040571
C17   C     C_R   0.611272 0.186065 0.001564 -0.004605
C18   C     C_R   0.612619 0.814763 0.998816 -0.003822
C19   C     C_R   0.111271 0.686065 0.001564 -0.004587
C20   C     C_R   0.112622 0.314764 0.998816 -0.003818
C21   C     C_3   0.049090 0.947038 0.456926 -0.206660
C22   C     C_3   0.030468 0.018628 0.532039 -0.200615
C23   C     C_3   0.549096 0.447039 0.456917 -0.206649
C24   C     C_3   0.530472 0.518620 0.532049 -0.200640
C25   C     C_3   0.971793 0.968362 0.466571 0.091058
C26   C     C_3   0.471799 0.468355 0.466571 0.091050
C27   C     C_3   0.928018 0.000543 0.359623 0.113825
C28   C     C_3   0.428019 0.500543 0.359630 0.113810
C29   C     C_3   0.005019 0.979876 0.348347 -0.149097
C30   C     C_3   0.987605 0.051343 0.424745 -0.179581
C31   C     C_3   0.505019 0.479884 0.348345 -0.149060
C32   C     C_3   0.487603 0.551342 0.424761 -0.179602
C33   C     C_3   0.066893 0.030774 0.415815 -0.092543
C34   C     C_3   0.566890 0.530781 0.415822 -0.092494
C35   C     C_R   0.402296 0.876865 0.093261 -0.155512
C36   C     C_R   0.401439 0.123005 0.092607 -0.146390
C37   C     C_R   0.902295 0.376865 0.093261 -0.155518
C38   C     C_R   0.901440 0.623007 0.092607 -0.146389
C39   C     C_3   0.108372 0.997856 0.522161 0.160621
C40   C     C_3   0.608374 0.497857 0.522161 0.160603
C41   C     C_3   0.266222 0.816961 0.114860 -0.383618
C42   C     C_3   0.249982 0.178066 0.101843 -0.398259
C43   C     C_3   0.766229 0.316958 0.114865 -0.383639
C44   C     C_3   0.749983 0.678066 0.101843 -0.398253
C45   C     C_3   0.710269 0.267501 0.114382 0.637927
C46   C     C_3   0.704542 0.731295 0.107219 0.626850
C47   C     C_3   0.210276 0.767498 0.114385 0.637897
C48   C     C_3   0.204545 0.231296 0.107220 0.626838
C49   C     C_3   0.791930 0.262659 0.986907 0.735430
C50   C     C_3   0.802466 0.737598 0.003680 0.742646
C51   C     C_3   0.291937 0.762658 0.986919 0.735424
C52   C     C_3   0.302465 0.237596 0.003678 0.742658
C53   C     C_3   0.148738 0.825375 0.907514 -0.474891
C54   C     C_3   0.151277 0.180272 0.893116 -0.506414
C55   C     C_3   0.648736 0.325379 0.907523 -0.474860
C56   C     C_3   0.651278 0.680273 0.893115 -0.506405
C57   C     C_3   0.255967 0.818436 0.003326 0.049703
C58   C     C_3   0.255107 0.181646 0.000708 0.040730
C59   C     C_3   0.755967 0.318437 0.003327 0.049720
C60   C     C_3   0.755108 0.681647 0.000709 0.040736
C61   C     C_3   0.659330 0.236098 0.002271 0.051327
C62   C     C_3   0.659715 0.764726 0.998441 0.041816
C63   C     C_3   0.159330 0.736098 0.002270 0.051311
C64   C     C_3   0.159716 0.264726 0.998441 0.041843
C65   C     C_3   0.735664 0.214907 0.988591 -0.697092
C66   C     C_3   0.740715 0.785571 0.992591 -0.686972
C67   C     C_3   0.235656 0.714907 0.988578 -0.697062
C68   C     C_3   0.240716 0.285570 0.992589 -0.687025
C69   C     C_3   0.591702 0.275924 0.904563 -0.147259
C70   C     C_3   0.592914 0.726944 0.895636 -0.144690
C71   C     C_3   0.091700 0.775926 0.904567 -0.147308
C72   C     C_3   0.092915 0.226944 0.895637 -0.144660
C73   C     C_3   0.637780 0.959347 0.657007 0.565175
C74   C     C_3   0.463396 0.985299 0.531442 0.557261
C75   C     C_3   0.137863 0.459408 0.657068 0.565230
C76   C     C_3   0.963414 0.485218 0.531452 0.557256
C77   C     C_R   0.550452 0.045940 0.304866 -0.151158
C78   C     C_R   0.549532 0.954777 0.305283 -0.155877
C79   C     C_R   0.050447 0.545942 0.304860 -0.151183
C80   C     C_R   0.049530 0.454779 0.305283 -0.155892
C81   C     C_3   0.645186 0.961109 0.558239 -0.320723
C82   C     C_3   0.468491 0.980863 0.432940 -0.319756
C83   C     C_3   0.145217 0.461145 0.558260 -0.320767
C84   C     C_3   0.968495 0.480832 0.432935 -0.319727
C85   C     C_3   0.590717 0.059141 0.621606 -0.329533
C86   C     C_3   0.090550 0.559164 0.621487 -0.329576
C87   C     C_3   0.562371 0.001335 0.637765 -0.045379
C88   C     C_3   0.062352 0.501335 0.637748 -0.045432
C89   C     C_3   0.567978 0.000947 0.467721 0.109929
C90   C     C_3   0.067963 0.500953 0.467711 0.109924
C91   C     C_3   0.587912 0.059718 0.517888 -0.414219
C92   C     C_3   0.087829 0.559731 0.517829 -0.414220
C93   C     C_R   0.247068 0.953494 0.692002 -0.016931
C94   C     C_R   0.245990 0.044627 0.690596 -0.021314
C95   C     C_R   0.747069 0.453494 0.692002 -0.016964
C96   C     C_R   0.745992 0.544627 0.690595 -0.021311
C97   C     C_R   0.311968 0.136753 0.000218 0.041910
C98   C     C_R   0.312755 0.862996 0.001419 0.030030
C99   C     C_R   0.811970 0.636755 0.000218 0.041913
C100  C     C_R   0.812754 0.362997 0.001419 0.030015
C101  C     C_R   0.565199 0.000635 0.367560 0.087375
C102  C     C_R   0.065185 0.500639 0.367551 0.087380
C103  C     C_R   0.202287 0.998503 0.626586 -0.006002
C104  C     C_R   0.702291 0.498503 0.626584 -0.005883
C105  C     C_R   0.522738 0.046394 0.756391 -0.011021
C106  C     C_R   0.522973 0.954581 0.755285 -0.145895
C107  C     C_R   0.022739 0.546394 0.756394 -0.011100
C108  C     C_R   0.022972 0.454581 0.755285 -0.145770
C109  C     C_R   0.769883 0.954158 0.250596 -0.115416
C110  C     C_R   0.770107 0.046637 0.253389 -0.115074
C111  C     C_R   0.269883 0.454158 0.250600 -0.115429
C112  C     C_R   0.270107 0.546637 0.253394 -0.115062
H1    H     H_    0.250682 0.129992 0.822359 0.100317
H2    H     H_    0.250213 0.869001 0.823076 0.121378
H3    H     H_    0.750683 0.629994 0.822359 0.100321
H4    H     H_    0.750213 0.369001 0.823076 0.121388
H5    H     H_    0.071349 0.903613 0.466833 0.136707
H6    H     H_    0.041239 0.034295 0.608430 0.123775
H7    H     H_    0.571358 0.403615 0.466813 0.136712
H8    H     H_    0.541244 0.534280 0.608445 0.123788
H9    H     H_    0.992093 0.964233 0.270897 0.144904
H10   H     H_    0.962299 0.094326 0.411530 0.123862
H11   H     H_    0.492091 0.464248 0.270890 0.144909
H12   H     H_    0.462294 0.594324 0.411558 0.123869
H13   H     H_    0.108763 0.056171 0.397140 0.146322
H14   H     H_    0.608756 0.556185 0.397149 0.146321
H15   H     H_    0.341623 0.810410 0.184967 0.072045
H16   H     H_    0.321997 0.175131 0.180640 0.093034
H17   H     H_    0.841631 0.310397 0.184963 0.072036
H18   H     H_    0.821998 0.675132 0.180640 0.093008
H19   H     H_    0.762969 0.240130 0.182854 -0.000622
H20   H     H_    0.762318 0.756028 0.177916 0.007654
H21   H     H_    0.262987 0.740126 0.182848 -0.000621
H22   H     H_    0.262322 0.256029 0.177915 0.007668
H23   H     H_    0.783097 0.185298 0.056067 0.155859
H24   H     H_    0.783929 0.817512 0.057210 0.166150
H25   H     H_    0.283081 0.685288 0.056035 0.155876
H26   H     H_    0.283930 0.317512 0.057206 0.166150
H27   H     H_    0.137316 0.827526 0.826386 0.198885
H28   H     H_    0.150983 0.186692 0.819445 0.207013
H29   H     H_    0.637308 0.327542 0.826392 0.198870
H30   H     H_    0.650984 0.686694 0.819446 0.207016
H31   H     H_    0.432537 0.869815 0.178958 0.105628
H32   H     H_    0.430950 0.130393 0.178155 0.103773
H33   H     H_    0.932537 0.369816 0.178959 0.105630
H34   H     H_    0.930951 0.630395 0.178155 0.103762
H35   H     H_    0.122350 0.864990 0.916802 0.170787
H36   H     H_    0.118022 0.139320 0.881406 0.164052
H37   H     H_    0.622351 0.364990 0.916833 0.170794
H38   H     H_    0.618023 0.639321 0.881404 0.164059
H39   H     H_    0.561651 0.254693 0.824781 0.205648
H40   H     H_    0.562734 0.750190 0.818283 0.199950
H41   H     H_    0.061631 0.754696 0.824781 0.205641
H42   H     H_    0.062733 0.250189 0.818283 0.199945
H43   H     H_    0.701491 0.191132 0.910178 0.246436
H44   H     H_    0.709718 0.806532 0.912103 0.250422
H45   H     H_    0.201473 0.691143 0.910151 0.246452
H46   H     H_    0.209718 0.306530 0.912099 0.250388
H47   H     H_    0.615645 0.917244 0.661717 0.000201
H48   H     H_    0.440582 0.944539 0.541768 0.016293
H49   H     H_    0.115858 0.417291 0.661915 0.000207
H50   H     H_    0.940739 0.444421 0.541828 0.016265
H51   H     H_    0.631737 0.918927 0.523513 0.086670
H52   H     H_    0.459997 0.936793 0.408783 0.071798
H53   H     H_    0.131783 0.418953 0.523577 0.086616
H54   H     H_    0.960020 0.436769 0.408737 0.071847
H55   H     H_    0.662800 0.070643 0.695099 0.205095
H56   H     H_    0.540649 0.091311 0.609991 0.202159
H57   H     H_    0.162575 0.570749 0.694993 0.205118
H58   H     H_    0.040348 0.591279 0.609739 0.202192
H59   H     H_    0.565201 0.088366 0.330959 0.099663
H60   H     H_    0.562250 0.912604 0.332492 0.099658
H61   H     H_    0.065203 0.588368 0.330952 0.099668
H62   H     H_    0.062251 0.412606 0.332499 0.099662
H63   H     H_    0.656183 0.076117 0.538275 0.171980
H64   H     H_    0.530923 0.088319 0.457365 0.180726
H65   H     H_    0.156111 0.576140 0.538268 0.172065
H66   H     H_    0.030842 0.588321 0.457261 0.180584
H67   H     H_    0.531759 0.089101 0.746526 0.141564
H68   H     H_    0.529853 0.912348 0.739369 0.150306
H69   H     H_    0.031775 0.589101 0.746541 0.141488
H70   H     H_    0.029855 0.412347 0.739369 0.150224
H71   H     H_    0.792671 0.911902 0.264154 0.106241
H72   H     H_    0.792407 0.089079 0.268863 0.096972
H73   H     H_    0.292672 0.411902 0.264159 0.106245
H74   H     H_    0.292407 0.589079 0.268868 0.096971
H75   H     H_    0.687042 0.165505 0.178067 0.153066
H76   H     H_    0.688909 0.834258 0.176246 0.157904
H77   H     H_    0.187043 0.665505 0.178066 0.153083
H78   H     H_    0.188910 0.334259 0.176246 0.157910
N1    N     N_R   0.392450 0.103580 0.942190 -0.049709
N2    N     N_R   0.392450 0.896420 0.942190 -0.051767
N3    N     N_R   0.892450 0.603580 0.942190 -0.049711
N4    N     N_R   0.892450 0.396420 0.942190 -0.051768
N5    N     N_R   0.450490 0.896000 0.057360 -0.041120
N6    N     N_R   0.450490 0.104000 0.057360 -0.040807
N7    N     N_R   0.950490 0.396000 0.057360 -0.041118
N8    N     N_R   0.950490 0.604000 0.057360 -0.040807
N9    N     N_R   0.525490 0.028390 0.207550 -0.041659
N10   N     N_R   0.525490 0.971610 0.207550 -0.040012
N11   N     N_R   0.025490 0.528390 0.207550 -0.041655
N12   N     N_R   0.025490 0.471610 0.207550 -0.040008
N13   N     N_R   0.317450 0.971190 0.792000 -0.077474
N14   N     N_R   0.317450 0.028810 0.792000 -0.078653
N15   N     N_R   0.817450 0.471190 0.792000 -0.077479
N16   N     N_R   0.817450 0.528810 0.792000 -0.078657
N17   N     N_R   0.473900 0.028390 0.792280 -0.048029
N18   N     N_R   0.473900 0.971610 0.792280 -0.041451
N19   N     N_R   0.973900 0.528390 0.792280 -0.048000
N20   N     N_R   0.973900 0.471610 0.792280 -0.041410
N21   N     N_R   0.682310 0.971180 0.208170 -0.040238
N22   N     N_R   0.682310 0.028820 0.208170 -0.040919
N23   N     N_R   0.182310 0.471180 0.208170 -0.040237
N24   N     N_R   0.182310 0.528820 0.208170 -0.040920
N25   N     N_R   0.606470 0.103570 0.057210 -0.077896
N26   N     N_R   0.606470 0.896430 0.057210 -0.078060
N27   N     N_R   0.106470 0.603570 0.057210 -0.077902
N28   N     N_R   0.106470 0.396430 0.057210 -0.078064
N29   N     N_R   0.549740 0.896000 0.943240 -0.102418
N30   N     N_R   0.549740 0.104000 0.943240 -0.111338
N31   N     N_R   0.049740 0.396000 0.943240 -0.102432
N32   N     N_R   0.049740 0.604000 0.943240 -0.111336
Ni1   Ni    Ni4+2 0.433780 0.065390 0.868430 0.285179
Ni2   Ni    Ni4+2 0.433780 0.934610 0.868430 0.280163
Ni3   Ni    Ni4+2 0.933780 0.565390 0.868430 0.285178
Ni4   Ni    Ni4+2 0.933780 0.434610 0.868430 0.280185
Ni5   Ni    Ni4+2 0.565800 0.934190 0.131570 0.218066
Ni6   Ni    Ni4+2 0.565800 0.065810 0.131570 0.214714
Ni7   Ni    Ni4+2 0.065800 0.434190 0.131570 0.218060
Ni8   Ni    Ni4+2 0.065800 0.565810 0.131570 0.214714
C113  C     C_1   0.237794 0.869270 0.137751 0.266286
N33   N     N_1   0.215590 0.910190 0.155630 -0.081511
C114  C     C_1   0.196913 0.128865 0.095259 0.300092
N34   N     N_1   0.154160 0.090761 0.088872 -0.076483
C115  C     C_1   0.737826 0.369269 0.137779 0.266294
N35   N     N_1   0.715640 0.410191 0.155677 -0.081477
C116  C     C_1   0.696916 0.628863 0.095258 0.300047
N36   N     N_1   0.654165 0.590757 0.088870 -0.076463
F1    F     F_    0.145744 0.782694 0.135821 -0.691125
F2    F     F_    0.138169 0.220933 0.128310 -0.692828
F3    F     F_    0.645727 0.282706 0.135797 -0.691116
F4    F     F_    0.638165 0.720930 0.128306 -0.692828
C117  C     C_1   0.894558 0.253416 0.072190 0.036260
N37   N     N_1   0.974685 0.246149 0.138887 -0.015442
C118  C     C_1   0.899778 0.744832 0.106012 0.026496
N38   N     N_1   0.975819 0.750635 0.185855 -0.045808
C119  C     C_1   0.394562 0.753413 0.072224 0.036265
N39   N     N_1   0.474685 0.746145 0.138938 -0.015473
C120  C     C_1   0.399778 0.244831 0.106010 0.026502
N40   N     N_1   0.475819 0.250634 0.185853 -0.045805
C121  C     C_1   0.010828 0.794246 0.904245 0.315110
N41   N     N_1   0.947459 0.808704 0.903935 0.009471
C122  C     C_1   0.012069 0.205382 0.892507 0.288339
N42   N     N_1   0.948660 0.188544 0.890005 -0.023376
C123  C     C_1   0.510814 0.294236 0.904216 0.315106
N43   N     N_1   0.447433 0.308688 0.903887 0.009440
C124  C     C_1   0.512068 0.705381 0.892504 0.288389
N44   N     N_1   0.448659 0.688542 0.890000 -0.023324
F5    F     F_    0.777466 0.262311 0.885264 -0.693381
F6    F     F_    0.809071 0.739890 0.915776 -0.688941
F7    F     F_    0.277499 0.762310 0.885290 -0.693372
F8    F     F_    0.309071 0.239888 0.915774 -0.688960
F9    F     F_    0.724384 0.969876 0.757408 -0.677454
F10   F     F_    0.395592 0.023108 0.512652 -0.678734
F11   F     F_    0.224455 0.470035 0.757419 -0.677446
F12   F     F_    0.895494 0.522938 0.512647 -0.678745
C125  C     C_1   0.741556 0.976654 0.594032 0.279549
N45   N     N_1   0.816891 0.989083 0.622186 -0.089762
C126  C     C_1   0.388337 0.009794 0.335419 0.281294
N46   N     N_1   0.325913 0.032303 0.258940 -0.092370
C127  C     C_1   0.241563 0.476703 0.593985 0.279565
N47   N     N_1   0.316878 0.489142 0.622084 -0.089760
C128  C     C_1   0.888324 0.509772 0.335446 0.281357
N48   N     N_1   0.825887 0.532289 0.258994 -0.092359
C129  C     C_1   0.246536 0.899556 0.652362 0.093620
N49   N     N_1   0.246673 0.856158 0.621004 -0.031197
C130  C     C_1   0.238168 0.098744 0.647685 0.112041
N50   N     N_1   0.231922 0.142233 0.613156 -0.036386
C131  C     C_1   0.746536 0.399556 0.652362 0.093717
N51   N     N_1   0.746672 0.356157 0.621005 -0.031186
C132  C     C_1   0.738171 0.598744 0.647686 0.112011
N52   N     N_1   0.731925 0.642233 0.613158 -0.036405
F13   F     F_    0.489548 0.830102 0.802720 -0.743350
F14   F     F_    0.489534 0.171213 0.804977 -0.734522
F15   F     F_    0.989550 0.330102 0.802720 -0.743345
F16   F     F_    0.989532 0.671212 0.804977 -0.734544
C133  C     C_1   0.923375 0.933444 0.499243 0.024130
N53   N     N_1   0.885369 0.905694 0.524776 -0.079626
C134  C     C_1   0.423386 0.433431 0.499241 0.024142
N54   N     N_1   0.385385 0.405677 0.524773 -0.079628

loop_
_geom_bond_atom_site_label_1
_geom_bond_atom_site_label_2
_ccdc_geom_bond_type
N6    Ni6   S    
C55   C59   S    
C86   H57   S    
C15   C109  A    
C68   H26   S    
N26   N29   A    
C72   C122  S    
C42   C58   S    
C4    N4    A    
C46   C62   S    
C2    N2    A    
C106  N18   A    
C86   C88   S    
N4    N7    A    
C44   H18   S    
C127  N47   T    
C6    H76   S    
C9    F13   S    
N25   Ni6   S    
C10   F14   S    
C79   H61   S    
N1    N6    A    
C21   H5    S    
C17   C61   S    
C77   C101  A    
C41   C113  S    
C19   C63   S    
C79   N11   A    
C79   C102  A    
C36   C97   A    
C51   C57   S    
C42   H16   S    
N9    N10   A    
C118  N38   T    
C78   C101  A    
N3    Ni3   S    
C78   N10   A    
C68   H46   S    
C71   C121  S    
C44   C46   S    
C11   C20   A    
C24   H8    S    
C72   H42   S    
N2    N5    A    
C28   C32   S    
C21   C29   S    
N10   Ni5   S    
C23   C31   S    
C51   C119  S    
C24   C32   S    
N28   Ni7   S    
C83   H53   S    
C15   C27   S    
C77   H59   S    
C33   H13   S    
N15   Ni4   S    
C65   H23   S    
C52   C58   S    
C66   H24   S    
C14   C107  A    
C107  H69   S    
C7    C19   A    
C96   C104  A    
C53   C71   S    
N1    Ni1   S    
N23   Ni7   S    
C75   F11   S    
C22   H6    S    
C89   C101  S    
C53   H27   S    
C111  N23   A    
C13   C106  A    
C108  N20   A    
N5    Ni5   S    
C36   H32   S    
C14   C88   S    
N25   N30   A    
C2    H2    S    
C82   H52   S    
N13   Ni2   S    
C93   N13   A    
C80   H62   S    
C61   C65   S    
C109  N21   A    
C37   C100  A    
C117  N37   T    
C16   C111  A    
N17   Ni1   S    
C76   F12   S    
C27   C29   S    
C41   H15   S    
C11   N31   A    
C62   C70   S    
C120  N40   T    
C3    N3    A    
C82   C89   S    
C50   F6    S    
C64   C68   S    
C48   H22   S    
C24   C26   S    
C46   H20   S    
C122  N42   T    
C5    N25   A    
C124  N44   T    
C90   C102  S    
C12   F16   S    
N29   Ni2   S    
C70   C124  S    
C29   C33   S    
C22   C25   S    
C38   N8    A    
C112  N24   A    
C74   C87   S    
C89   C91   S    
N9    Ni6   S    
C43   C59   S    
C130  N50   T    
C59   C100  S    
N20   Ni4   S    
C84   C90   S    
C105  H67   S    
C106  H68   S    
C49   C117  S    
N3    N8    A    
C55   H37   S    
C62   C66   S    
C85   H55   S    
C30   H10   S    
C43   H17   S    
C11   F15   S    
C8    H78   S    
C18   C62   S    
C42   C48   S    
N32   Ni3   S    
C80   C102  A    
C36   N6    A    
N27   Ni8   S    
C77   N9    A    
C131  N51   T    
C13   C87   S    
C54   C58   S    
N19   N20   A    
C41   C47   S    
C31   C34   S    
C67   H45   S    
C51   C67   S    
C43   C45   S    
C12   N32   A    
C55   C69   S    
N12   Ni7   S    
C47   F1    S    
N14   Ni1   S    
C94   N14   A    
C56   H38   S    
N28   N31   A    
C54   H36   S    
C21   C25   S    
C22   C30   S    
C86   H58   S    
C110  N22   A    
C125  N45   T    
N7    Ni7   S    
N18   Ni2   S    
C52   F8    S    
C73   H47   S    
C96   C132  S    
C49   C59   S    
C74   H48   S    
C75   H49   S    
C50   C60   S    
C56   H30   S    
C65   H43   S    
C43   C115  S    
C66   H44   S    
C49   F5    S    
C109  H71   S    
C22   C39   S    
C91   H64   S    
C67   H25   S    
C92   H65   S    
C3    C99   A    
C9    C18   A    
C6    N26   A    
C35   H31   S    
C81   C125  S    
C126  N46   T    
N30   Ni1   S    
C73   F9    S    
C74   F10   S    
C16   C28   S    
C55   H29   S    
C129  N49   T    
C76   C84   S    
C121  N41   T    
N23   N24   A    
C54   H28   S    
C51   F7    S    
C1    H1    S    
C82   C126  S    
C93   C129  S    
C47   C63   S    
C42   C114  S    
C48   C64   S    
C5    C17   A    
C23   C40   S    
C23   C26   S    
C73   C81   S    
C73   C87   S    
C80   N12   A    
C29   H9    S    
C115  N35   T    
C35   C98   A    
C35   N5    A    
C81   C89   S    
C9    N29   A    
C14   C108  A    
C110  H72   S    
C84   C128  S    
C47   H21   S    
C15   C110  A    
C93   C103  A    
N19   Ni3   S    
C74   C82   S    
C48   F2    S    
N17   N18   A    
N2    Ni2   S    
C13   C105  A    
C53   C57   S    
N31   Ni4   S    
C56   C60   S    
C25   C133  S    
N21   N22   A    
C34   H14   S    
N16   Ni3   S    
C8    C20   A    
C83   C127  S    
C1    N1    A    
C94   C103  A    
C45   H19   S    
C46   F4    S    
N24   Ni8   S    
C16   C112  A    
N27   N32   A    
C4    H4    S    
C28   C31   S    
C38   C99   A    
C39   C103  S    
C107  N19   A    
N4    Ni4   S    
C41   C57   S    
C3    H3    S    
C23   H7    S    
C75   C83   S    
C44   C60   S    
C57   C98   S    
C12   C19   A    
C45   C61   S    
C8    N28   A    
N22   Ni6   S    
C7    H77   S    
C32   C34   S    
C95   N15   A    
N13   N14   A    
N11   N12   A    
C32   H12   S    
C26   C134  S    
C76   H50   S    
C60   C99   S    
C44   C116  S    
C85   C91   S    
C10   N30   A    
N15   N16   A    
C33   C39   S    
C49   C65   S    
C34   C40   S    
C112  H74   S    
C10   C17   A    
C71   H41   S    
C53   H35   S    
C90   C92   S    
C38   H34   S    
C133  N53   T    
C37   N7    A    
C50   C118  S    
C52   C120  S    
C76   C88   S    
C52   C68   S    
N21   Ni5   S    
C27   C30   S    
C81   H51   S    
C58   C97   S    
C78   H60   S    
C105  N17   A    
C85   C87   S    
C6    C18   A    
C63   C67   S    
C111  H73   S    
N26   Ni5   S    
C95   C131  S    
C69   H39   S    
C70   H40   S    
C1    C97   A    
C132  N52   T    
C20   C64   S    
C40   C104  S    
C96   N16   A    
C21   C39   S    
C128  N48   T    
C91   H63   S    
C50   C66   S    
C92   H66   S    
N11   Ni8   S    
C56   C70   S    
C4    C100  A    
C123  N43   T    
C45   F3    S    
C95   C104  A    
C69   C123  S    
C134  N54   T    
C114  N34   T    
C61   C69   S    
C83   C90   S    
C30   C33   S    
C85   H56   S    
C63   C71   S    
C119  N39   T    
N8    Ni8   S    
C25   C27   S    
C26   C28   S    
C108  H70   S    
C31   H11   S    
C86   C92   S    
C94   C130  S    
C24   C40   S    
C64   C72   S    
C84   H54   S    
C7    N27   A    
C75   C88   S    
C54   C72   S    
C2    C98   A    
C113  N33   T    
C5    H75   S    
C37   H33   S    
C116  N36   T    
