data_mof_unit_10550.cif
_audit_creation_date              2012-12-10T17:35:02-0500
_audit_creation_method            fapswitch 2.2
_symmetry_space_group_name_H-M    P1
_symmetry_Int_Tables_number       1
_space_group_crystal_system       triclinic
_cell_length_a                    12.043558
_cell_length_b                    12.807579
_cell_length_c                    15.735687
_cell_angle_alpha                 90.384553
_cell_angle_beta                  86.370284
_cell_angle_gamma                 94.230367
_cell_volume                      2415.73753909

loop_
_atom_site_label
_atom_site_type_symbol
_atom_type_description
_atom_site_fract_x
_atom_site_fract_y
_atom_site_fract_z
_atom_type_partial_charge
C1    C     C_R   0.522661 0.700378 0.498933 0.885533
C2    C     C_R   0.536828 0.812005 0.495653 -0.025313
C3    C     C_R   0.630380 0.969734 0.436592 -0.238679
C4    C     C_R   0.500159 0.499675 0.661490 0.916654
C5    C     C_R   0.625745 0.862195 0.446638 -0.220304
C6    C     C_R   0.453112 0.867925 0.535364 -0.278569
C7    C     C_R   0.455023 0.974353 0.523601 0.185780
C8    C     C_R   0.544615 0.025682 0.474066 0.192826
C9    C     C_R   0.547288 0.132330 0.463303 -0.279436
C10   C     C_R   0.371701 0.137319 0.548581 -0.196367
C11   C     C_R   0.368105 0.029974 0.559675 -0.223316
C12   C     C_3   0.380991 0.488120 0.055587 -0.386595
C13   C     C_R   0.950047 0.389543 0.429274 -0.099193
C14   C     C_R   0.834642 0.403145 0.435859 -0.053115
C15   C     C_R   0.861200 0.548500 0.528850 0.052811
C16   C     C_R   0.477281 0.299630 0.500429 0.880269
C17   C     C_R   0.978199 0.539493 0.523946 0.041378
C18   C     C_R   0.023374 0.458821 0.474121 0.026209
C19   C     C_R   0.140302 0.449703 0.472741 -0.048447
C20   C     C_R   0.165292 0.597266 0.563005 0.031580
C21   C     C_R   0.050974 0.608436 0.568664 -0.321763
C22   C     C_R   0.499823 0.500374 0.338432 0.900312
C23   C     C_3   0.503061 0.499315 0.082521 0.251207
C24   C     C_3   0.379223 0.492383 0.958014 -0.426768
C25   C     C_3   0.562622 0.606649 0.948466 -0.188958
C26   C     C_3   0.556639 0.605835 0.047469 -0.544836
C27   C     C_1   0.499519 0.501107 0.249631 -0.186671
C28   C     C_3   0.500477 0.502928 0.916861 0.169058
C29   C     C_R   0.686348 0.406226 0.079044 0.056959
C30   C     C_R   0.778825 0.467335 0.041024 -0.209775
C31   C     C_R   0.883933 0.468383 0.073861 -0.116762
C32   C     C_R   0.899461 0.409651 0.145652 -0.096521
C33   C     C_R   0.809667 0.350145 0.185397 -0.134197
C34   C     C_3   0.567115 0.404277 0.045790 0.351820
C35   C     C_R   0.704198 0.348804 0.152985 -0.117976
C36   C     C_R   0.989540 0.302194 0.375737 0.111859
C37   C     C_R   0.942934 0.199447 0.390244 -0.173979
C38   C     C_R   0.977282 0.117256 0.338409 -0.143651
C39   C     C_R   0.057894 0.136931 0.271496 -0.093575
C40   C     C_R   0.104016 0.238888 0.256127 -0.131735
C41   C     C_R   0.069719 0.321321 0.307708 -0.190492
C42   C     C_R   0.814091 0.630324 0.583882 0.173412
C43   C     C_R   0.816155 0.733652 0.554223 -0.146596
C44   C     C_R   0.781197 0.813311 0.608653 -0.150781
C45   C     C_3   0.566218 0.408700 0.945318 0.209702
C46   C     C_R   0.745977 0.790661 0.693256 -0.112062
C47   C     C_R   0.748430 0.688899 0.724103 -0.160722
C48   C     C_R   0.784253 0.609316 0.670087 -0.127382
C49   C     C_R   0.534015 0.713187 0.914519 0.178202
C50   C     C_R   0.447373 0.727922 0.860101 -0.144054
C51   C     C_R   0.431242 0.827434 0.829147 -0.155862
C52   C     C_R   0.500432 0.913918 0.851716 -0.103716
C53   C     C_R   0.586313 0.901170 0.905224 -0.145507
C54   C     C_R   0.603250 0.801906 0.936041 -0.190004
C55   C     C_1   0.500525 0.500984 0.174299 -0.028622
C56   C     C_1   0.500350 0.500860 0.825374 -0.044307
C57   C     C_1   0.500560 0.499778 0.750144 -0.175305
C58   C     C_R   0.462696 0.187979 0.502170 -0.041805
H1    H     H_    0.333316 0.552426 0.084114 0.163889
H2    H     H_    0.178865 0.387502 0.438056 0.144481
H3    H     H_    0.331736 0.559342 0.941489 0.175829
H4    H     H_    0.220524 0.650954 0.596797 0.123302
H5    H     H_    0.020920 0.671330 0.607940 0.154850
H6    H     H_    0.777888 0.351177 0.401802 0.135381
H7    H     H_    0.651323 0.602616 0.926013 0.100219
H8    H     H_    0.505726 0.669520 0.073123 0.207784
H9    H     H_    0.641269 0.622971 0.070764 0.175992
H10   H     H_    0.652529 0.421230 0.916776 0.107361
H11   H     H_    0.772091 0.515565 0.986316 0.100881
H12   H     H_    0.331316 0.421901 0.934278 0.174835
H13   H     H_    0.953608 0.515370 0.043579 0.121891
H14   H     H_    0.981103 0.411045 0.170507 0.125770
H15   H     H_    0.821518 0.305142 0.241629 0.136737
H16   H     H_    0.636281 0.303327 0.186856 0.160027
H17   H     H_    0.880197 0.182990 0.441760 0.126244
H18   H     H_    0.941231 0.038321 0.350055 0.123348
H19   H     H_    0.084329 0.073237 0.231377 0.124489
H20   H     H_    0.165887 0.254204 0.203918 0.136826
H21   H     H_    0.104952 0.400165 0.294187 0.127318
H22   H     H_    0.845306 0.752283 0.489202 0.117058
H23   H     H_    0.337140 0.413525 0.079475 0.213490
H24   H     H_    0.781892 0.892684 0.585359 0.145426
H25   H     H_    0.718623 0.852256 0.735236 0.147117
H26   H     H_    0.723916 0.671919 0.790067 0.132071
H27   H     H_    0.788497 0.531309 0.695297 0.133577
H28   H     H_    0.392096 0.664427 0.839314 0.124159
H29   H     H_    0.365075 0.837370 0.787082 0.125533
H30   H     H_    0.487763 0.990737 0.827449 0.143824
H31   H     H_    0.640451 0.968176 0.922424 0.141959
H32   H     H_    0.671629 0.793936 0.976484 0.129274
H33   H     H_    0.447074 0.297548 0.929866 0.365396
H34   H     H_    0.616585 0.172506 0.426304 0.142459
H35   H     H_    0.547658 0.250799 0.055268 0.355570
H36   H     H_    0.306406 0.181042 0.578933 0.159752
H37   H     H_    0.699168 0.008663 0.398439 0.135989
H38   H     H_    0.298810 0.990853 0.597141 0.136421
H39   H     H_    0.689213 0.818107 0.414320 0.151383
H40   H     H_    0.384722 0.828013 0.573491 0.141573
N1    N     N_R   0.207800 0.519340 0.515510 -0.101194
N2    N     N_R   0.792190 0.480660 0.484490 -0.119902
O1    O     O_R   0.421690 0.658830 0.504140 -0.630029
O2    O     O_3   0.505891 0.311455 0.075063 -0.799670
O3    O     O_R   0.609320 0.646410 0.494190 -0.614995
O4    O     O_R   0.406150 0.506210 0.627840 -0.622894
O5    O     O_R   0.593770 0.493790 0.617880 -0.608926
O6    O     O_R   0.390680 0.353590 0.505810 -0.626270
O7    O     O_R   0.578310 0.341170 0.495860 -0.626261
O8    O     O_R   0.406230 0.506210 0.382120 -0.613640
O9    O     O_R   0.593850 0.493790 0.372160 -0.616625
O10   O     O_3   0.526020 0.312854 0.909550 -0.763229
Zn1   Zn    Zn3+2 0.374720 0.508290 0.506640 0.942720
Zn2   Zn    Zn3+2 0.625280 0.491710 0.493360 0.949577

loop_
_geom_bond_atom_site_label_1
_geom_bond_atom_site_label_2
_ccdc_geom_bond_type
C11   H38   S    
C35   H16   S    
C24   H3    S    
C1    O1    A    
O7    Zn2   S    
C15   N2    A    
C28   C56   S    
C24   H12   S    
C7    C8    A    
C32   H14   S    
C38   H18   S    
C53   C54   A    
C25   C28   S    
C7    C11   A    
C12   C23   S    
C29   C30   A    
C13   C18   A    
C26   H9    S    
C39   H19   S    
H33   O10   S    
C36   C37   A    
C10   C58   A    
C54   H32   S    
C44   H24   S    
C34   O2    S    
C38   C39   A    
C27   C55   T    
C10   H36   S    
C49   C54   A    
C56   C57   T    
C1    C2    S    
C23   C26   S    
C16   O7    A    
C12   H1    S    
C47   C48   A    
C8    C9    A    
C4    C57   S    
C1    O3    A    
C16   O6    A    
C23   C34   S    
C31   H13   S    
C37   H17   S    
N1    Zn1   S    
C13   C14   A    
C36   C41   A    
C2    C6    A    
C9    H34   S    
C44   C46   A    
C50   C51   A    
O6    Zn1   S    
C28   C45   S    
C51   C52   A    
C26   H8    S    
C52   H30   S    
C25   H7    S    
C13   C36   S    
C3    C8    A    
O9    Zn2   S    
C51   H29   S    
C39   C40   A    
C19   N1    A    
C45   O10   S    
C18   C19   A    
C16   C58   S    
C25   C26   S    
C29   C34   S    
C17   C21   A    
O3    Zn2   S    
C43   C44   A    
C37   C38   A    
C31   C32   A    
C22   O9    A    
C14   H6    S    
C45   H10   S    
C17   C18   A    
C34   C45   S    
C42   C48   A    
C47   H26   S    
C23   C55   S    
C33   H15   S    
C40   C41   A    
O5    Zn2   S    
C5    H39   S    
N2    Zn2   S    
C22   C27   S    
C53   H31   S    
C40   H20   S    
C2    C5    A    
C42   C43   A    
C6    H40   S    
C30   H11   S    
C52   C53   A    
C15   C17   A    
C12   C24   S    
C46   C47   A    
C9    C58   A    
C24   C28   S    
C15   C42   S    
C3    C5    A    
H35   O2    S    
C41   H21   S    
O4    Zn1   S    
C14   N2    A    
C6    C7    A    
C19   H2    S    
O1    Zn1   S    
C4    O5    A    
C29   C35   A    
O8    Zn1   S    
C32   C33   A    
C43   H22   S    
C30   C31   A    
C20   N1    A    
C22   O8    A    
C4    O4    A    
C33   C35   A    
C12   H23   S    
C20   H4    S    
C25   C49   S    
C21   H5    S    
C10   C11   A    
C50   H28   S    
C46   H25   S    
C20   C21   A    
C49   C50   A    
C48   H27   S    
C3    H37   S    
