data_mof_unit_45525.cif
_audit_creation_date              2013-03-05T16:00:50-0500
_audit_creation_method            fapswitch 2.2
_symmetry_space_group_name_H-M    P1
_symmetry_Int_Tables_number       1
_space_group_crystal_system       triclinic
_cell_length_a                    8.217584
_cell_length_b                    12.667066
_cell_length_c                    18.781509
_cell_angle_alpha                 99.734094
_cell_angle_beta                  91.30649
_cell_angle_gamma                 98.599044
_cell_volume                      1902.890827

loop_
_atom_site_label
_atom_site_type_symbol
_atom_site_description
_atom_site_fract_x
_atom_site_fract_y
_atom_site_fract_z
_atom_type_partial_charge
P1    P     P_3+3 0.041040 0.394770 0.336330 0.441919
O1    O     O_2   0.873090 0.425890 0.325140 -0.391152
O2    O     O_3   0.122420 0.434370 0.414380 -0.411031
O3    O     O_3   0.659500 0.627100 0.368810 -0.358510
O4    O     O_2   0.771076 0.538092 0.244823 -0.372672
O5    O     O_3   0.010866 0.252997 0.314829 -0.619114
O6    O     O_3   0.714327 0.733567 0.249449 -0.498771
H1    H     H_    0.650783 0.854356 0.326407 0.109021
C1    C     C_3   0.606965 0.883966 0.218062 -0.899288
H2    H     H_    0.533114 0.948789 0.237183 0.240123
H3    H     H_    0.734847 0.921555 0.210674 0.250106
P2    P     P_3+3 0.672880 0.754030 0.556100 0.479097
P3    P     P_3+3 0.127670 0.824885 0.406114 0.495650
O7    O     O_2   0.848200 0.768190 0.534530 -0.381574
O8    O     O_3   0.081160 0.685950 0.404810 -0.355461
O9    O     O_2   0.022161 0.879875 0.463658 -0.352820
O10   O     O_3   0.685001 0.795467 0.650175 -0.533242
O11   O     O_3   0.049625 0.855203 0.325838 -0.497796
C2    C     C_3   0.162611 0.837614 0.272030 0.199968
H4    H     H_    0.179167 0.750755 0.261462 0.100212
H5    H     H_    0.282145 0.890795 0.288578 0.036858
C3    C     C_3   0.095937 0.867511 0.202758 -0.081969
H6    H     H_    0.976124 0.815589 0.184676 0.169004
H7    H     H_    0.075413 0.953410 0.213750 0.119570
C4    C     C_3   0.237392 0.784097 0.615191 0.393947
H8    H     H_    0.358974 0.761413 0.602569 0.094704
H9    H     H_    0.148140 0.751050 0.568721 0.126447
C5    C     C_3   0.250277 0.906689 0.628569 -0.804994
H10   H     H_    0.324320 0.941409 0.679234 0.274705
H11   H     H_    0.309529 0.940875 0.583494 0.201328
H12   H     H_    0.125663 0.929746 0.633738 0.284706
Ba1   Ba    Ba6+2 0.852780 0.548340 0.465070 1.573213
C6    C     C_3   0.918949 0.205646 0.366003 0.978837
H13   H     H_    0.825102 0.254842 0.387974 0.000046
C7    C     C_3   0.831522 0.095635 0.328269 -0.879999
H14   H     H_    0.749813 0.106347 0.283032 0.223758
H15   H     H_    0.757197 0.053440 0.366390 0.214159
H16   H     H_    0.923302 0.044355 0.306377 0.259869
C8    C     C_3   0.760850 0.724166 0.684210 0.163415
H17   H     H_    0.868152 0.700604 0.654700 0.073153
H18   H     H_    0.670627 0.650206 0.686325 0.087512
C9    C     C_3   0.821261 0.779419 0.761757 0.393187
H19   H     H_    0.887351 0.722535 0.785697 -0.045200
P4    P     P_3+3 0.148670 0.605320 0.663680 0.495969
O12   O     O_2   0.316610 0.574140 0.674900 -0.300249
O13   O     O_3   0.067290 0.565720 0.585630 -0.424271
O14   O     O_3   0.530210 0.372990 0.631200 -0.371219
O15   O     O_3   0.187127 0.747146 0.678406 -0.538210
P5    P     P_3+3 0.064933 0.175179 0.597545 0.477563
O16   O     O_3   0.611340 0.366290 0.463630 -0.404009
O17   O     O_3   0.108550 0.314140 0.595200 -0.406198
O18   O     O_2   0.194677 0.120959 0.552408 -0.353798
O19   O     O_3   0.106360 0.153780 0.685400 -0.497287
Ba2   Ba    Ba6+2 0.337060 0.451750 0.534940 1.586122
P6    P     P_3+3 0.643112 0.609131 0.274888 0.479745
C10   C     C_3   0.606553 0.807366 0.272268 0.407234
H20   H     H_    0.477313 0.768078 0.275444 0.011355
H21   H     H_    0.554000 0.838135 0.164923 0.300140
O20   O     O_3   0.578370 0.633800 0.536380 -0.389746
C11   C     C_3   0.460675 0.275438 0.314627 0.401004
H22   H     H_    0.345600 0.301307 0.336046 0.124521
H23   H     H_    0.562644 0.345164 0.324947 0.116139
C12   C     C_3   0.434808 0.238060 0.233288 -0.958972
H24   H     H_    0.331146 0.169524 0.221256 0.287879
H25   H     H_    0.405580 0.305524 0.207017 0.212158
H26   H     H_    0.548544 0.211263 0.210629 0.257172
P7    P     P_3+3 0.521104 0.229991 0.440061 0.425146
O21   O     O_2   0.341510 0.231850 0.465510 -0.317494
O22   O     O_3   0.499767 0.189082 0.346129 -0.588519
C13   C     C_3   0.062291 0.239816 0.734902 0.480472
H27   H     H_    0.141819 0.317203 0.730522 0.133221
H28   H     H_    0.931193 0.247931 0.725790 -0.005025
C14   C     C_3   0.086508 0.217988 0.811338 -0.842461
H29   H     H_    0.216813 0.209504 0.822251 0.280867
H30   H     H_    0.054596 0.285993 0.851066 0.192790
H31   H     H_    0.005791 0.142518 0.818458 0.292968
P8    P     P_3+3 0.549215 0.389197 0.725023 0.453393
C15   C     C_3   0.551029 0.182886 0.699709 0.356032
H32   H     H_    0.666363 0.214498 0.675374 0.036767
O23   O     O_2   0.418486 0.457153 0.756715 -0.382416
O24   O     O_3   0.487168 0.261912 0.748206 -0.529749
H33   H     H_    0.457040 0.147037 0.655401 0.147250
H34   H     H_    0.695838 0.126914 0.779216 0.259755
C16   C     C_3   0.589706 0.094776 0.739979 -0.819829
H35   H     H_    0.620680 0.025701 0.700715 0.257114
H36   H     H_    0.481765 0.066329 0.770096 0.287752
C17   C     C_R   0.995015 0.438537 0.047031 0.035758
C18   C     C_R   0.900227 0.383063 0.095223 -0.192803
C19   C     C_R   0.767972 0.405645 0.952245 -0.202384
C20   C     C_R   0.933324 0.444982 0.976210 0.077849
C21   C     C_R   0.710424 0.409947 0.882812 -0.144606
C22   C     C_R   0.814364 0.453830 0.833470 0.031914
C23   C     C_R   0.978073 0.501334 0.856901 -0.029299
C24   C     C_R   0.037882 0.496281 0.928502 0.041255
C25   C     C_R   0.759203 0.451212 0.761316 0.190723
C26   C     C_R   0.867393 0.492307 0.712878 -0.546637
C27   C     C_R   0.025301 0.547014 0.735107 0.240441
C28   C     C_R   0.080715 0.555340 0.809394 -0.206919
C29   C     C_R   0.158839 0.486538 0.070240 0.068777
C30   C     C_R   0.217193 0.488482 0.142959 0.020709
C31   C     C_R   0.112353 0.442175 0.192516 -0.037955
C32   C     C_R   0.958571 0.383664 0.165648 -0.047718
H37   H     H_    0.825078 0.485523 0.657068 0.181943
H38   H     H_    0.582169 0.378435 0.868795 0.180454
H39   H     H_    0.879323 0.338628 0.198829 0.156105
C33   C     C_R   0.233398 0.615228 0.839121 0.582135
C34   C     C_R   0.294007 0.604771 0.906952 -0.185457
C35   C     C_R   0.201769 0.542728 0.951872 -0.063660
C36   C     C_R   0.264800 0.533539 0.021538 0.132735
C37   C     C_R   0.431979 0.569333 0.044170 -0.149972
C38   C     C_R   0.381123 0.536050 0.165866 -0.004194
C39   C     C_R   0.488128 0.571516 0.114774 -0.132569
C40   C     C_R   0.433582 0.546036 0.239118 0.137635
C41   C     C_R   0.323911 0.509550 0.288714 -0.513367
C42   C     C_R   0.165857 0.455087 0.266819 0.280366
H40   H     H_    0.616903 0.601958 0.128508 0.177455
H41   H     H_    0.365195 0.518891 0.344866 0.178713
H42   H     H_    0.677801 0.372205 0.986403 0.135969
H43   H     H_    0.779865 0.336877 0.079999 0.131028
H44   H     H_    0.410811 0.653729 0.925430 0.198764
H45   H     H_    0.523716 0.595508 0.008052 0.139877
C43   C     C_R   0.762799 0.182651 0.529112 -0.476033
C44   C     C_R   0.434273 0.805304 0.465294 -0.492103
C45   C     C_R   0.406052 0.982905 0.441705 -0.212051
C46   C     C_R   0.343992 0.873744 0.435813 0.149590
C47   C     C_R   0.580451 0.846977 0.506837 0.295443
C48   C     C_R   0.643858 0.959539 0.515025 -0.073496
C49   C     C_R   0.555442 0.027526 0.481022 -0.069194
C50   C     C_R   0.616745 0.139179 0.488657 0.239681
C51   C     C_R   0.855474 0.116394 0.559135 0.250701
C52   C     C_R   0.793368 0.006399 0.554901 -0.162570
H46   H     H_    0.331309 0.032359 0.418033 0.207078
H47   H     H_    0.865280 0.958984 0.581695 0.193886
H48   H     H_    0.809747 0.268141 0.533656 0.159822
H49   H     H_    0.382926 0.720603 0.461320 0.167766
O25   O     O_3   0.024573 0.189573 0.421069 -0.718022
H50   H     H_    0.043535 0.258472 0.456171 0.333793
N1    N     N_R   0.935691 0.880018 0.762177 0.246268
O26   O     O_R   0.076125 0.896941 0.798802 -0.382331
O27   O     O_R   0.891931 0.957846 0.732668 -0.398218
N2    N     N_R   0.683069 0.801547 0.806548 0.264985
O28   O     O_R   0.585601 0.867197 0.790779 -0.317266
O29   O     O_R   0.664156 0.761600 0.865767 -0.385610
N3    N     N_R   0.211140 0.853222 0.145408 0.243211
O30   O     O_R   0.279210 0.936169 0.118362 -0.367468
O31   O     O_R   0.235928 0.756400 0.116986 -0.415789
O32   O     O_3   0.322712 0.691505 0.806152 -0.644586
H51   H     H_    0.250873 0.747130 0.804288 0.367450

loop_
_geom_bond_atom_site_label_1
_geom_bond_atom_site_label_2
_geom_bond_distance
_ccdc_geom_bond_type
C17   C18   1.415386 A    
C12   H25   1.109052 S    
C47   C48   1.424135 A    
C9    N1    1.464943 S    
C14   H29   1.109959 S    
C25   C26   1.395584 A    
C15   O24   1.406295 S    
O6    P6    1.745520 S    
C21   H38   1.079563 S    
C49   C50   1.410566 A    
H1    C10   1.110906 S    
C41   C42   1.394183 A    
O8    Ba1   2.761736 S    
C8    H18   1.111388 S    
C10   H20   1.110876 S    
C4    C5    1.517713 S    
C24   C35   1.414678 A    
O16   Ba2   2.902203 S    
P3    O11   1.748525 S    
C11   C12   1.521072 S    
O1    Ba1   2.838938 S    
C5    H10   1.105071 S    
C7    H15   1.105926 S    
C16   H36   1.110321 S    
O11   C2    1.400537 S    
P5    C51   1.848251 S    
N2    O29   1.300736 A    
C37   H45   1.078433 S    
O2    Ba2   2.796388 S    
C44   C46   1.394443 A    
P2    C47   1.850102 S    
C33   C34   1.391568 A    
C29   C36   1.419431 A    
C27   C28   1.439469 A    
C35   C36   1.425637 A    
C45   H46   1.078950 S    
C32   H39   1.079592 S    
C11   H23   1.110490 S    
P1    O1    1.510575 D    
O10   C8    1.399375 S    
C43   H48   1.082188 S    
C37   C39   1.388512 A    
C17   C20   1.432211 A    
P2    O20   1.581837 S    
O32   H51   0.988933 S    
P5    O17   1.751312 S    
P2    O10   1.752142 S    
C34   C35   1.406837 A    
C13   H27   1.110374 S    
C19   C21   1.389536 A    
C1    H2    1.109384 S    
C43   C50   1.392958 A    
C21   C22   1.402012 A    
C45   C49   1.407783 A    
P3    C46   1.833911 S    
C12   H26   1.110867 S    
P2    Ba1   3.414360 S    
C14   H30   1.107557 S    
P7    C50   1.834847 S    
O6    C10   1.404040 S    
C9    N2    1.461117 S    
O19   C13   1.404987 S    
Ba1   Ba2   4.562583 S    
P4    O13   1.566532 S    
C20   C24   1.424216 A    
C8    C9    1.541427 S    
C17   C29   1.418067 A    
Ba2   O20   2.803531 S    
C13   H28   1.109551 S    
P1    O5    1.751194 S    
C31   C32   1.401897 A    
C2    C3    1.527246 S    
C16   H35   1.109573 S    
N3    O31   1.299580 A    
C8    H17   1.104006 S    
C15   H32   1.111593 S    
N3    O30   1.300986 A    
C44   C47   1.399559 A    
P6    C40   1.846343 S    
C4    H8    1.100275 S    
P8    C25   1.849143 S    
C22   C25   1.412566 A    
C33   O32   1.366248 S    
P7    O21   1.563921 D    
C44   H49   1.082060 S    
C11   H22   1.108545 S    
P1    O2    1.566533 S    
C7    H14   1.109647 S    
C15   C16   1.516336 S    
P4    C27   1.883091 S    
C15   H33   1.110529 S    
H34   C16   1.110182 S    
P8    O24   1.746663 S    
P5    O18   1.546099 D    
C26   C27   1.395319 A    
O13   Ba2   2.914365 S    
C13   C14   1.521397 S    
C6    H13   1.106631 S    
C38   C40   1.411521 A    
C1    C10   1.520240 S    
C18   H43   1.076951 S    
C1    H3    1.108911 S    
C4    O15   1.397065 S    
Ba1   O16   2.804157 S    
O3    Ba1   2.781968 S    
N1    O27   1.300025 A    
O14   Ba2   2.781319 S    
P2    O7    1.498611 D    
O12   Ba2   2.839292 S    
P3    O8    1.740056 S    
O3    P6    1.739500 S    
C31   C42   1.428596 A    
C14   H31   1.108782 S    
C3    H7    1.111530 S    
P3    O9    1.540702 D    
C9    H19   1.109845 S    
O14   P8    1.739886 S    
C48   C49   1.424548 A    
C34   H44   1.077201 S    
C39   H40   1.080251 S    
P4    O12   1.510909 D    
C40   C41   1.397425 A    
O16   P7    1.752248 S    
P8    O23   1.543295 D    
C1    H21   1.109616 S    
C38   C39   1.400701 A    
C2    H5    1.110264 S    
C3    H6    1.110345 S    
Ba1   O13   2.795746 S    
O4    P6    1.540316 D    
C5    H12   1.108033 S    
O7    Ba1   2.874680 S    
O25   H50   0.990297 S    
C52   H47   1.076086 S    
C18   C32   1.395006 A    
O5    C6    1.395207 S    
C4    H9    1.109207 S    
C23   C24   1.436118 A    
C28   C33   1.414787 A    
C29   C30   1.432162 A    
O17   Ba2   2.762373 S    
C2    H4    1.113825 S    
C5    H11   1.104993 S    
C51   C52   1.398629 A    
C36   C37   1.412636 A    
C6    O25   1.395555 S    
C11   O22   1.401806 S    
P5    O19   1.750783 S    
C22   C23   1.416669 A    
C6    C7    1.517809 S    
P1    Ba1   3.391731 S    
O2    Ba1   2.913465 S    
C48   C52   1.418578 A    
C41   H41   1.082024 S    
N1    O26   1.300339 A    
C12   H24   1.110921 S    
P4    Ba2   3.392327 S    
Ba2   O21   2.874904 S    
C19   H42   1.076922 S    
C30   C38   1.416354 A    
C26   H37   1.082119 S    
C3    N3    1.456357 S    
C7    H16   1.109123 S    
C30   C31   1.422204 A    
P1    C42   1.871951 S    
Ba1   O20   2.903104 S    
P7    O22   1.749629 S    
C19   C20   1.411023 A    
N2    O28   1.300928 A    
C23   C28   1.429591 A    
C43   C51   1.390649 A    
P4    O15   1.749873 S    
C45   C46   1.385326 A    
