data_mof_unit_38293.cif
_audit_creation_date              2012-12-11T15:59:38-0500
_audit_creation_method            fapswitch 2.2
_symmetry_space_group_name_H-M    P1
_symmetry_Int_Tables_number       1
_space_group_crystal_system       triclinic
_cell_length_a                    10.752363
_cell_length_b                    10.705499
_cell_length_c                    17.080641
_cell_angle_alpha                 99.709373
_cell_angle_beta                  100.128789
_cell_angle_gamma                 60.543044
_cell_volume                      1677.52792311

loop_
_atom_site_label
_atom_site_type_symbol
_atom_type_description
_atom_site_fract_x
_atom_site_fract_y
_atom_site_fract_z
_atom_type_partial_charge
C1    C     C_R   0.356070 0.769338 0.397924 0.529588
C2    C     C_R   0.854992 0.203821 0.196835 0.031885
C3    C     C_R   0.865085 0.213358 0.280848 0.020556
C4    C     C_R   0.779191 0.471676 0.284548 -0.142147
C5    C     C_R   0.785044 0.459856 0.204122 -0.157217
C6    C     C_R   0.873743 0.071562 0.153521 -0.062760
C7    C     C_R   0.924523 0.948357 0.192488 -0.135323
C8    C     C_R   0.950549 0.955520 0.275358 -0.134754
C9    C     C_R   0.919552 0.087000 0.319509 -0.090629
C10   C     C_R   0.819238 0.349734 0.323796 0.005538
C11   C     C_R   0.356160 0.815034 0.157394 -0.001943
C12   C     C_R   0.406139 0.374858 0.356391 0.574094
C13   C     C_R   0.448974 0.848503 0.216501 0.022306
C14   C     C_R   0.433913 0.855400 0.297863 0.014634
C15   C     C_R   0.281482 0.741367 0.256860 -0.145733
C16   C     C_R   0.283526 0.749939 0.177892 -0.148933
C17   C     C_R   0.554603 0.876865 0.197358 -0.095086
C18   C     C_R   0.631297 0.925560 0.256593 -0.128913
C19   C     C_R   0.608286 0.943546 0.336009 -0.091566
C20   C     C_R   0.508224 0.911828 0.356729 -0.082226
C21   C     C_R   0.347661 0.802102 0.317555 0.011432
C22   C     C_R   0.300987 0.279000 0.800001 -0.001056
C23   C     C_R   0.774604 0.378069 0.402946 0.544574
C24   C     C_R   0.426368 0.176371 0.763132 0.036150
C25   C     C_R   0.479470 0.223385 0.712068 0.033240
C26   C     C_R   0.253357 0.449365 0.708137 -0.145126
C27   C     C_R   0.214762 0.414387 0.771244 -0.143044
C28   C     C_R   0.504265 0.029603 0.778508 -0.087365
C29   C     C_R   0.641328 0.939729 0.755439 -0.112436
C30   C     C_R   0.703970 0.994633 0.716691 -0.113643
C31   C     C_R   0.624228 0.134948 0.695204 -0.089358
C32   C     C_R   0.383894 0.353737 0.676949 -0.009918
C33   C     C_1   0.769675 0.368786 0.714776 -0.065152
C34   C     C_R   0.358459 0.768730 0.627610 0.544637
C35   C     C_1   0.814319 0.329868 0.780787 -0.047618
C36   C     C_1   0.339787 0.808418 0.709743 -0.058320
C37   C     C_1   0.313166 0.836164 0.777629 -0.063389
C38   C     C_R   0.890803 0.308875 0.086895 0.548022
C39   C     C_R   0.322011 0.302802 0.119261 0.565361
C40   C     C_R   0.298746 0.886623 0.083923 0.551623
C41   C     C_R   0.879601 0.300803 0.860367 0.546808
C42   C     C_R   0.279375 0.253826 0.876952 0.545010
C43   C     C_R   0.279003 0.884208 0.857343 0.539212
C44   C     C_R   0.408606 0.375607 0.600118 0.534176
C45   C     C_R   0.718705 0.411790 0.635585 0.535913
C46   C     C_1   0.374606 0.362479 0.272016 -0.043847
C47   C     C_1   0.349612 0.343614 0.201204 -0.044303
C48   C     C_R   0.829422 0.326328 0.160071 -0.002168
Cr1   Cr    Cr6+3 0.608100 0.610860 0.522250 1.009771
Cr2   Cr    Cr6+3 0.288890 0.599990 0.488420 1.011150
Cr3   Cr    Cr6+3 0.603040 0.289190 0.489390 0.986059
Cr4   Cr    Cr6+3 0.053960 0.052250 0.967380 1.015896
Cr5   Cr    Cr6+3 0.059890 0.373160 0.992710 1.015560
Cr6   Cr    Cr6+3 0.373370 0.061690 0.991710 0.999648
H1    H     H_    0.740075 0.578870 0.315651 0.158010
H2    H     H_    0.707358 0.951036 0.240344 0.132739
H3    H     H_    0.668718 0.981534 0.381719 0.136009
H4    H     H_    0.490120 0.932230 0.418959 0.141943
H5    H     H_    0.461008 0.983566 0.809254 0.153791
H6    H     H_    0.117858 0.493336 0.797614 0.144818
H7    H     H_    0.700110 0.828863 0.769636 0.121436
H8    H     H_    0.812840 0.927588 0.701350 0.120230
H9    H     H_    0.676996 0.171806 0.664494 0.151753
H10   H     H_    0.845402 0.061859 0.089772 0.138922
H11   H     H_    0.761316 0.554826 0.177015 0.136270
H12   H     H_    0.941078 0.847490 0.158404 0.103531
H13   H     H_    0.988745 0.860164 0.305698 0.125797
H14   H     H_    0.939989 0.088528 0.383897 0.133895
H15   H     H_    0.225849 0.687535 0.270157 0.135450
H16   H     H_    0.584052 0.856298 0.137437 0.136528
H17   H     H_    0.219561 0.714705 0.133007 0.134154
O1    O     O_R   0.749810 0.499790 0.438040 -0.511271
O2    O     O_R   0.298970 0.468800 0.557390 -0.482156
O3    O     O_R   0.489400 0.255930 0.561910 -0.517655
O4    O     O_R   0.723890 0.306050 0.584610 -0.524262
O5    O     O_3   0.500010 0.500010 0.500020 -0.301885
O6    O     O_R   0.171100 0.914680 0.053100 -0.512518
O7    O     O_R   0.941680 0.184840 0.050710 -0.509150
O8    O     O_R   0.922080 0.403420 0.072610 -0.517432
O9    O     O_R   0.196880 0.369150 0.083850 -0.492512
O10   O     O_R   0.411730 0.181020 0.091530 -0.506759
O11   O     O_R   0.365010 0.944360 0.063320 -0.510422
O12   O     O_R   0.477660 0.726260 0.439290 -0.508653
O13   O     O_R   0.159380 0.906670 0.876210 -0.502095
O14   O     O_R   0.930820 0.177420 0.886730 -0.492514
O15   O     O_R   0.910360 0.395420 0.895720 -0.523355
O16   O     O_R   0.186010 0.361730 0.919870 -0.498710
O17   O     O_R   0.400000 0.173010 0.914630 -0.519310
O18   O     O_R   0.354140 0.936940 0.899340 -0.538384
O19   O     O_3   0.162410 0.162370 0.983930 -0.257736
O20   O     O_R   0.260150 0.743000 0.412270 -0.533039
O21   O     O_R   0.297740 0.466550 0.394720 -0.485523
O22   O     O_R   0.488080 0.253500 0.386430 -0.504618
O23   O     O_R   0.722670 0.303800 0.421940 -0.520640
O24   O     O_R   0.751130 0.502220 0.613520 -0.488013
O25   O     O_R   0.478890 0.728510 0.601960 -0.504082
O26   O     O_R   0.261470 0.745430 0.587750 -0.518609
H18   H     H_    0.180892 0.551134 0.683620 0.147157

loop_
_geom_bond_atom_site_label_1
_geom_bond_atom_site_label_2
_ccdc_geom_bond_type
C25   C31   A    
C1    C21   S    
C33   C45   S    
Cr4   O19   S    
C19   C20   A    
Cr3   O3    S    
C7    C8    A    
C19   H3    S    
C26   C32   A    
C41   O15   A    
C26   C27   A    
C43   O18   A    
C14   C21   A    
C28   C29   A    
Cr5   O8    S    
C34   O25   A    
Cr6   O19   S    
C27   H6    S    
C30   C31   A    
C38   O8    A    
C15   C16   A    
C34   O26   A    
C14   C20   A    
C18   C19   A    
C6    H10   S    
Cr4   O13   S    
C8    C9    A    
Cr1   O1    S    
Cr5   O15   S    
C38   C48   S    
C18   H2    S    
C25   C32   A    
C17   H16   S    
C1    O20   A    
C13   C14   A    
C43   O13   A    
C2    C6    A    
C16   H17   S    
Cr4   O7    S    
C15   H15   S    
C5    C48   A    
C29   H7    S    
C40   O11   A    
Cr5   O9    S    
C24   C25   A    
C39   O10   A    
Cr6   O18   S    
C12   C46   S    
Cr2   O2    S    
C38   O7    A    
C2    C48   A    
Cr1   O24   S    
C37   C43   S    
C29   C30   A    
C3    C9    A    
Cr2   O5    S    
C11   C16   A    
C17   C18   A    
C32   C44   S    
Cr1   O5    S    
Cr5   O16   S    
Cr3   O5    S    
C44   O3    A    
C26   H18   S    
C5    H11   S    
Cr3   O22   S    
C22   C27   A    
C30   H8    S    
C4    H1    S    
C22   C24   A    
C12   O22   A    
C42   O17   A    
C4    C10   A    
Cr4   O6    S    
C45   O24   A    
Cr6   O11   S    
C39   C47   S    
C28   H5    S    
Cr2   O21   S    
C44   O2    A    
C46   C47   T    
Cr4   O14   S    
Cr2   O26   S    
C23   O1    A    
C12   O21   A    
C24   C28   A    
Cr3   O4    S    
C4    C5    A    
C6    C7    A    
C10   C23   S    
C1    O12   A    
C31   H9    S    
C41   O14   A    
C23   O23   A    
C13   C17   A    
C45   O4    A    
C39   O9    A    
Cr1   O12   S    
C2    C3    A    
C9    H14   S    
C3    C10   A    
C7    H12   S    
Cr6   O17   S    
C11   C13   A    
C22   C42   S    
C33   C35   T    
C34   C36   S    
Cr1   O25   S    
C11   C40   S    
C35   C41   S    
Cr3   O23   S    
Cr2   O20   S    
C15   C21   A    
C8    H13   S    
C36   C37   T    
Cr5   O19   S    
C40   O6    A    
C42   O16   A    
C20   H4    S    
Cr6   O10   S    
