data_mof_unit_42787.cif
_audit_creation_date              2012-12-10T19:42:14-0500
_audit_creation_method            fapswitch 2.2
_symmetry_space_group_name_H-M    P1
_symmetry_Int_Tables_number       1
_space_group_crystal_system       triclinic
_cell_length_a                    10.899416
_cell_length_b                    10.930226
_cell_length_c                    9.716195
_cell_angle_alpha                 90.007669
_cell_angle_beta                  90.945706
_cell_angle_gamma                 89.8957
_cell_volume                      1157.36064138

loop_
_atom_site_label
_atom_site_type_symbol
_atom_type_description
_atom_site_fract_x
_atom_site_fract_y
_atom_site_fract_z
_atom_type_partial_charge
C1    C     C_R   0.501540 0.265442 0.500061 0.856380
C2    C     C_R   0.207410 0.412224 0.976695 -0.121600
C3    C     C_R   0.931989 0.487786 0.379132 -0.203264
C4    C     C_R   0.872050 0.502723 0.504064 -0.091660
C5    C     C_R   0.942084 0.515784 0.626898 0.008803
C6    C     C_R   0.068901 0.514396 0.620893 -0.237055
C7    C     C_R   0.128556 0.498074 0.495987 -0.090846
C8    C     C_R   0.058761 0.483293 0.373298 -0.011412
C9    C     C_R   0.845881 0.640389 0.811519 -0.108975
C10   C     C_R   0.794654 0.649464 0.941952 -0.191057
C11   C     C_R   0.786148 0.545760 0.025311 -0.171138
C12   C     C_R   0.262375 0.498573 0.498539 0.788989
C13   C     C_R   0.829566 0.432542 0.978962 0.293251
C14   C     C_R   0.881000 0.423463 0.848776 -0.139029
C15   C     C_R   0.888259 0.526982 0.764242 0.083258
C16   C     C_2   0.502364 0.933026 0.387020 -0.152515
C17   C     C_2   0.492330 0.866628 0.502207 -0.320738
C18   C     C_2   0.496781 0.067028 0.386932 -0.139707
C19   C     C_2   0.507828 0.133437 0.502393 -0.313694
C20   C     C_2   0.521440 0.403863 0.922923 -0.061274
C21   C     C_2   0.510956 0.401967 0.077462 -0.024251
C22   C     C_R   0.498543 0.734581 0.500070 0.849132
C23   C     C_R   0.737828 0.501354 0.501477 0.806301
C24   C     C_R   0.169245 0.530432 0.010916 -0.143139
C25   C     C_R   0.120843 0.553832 0.140540 -0.118221
C26   C     C_R   0.112621 0.459297 0.237537 0.144992
C27   C     C_R   0.151855 0.340965 0.203199 -0.057651
C28   C     C_R   0.198965 0.317641 0.072840 -0.123639
Cu1   Cu    Cu3+1 0.500020 0.500020 0.638630 0.941192
Cu2   Cu    Cu3+1 0.499980 0.499980 0.361370 0.951873
H1    H     H_    0.244183 0.393878 0.876028 0.149610
H2    H     H_    0.744465 0.553737 0.124872 0.170852
H3    H     H_    0.914233 0.335824 0.812833 0.151024
H4    H     H_    0.513150 0.888306 0.288076 0.164316
H5    H     H_    0.476586 0.907682 0.601678 0.145313
H6    H     H_    0.485052 0.111719 0.287699 0.160963
H7    H     H_    0.524394 0.092432 0.602310 0.144477
H8    H     H_    0.548322 0.319264 0.873659 0.171105
H9    H     H_    0.465572 0.576094 0.893347 0.193037
H10   H     H_    0.518332 0.313543 0.127134 0.172812
H11   H     H_    0.176818 0.604009 0.937121 0.123395
H12   H     H_    0.499934 0.582629 0.105837 0.188004
H13   H     H_    0.090153 0.645348 0.165573 0.123386
H14   H     H_    0.145279 0.267103 0.276994 0.118864
H15   H     H_    0.229100 0.226347 0.046388 0.120423
H16   H     H_    0.880074 0.476270 0.284885 0.193629
H17   H     H_    0.121080 0.526202 0.715474 0.158165
H18   H     H_    0.851736 0.720967 0.747117 0.125681
H19   H     H_    0.760815 0.736674 0.978149 0.143601
N1    N     N_2   0.498640 0.498660 0.846910 -0.287343
N2    N     N_2   0.498610 0.498630 0.153040 -0.287669
O1    O     O_R   0.500020 0.321960 0.617040 -0.591750
O2    O     O_R   0.499980 0.321920 0.382900 -0.573642
O3    O     O_R   0.319660 0.500030 0.617070 -0.593658
O4    O     O_R   0.319620 0.499990 0.382930 -0.567053
O5    O     O_R   0.500020 0.678080 0.617100 -0.584475
O6    O     O_R   0.499980 0.678040 0.382960 -0.585728
O7    O     O_R   0.680380 0.500010 0.617070 -0.559786
O8    O     O_R   0.680340 0.499970 0.382930 -0.577736
Br1   Br    Br    0.816400 0.288938 0.090039 -0.613122

loop_
_geom_bond_atom_site_label_1
_geom_bond_atom_site_label_2
_ccdc_geom_bond_type
C23   O7    A    
C20   N1    D    
Cu2   N2    S    
C24   C25   A    
Cu1   Cu2   S    
Cu1   O5    S    
C20   H8    S    
C9    C10   A    
C3    H16   S    
C17   C22   S    
C22   O5    A    
H12   N2    S    
Cu1   O3    S    
Cu2   O8    S    
C25   H13   S    
C22   O6    A    
C9    C15   A    
C7    C8    A    
C13   Br1   S    
C13   C14   A    
Cu1   O7    S    
C23   O8    A    
C24   H11   S    
C11   C13   A    
C26   C27   A    
C6    C7    A    
C21   H10   S    
C14   H3    S    
C5    C6    A    
C17   H5    S    
C6    H17   S    
C1    O1    A    
C11   H2    S    
C3    C8    A    
Cu1   N1    S    
C2    C24   A    
C7    C12   S    
Cu2   O2    S    
C28   H15   S    
C5    C15   S    
C12   O4    A    
C1    C19   S    
C10   C11   A    
C3    C4    A    
Cu2   O6    S    
C21   N2    D    
H9    N1    S    
C8    C26   S    
C20   C21   S    
C9    H18   S    
C16   C18   S    
C18   C19   D    
Cu2   O4    S    
C27   C28   A    
C4    C23   S    
C1    O2    A    
C14   C15   A    
C2    H1    S    
C2    C28   A    
C19   H7    S    
C16   H4    S    
C25   C26   A    
C10   H19   S    
C18   H6    S    
C27   H14   S    
C12   O3    A    
C16   C17   D    
C4    C5    A    
Cu1   O1    S    
