data_mof_unit_20996.cif
_audit_creation_date              2012-12-10T17:52:05-0500
_audit_creation_method            fapswitch 2.2
_symmetry_space_group_name_H-M    P1
_symmetry_Int_Tables_number       1
_space_group_crystal_system       triclinic
_cell_length_a                    14.917441
_cell_length_b                    14.682897
_cell_length_c                    19.274326
_cell_angle_alpha                 73.784197
_cell_angle_beta                  102.433055
_cell_angle_gamma                 116.209646
_cell_volume                      3616.15791416

loop_
_atom_site_label
_atom_site_type_symbol
_atom_type_description
_atom_site_fract_x
_atom_site_fract_y
_atom_site_fract_z
_atom_type_partial_charge
C1    C     C_R   0.880894 0.311804 0.507940 0.840726
C2    C     C_R   0.291472 0.826150 0.491756 -0.265075
C3    C     C_R   0.643516 0.067221 0.510593 0.075850
C4    C     C_R   0.365041 0.923298 0.501552 0.077243
C5    C     C_R   0.671059 0.005529 0.482150 -0.057018
C6    C     C_R   0.338303 0.985527 0.530000 -0.067702
C7    C     C_R   0.542815 0.032218 0.524981 0.032668
C8    C     C_R   0.466286 0.954804 0.489963 0.028117
C9    C     C_R   0.493267 0.914226 0.442354 0.094997
C10   C     C_R   0.516136 0.071023 0.573836 0.091419
C11   C     C_R   0.594251 0.928358 0.446372 -0.003041
C12   C     C_R   0.119848 0.689051 0.490214 0.785950
C13   C     C_R   0.415180 0.056720 0.570510 -0.019130
C14   C     C_R   0.683319 0.603421 0.352774 -0.322252
C15   C     C_R   0.313675 0.393836 0.647550 -0.356722
C16   C     C_R   0.007700 0.512150 0.630713 0.807743
C17   C     C_R   0.999849 0.499974 0.368060 0.830660
C18   C     C_R   0.779408 0.610468 0.382528 0.146628
C19   C     C_R   0.217543 0.384622 0.615922 0.135751
C20   C     C_R   0.718622 0.518701 0.498165 0.309721
C21   C     C_R   0.281259 0.481332 0.502177 0.305930
C22   C     C_R   0.625843 0.530765 0.471885 -0.039965
C23   C     C_R   0.814375 0.202186 0.504305 -0.023463
C24   C     C_R   0.373792 0.469413 0.529045 -0.016878
C25   C     C_R   0.604482 0.557661 0.395969 0.122514
C26   C     C_R   0.394007 0.441870 0.605107 0.099148
C27   C     C_R   0.549597 0.508050 0.516594 0.061483
C28   C     C_R   0.449680 0.490593 0.484734 0.067723
C29   C     C_R   0.427725 0.489406 0.410313 -0.177116
C30   C     C_R   0.570792 0.506687 0.591431 -0.180298
C31   C     C_R   0.503940 0.532797 0.364798 0.202610
C32   C     C_R   0.494115 0.464796 0.636641 0.176149
C33   C     C_R   0.111933 0.531399 0.752165 0.192866
C34   C     C_R   0.189413 0.799149 0.492810 -0.070830
C35   C     C_R   0.071191 0.597999 0.250219 0.141698
C36   C     C_R   0.111186 0.510735 0.828388 0.171510
C37   C     C_R   0.076387 0.602343 0.176633 0.181386
C38   C     C_R   0.032202 0.513568 0.856073 -0.019562
C39   C     C_R   0.018390 0.512471 0.147153 -0.010599
C40   C     C_R   0.957866 0.538443 0.807611 -0.229037
C41   C     C_R   0.951450 0.423461 0.188654 -0.217175
C42   C     C_R   0.955883 0.554107 0.732500 -0.057317
C43   C     C_R   0.941298 0.419656 0.259714 -0.058087
C44   C     C_R   0.024868 0.534068 0.705148 -0.159046
C45   C     C_R   0.774871 0.030598 0.483466 -0.008257
C46   C     C_R   0.003405 0.506170 0.291501 -0.120304
C47   C     C_R   0.023227 0.508407 0.072656 0.423096
C48   C     C_R   0.030000 0.504019 0.934229 0.430873
C49   C     C_3   0.211292 0.570928 0.721644 -0.764610
C50   C     C_3   0.136961 0.692537 0.283163 -0.838230
C51   C     C_3   0.475343 0.546233 0.283666 -0.832028
C52   C     C_3   0.521580 0.450213 0.717862 -0.827749
C53   C     C_3   0.274378 0.552748 0.429162 -0.790950
C54   C     C_3   0.721177 0.441000 0.568842 -0.763689
C55   C     C_2   0.132814 0.314000 0.659229 0.888819
C56   C     C_R   0.234949 0.968533 0.520721 0.025917
C57   C     C_2   0.857402 0.663474 0.331675 0.892400
C58   C     C_3   0.193325 0.484854 0.879215 -0.794381
C59   C     C_3   0.140768 0.703950 0.130330 -0.804522
C60   C     C_2   0.894243 0.609605 0.686480 0.853354
C61   C     C_2   0.864763 0.323593 0.298629 0.815828
C62   C     C_2   0.618432 0.875863 0.401677 0.856924
C63   C     C_2   0.391222 0.103341 0.619433 0.870162
C64   C     C_3   0.050670 0.859262 0.484332 -0.661114
C65   C     C_3   0.949487 0.171940 0.462954 -0.680059
C66   C     C_2   0.807930 0.945179 0.492765 0.888391
C67   C     C_R   0.845725 0.133944 0.486018 0.079331
C68   C     C_2   0.206427 0.050617 0.527093 0.842352
C69   C     C_3   0.421258 0.874792 0.377730 -0.836889
C70   C     C_3   0.589529 0.110942 0.637779 -0.829361
C71   C     C_R   0.159840 0.875532 0.500200 0.058985
C72   C     C_R   0.714907 0.166667 0.517705 -0.248082
Cu1   Cu    Cu3+1 0.081740 0.475680 0.518680 0.954960
Cu2   Cu    Cu3+1 0.918260 0.524320 0.481320 1.009538
H1    H     H_    0.670729 0.633921 0.295249 0.188585
H2    H     H_    0.210896 0.618895 0.665787 0.232032
H3    H     H_    0.272595 0.623221 0.754693 0.224378
H4    H     H_    0.130212 0.680458 0.341381 0.221271
H5    H     H_    0.217179 0.714829 0.278345 0.233901
H6    H     H_    0.116095 0.758424 0.254638 0.246620
H7    H     H_    0.392661 0.517788 0.269415 0.232537
H8    H     H_    0.508961 0.629785 0.257334 0.238254
H9    H     H_    0.502482 0.502015 0.261368 0.247283
H10   H     H_    0.604068 0.477574 0.732671 0.262880
H11   H     H_    0.494747 0.494725 0.740123 0.240413
H12   H     H_    0.324249 0.359955 0.704643 0.189671
H13   H     H_    0.486868 0.366588 0.743742 0.231301
H14   H     H_    0.349460 0.607646 0.412182 0.209818
H15   H     H_    0.230670 0.507218 0.386792 0.230092
H16   H     H_    0.241890 0.605916 0.429730 0.257690
H17   H     H_    0.759265 0.480218 0.614408 0.225335
H18   H     H_    0.644452 0.383831 0.581303 0.215205
H19   H     H_    0.757198 0.391027 0.568811 0.248312
H20   H     H_    0.078708 0.262105 0.756726 0.339955
H21   H     H_    0.893322 0.685755 0.231270 0.335534
H22   H     H_    0.160304 0.418135 0.924040 0.238661
H23   H     H_    0.350883 0.457452 0.386559 0.159725
H24   H     H_    0.234863 0.460936 0.851576 0.247220
H25   H     H_    0.247703 0.553343 0.901844 0.247003
H26   H     H_    0.126323 0.704459 0.071533 0.244712
H27   H     H_    0.123970 0.768123 0.135349 0.231231
H28   H     H_    0.221507 0.721502 0.148139 0.239808
H29   H     H_    0.780330 0.651815 0.679308 0.338080
H30   H     H_    0.789226 0.167961 0.313292 0.363306
H31   H     H_    0.697094 0.890006 0.323431 0.345014
H32   H     H_    0.414905 0.233200 0.650221 0.335763
H33   H     H_    0.005116 0.791934 0.523416 0.282879
H34   H     H_    0.647235 0.536155 0.615578 0.167017
H35   H     H_    0.037052 0.926263 0.486515 0.261204
H36   H     H_    0.023463 0.847394 0.428264 0.265203
H37   H     H_    0.981530 0.256027 0.438930 0.223882
H38   H     H_    0.000846 0.152727 0.509647 0.251511
H39   H     H_    0.946216 0.137742 0.417549 0.260948
H40   H     H_    0.785761 0.796462 0.539490 0.345989
H41   H     H_    0.130000 0.091827 0.578285 0.343225
H42   H     H_    0.394306 0.789465 0.386413 0.237711
H43   H     H_    0.356347 0.896516 0.366239 0.241866
H44   H     H_    0.459708 0.911246 0.327435 0.241933
H45   H     H_    0.904191 0.552065 0.828782 0.210008
H46   H     H_    0.656724 0.093509 0.646328 0.238438
H47   H     H_    0.613069 0.195736 0.630401 0.243850
H48   H     H_    0.553527 0.071171 0.689001 0.243299
H49   H     H_    0.905622 0.356212 0.164755 0.201295
H50   H     H_    0.314809 0.769305 0.485208 0.184926
H51   H     H_    0.691363 0.220213 0.529309 0.175348
H52   H     H_    0.230232 0.506162 0.721689 0.261863
N1    N     N_R   0.115991 0.542007 0.978353 -0.229114
N2    N     N_R   0.937253 0.468440 0.029185 -0.219057
N3    N     N_R   0.112748 0.543205 0.046545 -0.226246
N4    N     N_R   0.940598 0.466787 0.961193 -0.225509
N5    N     N_R   0.795420 0.560800 0.453240 -0.201447
N6    N     N_R   0.204580 0.439200 0.546760 -0.207411
O1    O     O_R   0.977910 0.338110 0.524620 -0.540421
O2    O     O_R   0.140563 0.315691 0.732484 -0.796307
O3    O     O_2   0.940831 0.724828 0.349892 -0.610190
O4    O     O_R   0.834056 0.645493 0.261073 -0.761602
O5    O     O_2   0.920225 0.667091 0.628307 -0.597819
O6    O     O_R   0.810674 0.603306 0.712548 -0.790339
O7    O     O_2   0.818025 0.328346 0.341379 -0.589661
O8    O     O_R   0.843196 0.227461 0.284037 -0.745402
O9    O     O_2   0.576230 0.781476 0.408813 -0.593662
O10   O     O_R   0.687269 0.934632 0.350366 -0.760558
O11   O     O_2   0.334333 0.047458 0.665852 -0.567007
O12   O     O_R   0.022090 0.661890 0.475380 -0.528332
O13   O     O_R   0.436345 0.210880 0.613594 -0.753417
O14   O     O_2   0.875909 0.956867 0.460929 -0.599522
O15   O     O_R   0.758432 0.849275 0.537867 -0.755663
O16   O     O_2   0.242627 0.137970 0.489688 -0.588089
O17   O     O_R   0.140781 0.028723 0.577332 -0.709940
O18   O     O_R   0.839850 0.379180 0.493080 -0.580451
O19   O     O_R   0.160150 0.620820 0.506920 -0.610715
O20   O     O_R   0.069040 0.479450 0.615630 -0.576260
O21   O     O_R   0.930960 0.520550 0.384370 -0.531867
O22   O     O_R   0.930990 0.520520 0.584090 -0.560544
O23   O     O_R   0.069010 0.479480 0.415910 -0.602256
O24   O     O_2   0.060001 0.247542 0.633124 -0.586062

loop_
_geom_bond_atom_site_label_1
_geom_bond_atom_site_label_2
_ccdc_geom_bond_type
C25   C31   A    
C7    C10   A    
C21   C53   S    
C69   H42   S    
C26   C32   A    
Cu1   Cu2   S    
C14   C18   A    
C58   H24   S    
C4    C8    A    
C11   C62   S    
C17   O21   A    
C50   H5    S    
C7    C8    A    
C39   C41   A    
C15   C19   A    
C49   H52   S    
H32   O13   S    
C47   N3    A    
C28   C29   A    
C35   C37   A    
C9    C69   S    
H40   O15   S    
C5    C11   A    
C3    C7    A    
C33   C49   S    
C69   H44   S    
C33   C36   A    
Cu2   O22   S    
C64   C71   S    
C23   C67   A    
C52   H10   S    
C58   H22   S    
C65   H37   S    
C54   H19   S    
Cu2   O12   S    
C68   O17   S    
C32   C52   S    
C70   H46   S    
C8    C9    A    
C65   C67   S    
C22   C25   A    
C45   C67   A    
C57   O4    S    
C30   C32   A    
C51   H7    S    
C38   C48   S    
C68   O16   D    
C60   O5    D    
C2    C34   A    
C40   C42   A    
Cu1   N6    S    
Cu2   N5    S    
Cu1   O19   S    
C27   C30   A    
C59   H26   S    
C41   C43   A    
C12   O19   A    
H41   O17   S    
C18   N5    A    
C42   C44   A    
C62   O10   S    
C1    O1    A    
C50   H4    S    
C43   C46   A    
C55   O24   D    
C59   H27   S    
C24   C28   A    
C47   N2    A    
C17   C46   S    
C4    C6    A    
H29   O6    S    
C42   C60   S    
H31   O10   S    
C61   O7    D    
C15   C26   A    
C56   C68   S    
C16   O22   A    
C5    C45   A    
H30   O8    S    
Cu2   O21   S    
C50   H6    S    
C2    C4    A    
N1    N3    A    
C21   N6    A    
C54   H18   S    
C31   C51   S    
C70   H48   S    
C18   C57   S    
C64   H36   S    
C13   C63   S    
C56   C71   A    
Cu1   O23   S    
C35   C50   S    
C49   H2    S    
C1    O18   A    
C16   O20   A    
C9    C11   A    
C51   H8    S    
C66   O15   S    
C37   C59   S    
C15   H12   S    
C10   C70   S    
C20   C54   S    
Cu1   O1    S    
C1    C23   S    
C22   C27   A    
Cu1   O20   S    
C53   H15   S    
C20   C22   A    
C65   H38   S    
C12   C34   S    
C17   O23   A    
C51   H9    S    
C27   C28   A    
C43   C61   S    
C64   H33   S    
C39   C47   S    
C19   C55   S    
C19   N6    A    
C16   C44   S    
C52   H11   S    
C30   H34   S    
C59   H28   S    
C65   H39   S    
C23   C72   A    
C52   H13   S    
C57   O3    D    
C58   H25   S    
C24   C26   A    
C6    C56   A    
C3    C5    A    
C10   C13   A    
N2    N4    A    
C61   O8    S    
C2    H50   S    
C20   N5    A    
C55   O2    S    
C36   C58   S    
C29   H23   S    
C72   H51   S    
C14   H1    S    
C41   H49   S    
C36   C38   A    
C3    C72   A    
C53   H16   S    
C54   H17   S    
C37   C39   A    
C48   N1    A    
C38   C40   A    
C48   N4    A    
C70   H47   S    
C64   H35   S    
C69   H43   S    
H21   O4    S    
H20   O2    S    
C49   H3    S    
C53   H14   S    
C14   C25   A    
C33   C44   A    
C66   O14   D    
C12   O12   A    
C40   H45   S    
C29   C31   A    
C21   C24   A    
C45   C66   S    
C63   O11   D    
Cu2   O18   S    
C62   O9    D    
C35   C46   A    
C34   C71   A    
C63   O13   S    
C60   O6    S    
C6    C13   A    
