data_mof_unit_54975.cif
_audit_creation_date              2012-12-11T15:39:33-0500
_audit_creation_method            fapswitch 2.2
_symmetry_space_group_name_H-M    P1
_symmetry_Int_Tables_number       1
_space_group_crystal_system       triclinic
_cell_length_a                    14.31062
_cell_length_b                    14.812876
_cell_length_c                    33.256492
_cell_angle_alpha                 97.848924
_cell_angle_beta                  90.674115
_cell_angle_gamma                 118.669368
_cell_volume                      6103.26165253

loop_
_atom_site_label
_atom_site_type_symbol
_atom_type_description
_atom_site_fract_x
_atom_site_fract_y
_atom_site_fract_z
_atom_type_partial_charge
C1    C     C_R   0.616188 0.910454 0.436881 0.574354
C2    C     C_R   0.711949 0.437195 0.949296 0.542534
C3    C     C_R   0.578639 0.828342 0.775104 -0.186259
C4    C     C_R   0.587679 0.844826 0.734957 -0.184311
C5    C     C_R   0.619891 0.788051 0.706916 -0.021789
C6    C     C_R   0.642325 0.712475 0.719200 0.287912
C7    C     C_R   0.634671 0.696604 0.760138 0.293443
C8    C     C_R   0.602639 0.755395 0.788256 -0.019854
C9    C     C_R   0.564624 0.736976 0.632460 -0.095061
C10   C     C_R   0.564211 0.765813 0.594254 -0.139874
C11   C     C_R   0.705067 0.941004 0.620622 -0.125903
C12   C     C_3   0.994899 0.556264 0.196805 -0.004027
C13   C     C_R   0.710122 0.739751 0.950381 0.530956
C14   C     C_3   0.093433 0.568108 0.219966 -0.377653
C15   C     C_3   0.226566 0.635868 0.351859 -0.010157
C16   C     C_3   0.260006 0.573267 0.375337 -0.359565
C17   C     C_3   0.903530 0.048374 0.403055 0.018931
C18   C     C_3   0.004311 0.040624 0.393974 -0.257695
C19   C     C_3   0.097739 0.146602 0.389477 -0.494424
C20   C     C_3   0.494096 0.741950 0.065220 0.020241
C21   C     C_3   0.423689 0.784414 0.084994 -0.283813
C22   C     C_3   0.383048 0.828576 0.054443 -0.472626
C23   C     C_3   0.550033 0.405065 0.601753 0.014721
C24   C     C_R   0.831689 0.438542 0.164664 0.269216
C25   C     C_3   0.471629 0.417448 0.574510 -0.246272
C26   C     C_3   0.530291 0.508408 0.551322 -0.490222
C27   C     C_3   0.474392 0.370566 0.816752 -0.015678
C28   C     C_3   0.382082 0.340443 0.785298 -0.358187
C29   C     C_3   0.032974 0.964595 0.911476 0.002197
C30   C     C_3   0.025007 0.037495 0.946496 -0.339893
C31   C     C_3   0.020789 0.973029 0.731179 -0.033844
C32   C     C_3   0.007719 0.042147 0.704315 -0.377088
C33   C     C_3   0.777551 0.705104 0.685932 0.014505
C34   C     C_3   0.805291 0.637986 0.655024 -0.373553
C35   C     C_R   0.829831 0.453808 0.124054 -0.112960
C36   C     C_3   0.759752 0.670381 0.792900 -0.016209
C37   C     C_3   0.806637 0.597318 0.785471 -0.370345
C38   C     C_3   0.554560 0.490587 0.306878 -0.005418
C39   C     C_3   0.563721 0.591764 0.296265 -0.245071
C40   C     C_3   0.459745 0.571951 0.274272 -0.486757
C41   C     C_R   0.773021 0.342445 0.245148 -0.096407
C42   C     C_R   0.764476 0.331649 0.286087 -0.177978
C43   C     C_R   0.722012 0.383893 0.311708 0.040641
C44   C     C_R   0.692084 0.451395 0.296310 0.282515
C45   C     C_R   0.704960 0.464434 0.255357 -0.119610
C46   C     C_R   0.740873 0.407036 0.229416 0.000336
C47   C     C_R   0.739438 0.412339 0.185590 0.035748
C48   C     C_R   0.591351 0.321684 0.363475 -0.085129
C49   C     C_R   0.593345 0.204879 0.456482 0.537902
C50   C     C_R   0.560357 0.279237 0.398932 -0.133420
C51   C     C_R   0.738554 0.304652 0.413495 -0.131202
C52   C     C_R   0.770092 0.348951 0.378223 -0.120840
C53   C     C_R   0.695903 0.355564 0.352492 0.068589
C54   C     C_R   0.632624 0.267207 0.423566 0.020989
C55   C     C_R   0.243362 0.878219 0.393264 0.036282
C56   C     C_R   0.246399 0.965850 0.379859 -0.182567
C57   C     C_R   0.221952 0.963848 0.339024 -0.139669
C58   C     C_R   0.703476 0.912821 0.658945 -0.142591
C59   C     C_R   0.191416 0.873608 0.310979 0.000769
C60   C     C_R   0.178779 0.783012 0.324157 -0.107821
C61   C     C_R   0.295198 0.892627 0.434336 0.560991
C62   C     C_R   0.206911 0.784482 0.365270 0.267557
C63   C     C_R   0.193388 0.805996 0.163797 -0.129233
C64   C     C_R   0.165274 0.783884 0.121948 -0.142189
C65   C     C_R   0.092584 0.902600 0.129448 -0.127865
C66   C     C_R   0.118970 0.923098 0.171530 -0.115321
C67   C     C_R   0.165685 0.871668 0.188831 0.035759
C68   C     C_1   0.174766 0.876574 0.232170 -0.038849
C69   C     C_R   0.631589 0.811533 0.665233 0.044015
C70   C     C_1   0.181016 0.876031 0.268228 -0.034020
C71   C     C_R   0.110653 0.828682 0.104557 0.018333
C72   C     C_R   0.630127 0.882720 0.394011 0.039642
C73   C     C_R   0.614050 0.905860 0.551753 0.548343
C74   C     C_R   0.540256 0.840942 0.365603 -0.189825
C75   C     C_R   0.551607 0.834395 0.324048 -0.148663
C76   C     C_R   0.652436 0.866140 0.310120 -0.011988
C77   C     C_R   0.742095 0.902547 0.337834 -0.103679
C78   C     C_R   0.732393 0.914381 0.380148 0.269848
C79   C     C_R   0.783139 0.917325 0.174971 -0.134630
C80   C     C_R   0.632287 0.868899 0.588355 0.026824
C81   C     C_R   0.799306 0.902003 0.133959 -0.172263
C82   C     C_R   0.612010 0.769665 0.118985 0.266854
C83   C     C_R   0.597574 0.783892 0.160490 -0.087728
C84   C     C_R   0.683504 0.855590 0.188465 -0.010816
C85   C     C_R   0.589761 0.199033 0.571084 0.547311
C86   C     C_1   0.671979 0.860416 0.231305 -0.031594
C87   C     C_1   0.663503 0.863145 0.267288 -0.032871
C88   C     C_R   0.715957 0.824204 0.105982 0.015244
C89   C     C_R   0.623161 0.247179 0.614454 0.009541
C90   C     C_R   0.568590 0.292961 0.636872 0.248564
C91   C     C_R   0.052250 0.781261 0.063826 0.541900
C92   C     C_R   0.582074 0.311048 0.679542 -0.075142
C93   C     C_R   0.651870 0.287629 0.699896 -0.011564
C94   C     C_R   0.713130 0.251732 0.677839 -0.144215
C95   C     C_R   0.699270 0.231980 0.635431 -0.179625
C96   C     C_R   0.758312 0.337443 0.845671 -0.178064
C97   C     C_R   0.289653 0.887251 0.548608 0.547840
C98   C     C_R   0.770548 0.368367 0.887777 -0.149706
C99   C     C_R   0.589034 0.340404 0.885993 -0.112308
C100  C     C_R   0.576989 0.310637 0.843531 0.277624
C101  C     C_R   0.663164 0.311878 0.823391 0.039542
C102  C     C_R   0.744171 0.486355 0.066025 0.546624
C103  C     C_1   0.659089 0.300188 0.779760 0.003835
C104  C     C_1   0.656248 0.294579 0.743335 -0.019132
C105  C     C_R   0.687788 0.374890 0.908115 -0.023912
C106  C     C_R   0.069465 0.755065 0.908697 0.032812
C107  C     C_R   0.099643 0.852058 0.896130 0.257576
C108  C     C_R   0.124411 0.863994 0.855936 -0.106710
C109  C     C_R   0.738229 0.447098 0.104758 -0.024520
C110  C     C_R   0.113650 0.779449 0.827829 -0.011863
C111  C     C_R   0.090132 0.685613 0.841039 -0.148883
C112  C     C_R   0.068978 0.673772 0.881251 -0.178479
C113  C     C_R   0.743148 0.789691 0.066258 0.541233
C114  C     C_R   0.174455 0.747655 0.760204 -0.127701
C115  C     C_R   0.179229 0.755864 0.719126 -0.166287
C116  C     C_R   0.129628 0.804858 0.701598 0.042008
C117  C     C_R   0.073275 0.845206 0.725302 0.266031
C118  C     C_R   0.066095 0.833291 0.766635 -0.118452
C119  C     C_R   0.119008 0.787385 0.784295 -0.002657
C120  C     C_R   0.192993 0.923947 0.650403 -0.077771
C121  C     C_R   0.645292 0.415860 0.125255 -0.138419
C122  C     C_R   0.231450 0.944236 0.612597 -0.137236
C123  C     C_R   0.171309 0.760055 0.591307 -0.125452
C124  C     C_R   0.021892 0.732290 0.947511 0.565861
C125  C     C_R   0.132164 0.739761 0.628996 -0.139859
C126  C     C_R   0.147046 0.822190 0.659300 0.061226
C127  C     C_R   0.225616 0.863056 0.583582 0.020583
C128  C     C_R   0.659436 0.745150 0.912774 0.016908
C129  C     C_R   0.583578 0.653764 0.887485 -0.147159
C130  C     C_R   0.557581 0.657336 0.847286 -0.102294
C131  C     C_R   0.607646 0.752038 0.832219 0.038015
C132  C     C_R   0.674825 0.844413 0.858746 -0.141265
C133  C     C_R   0.645908 0.398416 0.165234 -0.170038
C134  C     C_R   0.700340 0.841055 0.898715 -0.139126
Cr1   Cr    Cr6+3 0.424820 0.846020 0.489780 1.021388
Cr2   Cr    Cr6+3 0.657880 0.078580 0.505700 1.010624
Cr3   Cr    Cr6+3 0.417280 0.075360 0.504550 1.016517
Cr4   Cr    Cr6+3 0.903360 0.812540 0.006510 1.009451
Cr5   Cr    Cr6+3 0.914630 0.587050 0.006280 1.006137
Cr6   Cr    Cr6+3 0.673560 0.582680 0.008540 1.037748
H1    H     H_    0.573315 0.409264 0.111050 0.151206
H2    H     H_    0.902068 0.476544 0.108561 0.136407
H3    H     H_    0.781981 0.562007 0.665062 0.147672
H4    H     H_    0.753883 0.684809 0.826156 0.148148
H5    H     H_    0.816621 0.746225 0.783592 0.094119
H6    H     H_    0.812994 0.579638 0.752401 0.165504
H7    H     H_    0.887302 0.634263 0.801894 0.112380
H8    H     H_    0.754869 0.523630 0.796929 0.154207
H9    H     H_    0.499669 0.466663 0.331399 0.139602
H10   H     H_    0.515695 0.426100 0.280338 0.104903
H11   H     H_    0.582641 0.648474 0.324750 0.186414
H12   H     H_    0.629581 0.627022 0.276458 0.171403
H13   H     H_    0.230918 0.034057 0.329078 0.114529
H14   H     H_    0.438509 0.513864 0.246077 0.145013
H15   H     H_    0.469531 0.645307 0.265437 0.150683
H16   H     H_    0.393716 0.542839 0.294452 0.137754
H17   H     H_    0.879207 0.945853 0.124787 0.130999
H18   H     H_    0.849895 0.973444 0.196473 0.119033
H19   H     H_    0.819485 0.923972 0.326583 0.109499
H20   H     H_    0.461644 0.819620 0.375600 0.145657
H21   H     H_    0.519849 0.736909 0.170951 0.119396
H22   H     H_    0.481849 0.806549 0.302811 0.115044
H23   H     H_    0.847600 0.394366 0.903870 0.136655
H24   H     H_    0.851055 0.374204 0.370143 0.110576
H25   H     H_    0.477776 0.249751 0.405583 0.120816
H26   H     H_    0.825301 0.339229 0.830228 0.110332
H27   H     H_    0.768018 0.234289 0.693439 0.114963
H28   H     H_    0.743122 0.198001 0.619281 0.136235
H29   H     H_    0.523568 0.343221 0.901052 0.134253
H30   H     H_    0.535675 0.340455 0.696706 0.143123
H31   H     H_    0.044911 0.598378 0.890029 0.133695
H32   H     H_    0.095854 0.660664 0.635366 0.101376
H33   H     H_    0.785467 0.277742 0.297230 0.111303
H34   H     H_    0.224978 0.727027 0.701209 0.117782
H35   H     H_    0.215770 0.712082 0.773323 0.120062
H36   H     H_    0.795773 0.296204 0.432017 0.119078
H37   H     H_    0.148903 0.938432 0.846204 0.112685
H38   H     H_    0.018706 0.858621 0.785141 0.071245
H39   H     H_    0.206338 0.988740 0.673649 0.138295
H40   H     H_    0.273150 0.024349 0.607383 0.146294
H41   H     H_    0.081723 0.619406 0.819740 0.114385
H42   H     H_    0.164729 0.696021 0.569150 0.129856
H43   H     H_    0.550791 0.578888 0.897691 0.116262
H44   H     H_    0.800721 0.297335 0.225465 0.157935
H45   H     H_    0.757970 0.912805 0.917753 0.122176
H46   H     H_    0.754971 0.971235 0.684218 0.098343
H47   H     H_    0.179640 0.726208 0.103640 0.124569
H48   H     H_    0.569931 0.902720 0.725673 0.138963
H49   H     H_    0.555055 0.874478 0.796328 0.136767
H50   H     H_    0.504174 0.585792 0.827226 0.123827
H51   H     H_    0.508457 0.658553 0.637024 0.131335
H52   H     H_    0.506866 0.709047 0.569902 0.118056
H53   H     H_    0.713959 0.918357 0.847714 0.104898
H54   H     H_    0.574046 0.377374 0.180869 0.113285
H55   H     H_    0.757552 0.021224 0.617134 0.122432
H56   H     H_    0.684431 0.517408 0.243250 0.107837
H57   H     H_    0.531455 0.321773 0.343376 0.109295
H58   H     H_    0.230462 0.766538 0.176866 0.103577
H59   H     H_    0.957513 0.592922 0.217581 0.142610
H60   H     H_    0.020915 0.598141 0.170248 0.135795
H61   H     H_    0.132758 0.532428 0.200048 0.157883
H62   H     H_    0.151065 0.651976 0.229860 0.089156
H63   H     H_    0.070360 0.529201 0.247283 0.150392
H64   H     H_    0.295543 0.685012 0.335226 0.106083
H65   H     H_    0.157646 0.580322 0.329587 0.127167
H66   H     H_    0.192975 0.522354 0.392116 0.156073
H67   H     H_    0.282124 0.523713 0.353911 0.078278
H68   H     H_    0.330043 0.626844 0.397424 0.166449
H69   H     H_    0.150003 0.712528 0.302104 0.092219
H70   H     H_    0.920549 0.102359 0.432213 0.157304
H71   H     H_    0.884138 0.084472 0.379155 0.106501
H72   H     H_    0.026648 0.010581 0.419196 0.183783
H73   H     H_    0.988427 0.985125 0.365380 0.167194
H74   H     H_    0.078276 0.176901 0.363689 0.142087
H75   H     H_    0.169735 0.138662 0.383331 0.140753
H76   H     H_    0.116118 0.203167 0.417952 0.144465
H77   H     H_    0.446536 0.681066 0.038697 0.155158
H78   H     H_    0.562934 0.804635 0.052749 0.114081
H79   H     H_    0.354439 0.720814 0.096706 0.165915
H80   H     H_    0.274219 0.038709 0.400483 0.133715
H81   H     H_    0.470498 0.847351 0.111038 0.159554
H82   H     H_    0.451237 0.890503 0.041601 0.152963
H83   H     H_    0.336703 0.863285 0.069878 0.158190
H84   H     H_    0.330339 0.765768 0.029281 0.155129
H85   H     H_    0.614571 0.405396 0.583145 0.119498
H86   H     H_    0.585737 0.472426 0.627094 0.170567
H87   H     H_    0.425136 0.344782 0.552164 0.189033
H88   H     H_    0.414921 0.431100 0.593571 0.160514
H89   H     H_    0.583228 0.580747 0.572787 0.156449
H90   H     H_    0.471387 0.520888 0.534284 0.141630
H91   H     H_    0.097525 0.974375 0.190713 0.105197
H92   H     H_    0.579579 0.491270 0.529243 0.157983
H93   H     H_    0.548786 0.430471 0.805782 0.163679
H94   H     H_    0.458925 0.404868 0.846106 0.115466
H95   H     H_    0.305927 0.282182 0.795493 0.149499
H96   H     H_    0.375626 0.410506 0.781288 0.102323
H97   H     H_    0.395928 0.306511 0.755568 0.163270
H98   H     H_    0.951896 0.895466 0.903287 0.140014
H99   H     H_    0.058643 0.006909 0.885069 0.106368
H100  H     H_    0.103728 0.109048 0.954488 0.147710
H101  H     H_    0.964981 0.059890 0.937443 0.077508
H102  H     H_    0.050093 0.937858 0.117000 0.122503
H103  H     H_    0.000192 0.998181 0.973643 0.182784
H104  H     H_    0.097055 0.021907 0.751017 0.130265
H105  H     H_    0.952089 0.943834 0.750238 0.117832
H106  H     H_    0.935030 0.995355 0.682776 0.158692
H107  H     H_    0.000296 0.105552 0.723468 0.089712
H108  H     H_    0.078378 0.077234 0.686588 0.153579
H109  H     H_    0.826377 0.722507 0.714951 0.159120
H110  H     H_    0.800118 0.779421 0.674497 0.161297
H111  H     H_    0.762788 0.624194 0.624792 0.135479
H112  H     H_    0.892710 0.678362 0.652112 0.139948
O1    O     O_R   0.318160 0.824460 0.443680 -0.464783
O2    O     O_R   0.668160 0.499860 0.053480 -0.500652
O3    O     O_R   0.689170 0.693840 0.050110 -0.454640
O4    O     O_R   0.525040 0.857250 0.449830 -0.519501
O5    O     O_R   0.803860 0.812940 0.962540 -0.535698
O6    O     O_R   0.982950 0.787950 0.964120 -0.459400
O7    O     O_R   0.007050 0.649970 0.960540 -0.533010
O8    O     O_R   0.807910 0.482370 0.965590 -0.500956
O9    O     O_R   0.643310 0.460980 0.963840 -0.519977
O10   O     O_R   0.666140 0.657800 0.967020 -0.503827
O11   O     O_3   0.830520 0.660760 0.007110 -0.245737
O12   O     O_R   0.645130 0.163230 0.552140 -0.516219
O13   O     O_R   0.684760 0.998800 0.456360 -0.483899
O14   O     O_R   0.647540 0.166310 0.470260 -0.506071
O15   O     O_R   0.500960 0.181750 0.467450 -0.527000
O16   O     O_R   0.331100 0.981120 0.457080 -0.518200
O17   O     O_R   0.315560 0.821140 0.532010 -0.516898
O18   O     O_R   0.522630 0.854180 0.531710 -0.499937
O19   O     O_R   0.682160 0.995480 0.544690 -0.518196
O20   O     O_3   0.923520 0.449224 0.183822 -0.570092
O21   O     O_3   0.195548 0.695918 0.379562 -0.536604
O22   O     O_3   0.819766 0.949206 0.408296 -0.556122
O23   O     O_R   0.498360 0.178430 0.555780 -0.467962
O24   O     O_3   0.525830 0.694387 0.092659 -0.563248
O25   O     O_3   0.494565 0.311433 0.617789 -0.558833
O26   O     O_3   0.481286 0.280620 0.821509 -0.555139
O27   O     O_3   0.108436 0.935496 0.923710 -0.545273
O28   O     O_3   0.020608 0.888000 0.706003 -0.589993
O29   O     O_3   0.667212 0.650771 0.691167 -0.560337
O30   O     O_3   0.656700 0.621932 0.771742 -0.555554
O31   O     O_3   0.655816 0.507718 0.322150 -0.560780
O32   O     O_R   0.328690 0.978040 0.538950 -0.499110
O33   O     O_3   0.499990 0.999990 0.500010 -0.247053
O34   O     O_R   0.828710 0.851830 0.052170 -0.536645
O35   O     O_R   0.005980 0.823990 0.047210 -0.499066
O36   O     O_R   0.031900 0.688850 0.050170 -0.519830
O37   O     O_R   0.830940 0.518420 0.048680 -0.504690

loop_
_geom_bond_atom_site_label_1
_geom_bond_atom_site_label_2
_ccdc_geom_bond_type
C2    O8    A    
C55   C56   A    
Cr4   O6    S    
C93   C94   A    
C113  O3    A    
Cr5   O11   S    
C58   H46   S    
C41   C42   A    
C91   O35   A    
C111  C112  A    
C111  H41   S    
C33   C34   S    
C97   C127  S    
C16   H67   S    
C107  O27   S    
C95   H28   S    
C79   H18   S    
C12   H59   S    
C15   H64   S    
C23   O25   S    
C7    C8    A    
C19   H74   S    
C106  C112  A    
C49   O14   A    
C26   H90   S    
C122  H40   S    
C22   H82   S    
C50   C54   A    
C98   C105  A    
C21   H81   S    
C32   H108  S    
C90   O25   S    
C81   C88   A    
C60   C62   A    
C36   C37   S    
C120  H39   S    
C84   C86   S    
C18   C19   S    
C123  H42   S    
C16   H66   S    
C73   O18   A    
C3    H49   S    
C5    C6    A    
C28   H97   S    
Cr3   O16   S    
C120  C126  A    
C123  C125  A    
C112  H31   S    
Cr2   O12   S    
C106  C107  A    
C88   C113  S    
C49   C54   S    
C55   C62   A    
C39   H11   S    
Cr1   O17   S    
C116  C117  A    
Cr2   O14   S    
C19   H76   S    
C20   H77   S    
C64   C71   A    
C122  C127  A    
C15   O21   S    
C125  H32   S    
C13   O5    A    
C118  C119  A    
C100  C101  A    
C72   C78   A    
C130  H50   S    
C103  C104  T    
C27   H94   S    
C110  C111  A    
C13   C128  S    
C123  C127  A    
C43   C53   S    
C99   C100  A    
C124  O7    A    
C92   H30   S    
C133  H54   S    
Cr6   O11   S    
Cr5   O7    S    
Cr5   O36   S    
C5    C69   S    
C107  C108  A    
C41   H44   S    
C34   H111  S    
Cr1   O33   S    
Cr1   O4    S    
C11   C58   A    
C60   H69   S    
C38   H9    S    
C114  C119  A    
C35   C109  A    
C1    O4    A    
C51   H36   S    
C45   H56   S    
C48   C50   A    
C66   C67   A    
C129  H43   S    
Cr4   O5    S    
C124  O6    A    
C59   C60   A    
C101  C103  S    
Cr6   O10   S    
C96   C101  A    
C47   C133  A    
Cr4   O35   S    
C134  H45   S    
C40   H14   S    
C91   O36   A    
C94   C95   A    
C125  C126  A    
C50   H25   S    
Cr2   O33   S    
C93   C104  S    
C38   H10   S    
C23   H85   S    
C120  C122  A    
C98   H23   S    
C27   O26   S    
C33   O29   S    
C115  H34   S    
C49   O15   A    
C26   H89   S    
C48   C53   A    
C99   C105  A    
C63   C67   A    
C34   H3    S    
C1    C72   S    
C81   H17   S    
C74   C75   A    
C32   H107  S    
C67   C68   S    
C24   C35   A    
C121  H1    S    
C31   H104  S    
C38   C39   S    
C76   C77   A    
Cr3   O32   S    
C128  C129  A    
C72   C74   A    
C17   H70   S    
C73   O19   A    
C97   O32   A    
C39   C40   S    
C79   C81   A    
C85   C89   S    
C86   C87   T    
C11   H55   S    
Cr1   O1    S    
C35   H2    S    
C26   H92   S    
C25   C26   S    
C77   C78   A    
C44   O31   S    
C57   H13   S    
C39   H12   S    
C30   H101  S    
Cr1   O18   S    
C10   H52   S    
C51   C52   A    
C32   H106  S    
Cr2   O13   S    
C102  O2    A    
C62   O21   S    
C89   C95   A    
C82   O24   S    
C75   C76   A    
C20   O24   S    
C61   O16   A    
C29   C30   S    
C128  C134  A    
C113  O34   A    
C14   H62   S    
C90   C92   A    
C83   C84   A    
C96   C98   A    
Cr3   O33   S    
C18   H72   S    
C41   C46   A    
C117  O28   S    
Cr5   O8    S    
C20   C21   S    
C8    C131  S    
C51   C54   A    
C17   C18   S    
C12   H60   S    
C71   C91   S    
C40   H15   S    
Cr6   O3    S    
C37   H7    S    
C33   H109  S    
C31   O28   S    
C76   C87   S    
C15   H65   S    
C7    O30   S    
C110  C119  S    
C38   O31   S    
C28   H96   S    
C102  O37   A    
C118  H38   S    
C132  C134  A    
C114  H35   S    
C24   O20   S    
C3    C8    A    
C30   H103  S    
C75   H22   S    
C43   C44   A    
C21   H79   S    
C132  H53   S    
C37   H6    S    
C9    H51   S    
C96   H26   S    
C6    O29   S    
Cr6   O2    S    
C56   C57   A    
C78   O22   S    
C85   O12   A    
C3    C4    A    
C29   H98   S    
C56   H80   S    
C23   H86   S    
C85   O23   A    
C52   C53   A    
C129  C130  A    
C9    C10   A    
C25   H87   S    
C52   H24   S    
C46   C47   S    
C61   O1    A    
C25   H88   S    
C100  O26   S    
C24   C47   A    
C20   H78   S    
C31   C32   S    
C17   O22   S    
C44   C45   A    
C12   O20   S    
C30   H100  S    
C4    C5    A    
C17   H71   S    
C42   H33   S    
C94   H27   S    
C15   C16   S    
C34   H112  S    
C108  C110  A    
C58   C69   A    
C114  C115  A    
C6    C7    A    
C99   H29   S    
C29   O27   S    
C22   H83   S    
Cr4   O34   S    
C2    C105  S    
C31   H105  S    
C63   H58   S    
C74   H20   S    
C48   H57   S    
Cr6   O9    S    
C77   H19   S    
C121  C133  A    
C14   H61   S    
C9    C69   A    
C10   C80   A    
C130  C131  A    
C12   C14   S    
C65   H102  S    
C36   O30   S    
C65   C71   A    
C117  C118  A    
Cr3   O15   S    
C97   O17   A    
C115  C116  A    
C79   C84   A    
C22   H84   S    
C82   C88   A    
C14   H63   S    
C55   C61   S    
C92   C93   A    
C73   C80   S    
Cr3   O23   S    
C108  H37   S    
C18   H73   S    
Cr2   O19   S    
C19   H75   S    
C66   H91   S    
C23   C25   S    
C37   H8    S    
C36   H4    S    
C33   H110  S    
C13   O10   A    
C64   H47   S    
C57   C59   A    
C11   C80   A    
C27   H93   S    
C59   C70   S    
C63   C64   A    
C2    O9    A    
C45   C46   A    
C36   H5    S    
C1    O13   A    
Cr4   O11   S    
C68   C70   T    
C65   C66   A    
C42   C43   A    
C106  C124  S    
C27   C28   S    
C83   H21   S    
C16   H68   S    
C40   H16   S    
C102  C109  S    
C116  C126  S    
C109  C121  A    
C82   C83   A    
C89   C90   A    
C21   C22   S    
C28   H95   S    
C29   H99   S    
C4    H48   S    
C131  C132  A    
Cr5   O37   S    
