data_mof_unit_25277.cif
_audit_creation_date              2012-12-10T17:42:18-0500
_audit_creation_method            fapswitch 2.2
_symmetry_space_group_name_H-M    P1
_symmetry_Int_Tables_number       1
_space_group_crystal_system       triclinic
_cell_length_a                    15.154931
_cell_length_b                    13.675336
_cell_length_c                    10.775536
_cell_angle_alpha                 90.441241
_cell_angle_beta                  90.636098
_cell_angle_gamma                 91.233003
_cell_volume                      2232.49151934

loop_
_atom_site_label
_atom_site_type_symbol
_atom_type_description
_atom_site_fract_x
_atom_site_fract_y
_atom_site_fract_z
_atom_type_partial_charge
C1    C     C_R   0.328281 0.498513 0.497303 0.823147
C2    C     C_R   0.054808 0.672830 0.540085 -0.259246
C3    C     C_R   0.096105 0.584923 0.514424 0.094698
C4    C     C_R   0.494066 0.499392 0.260320 0.832854
C5    C     C_R   0.045770 0.499976 0.485573 -0.026941
C6    C     C_R   0.088028 0.411314 0.454800 0.114176
C7    C     C_R   0.034992 0.328348 0.419474 0.169740
C8    C     C_R   0.943297 0.334110 0.419992 -0.277176
C9    C     C_R   0.187497 0.582207 0.515844 -0.260467
C10   C     C_R   0.231056 0.495274 0.491720 -0.135051
C11   C     C_R   0.181373 0.408573 0.461414 0.114908
C12   C     C_3   0.591412 0.522849 0.935597 0.262432
C13   C     C_R   0.443865 0.792353 0.576195 0.003835
C14   C     C_R   0.443758 0.205894 0.575977 -0.004523
C15   C     C_R   0.556276 0.794093 0.424154 0.003533
C16   C     C_R   0.555998 0.207626 0.423747 0.004412
C17   C     C_R   0.557595 0.897223 0.422292 -0.005641
C18   C     C_R   0.557415 0.104542 0.422030 -0.004273
C19   C     C_R   0.671462 0.501209 0.503118 0.807102
C20   C     C_R   0.500008 0.948148 0.500093 0.087855
C21   C     C_R   0.499945 0.051837 0.499995 0.089286
C22   C     C_R   0.442516 0.895442 0.578032 -0.003639
C23   C     C_R   0.811108 0.421988 0.459108 -0.268827
C24   C     C_R   0.442421 0.102771 0.577865 -0.003103
C25   C     C_R   0.614812 0.950394 0.344799 -0.203165
C26   C     C_R   0.614698 0.053154 0.344631 -0.209223
C27   C     C_R   0.385265 0.049618 0.655467 -0.202981
C28   C     C_R   0.385314 0.946844 0.655553 -0.208812
C29   C     C_R   0.498124 0.500403 0.740297 0.796341
C30   C     C_3   0.436092 0.586165 0.072125 0.034523
C31   C     C_3   0.452466 0.398242 0.070184 -0.030712
C32   C     C_3   0.431842 0.583648 0.926700 -0.053755
C33   C     C_3   0.459005 0.398617 0.925854 0.031795
C34   C     C_R   0.768373 0.504140 0.503931 -0.100249
C35   C     C_3   0.587284 0.508953 0.078634 -0.494548
C36   C     C_3   0.490343 0.498132 0.122808 0.004405
C37   C     C_3   0.494720 0.501279 0.878550 -0.009128
C38   C     C_3   0.775150 0.662522 0.628545 -0.749032
C39   C     C_R   0.818182 0.587125 0.546619 0.119952
C40   C     C_R   0.910745 0.590709 0.527169 0.107417
C41   C     C_R   0.952924 0.503712 0.489181 -0.015330
C42   C     C_R   0.902418 0.419756 0.456484 0.097386
C43   C     C_R   0.963064 0.677292 0.544644 0.148094
Cu1   Cu    Cu3+1 0.499990 0.597420 0.500010 0.930958
Cu2   Cu    Cu3+1 0.499990 0.402580 0.500010 0.927498
H1    H     H_    0.473703 0.654120 0.099157 0.121524
H2    H     H_    0.659607 0.912534 0.284300 0.138000
H3    H     H_    0.659422 0.092410 0.284024 0.132940
H4    H     H_    0.340558 0.087510 0.716075 0.133498
H5    H     H_    0.340618 0.907587 0.716203 0.131061
H6    H     H_    0.456813 0.655825 0.893336 0.114597
H7    H     H_    0.508400 0.343140 0.901361 0.111848
H8    H     H_    0.621362 0.571201 0.128014 0.183137
H9    H     H_    0.624313 0.443190 0.107329 0.169090
H10   H     H_    0.772957 0.358170 0.427997 0.157746
H11   H     H_    0.268171 0.324866 0.366036 0.230978
H12   H     H_    0.495395 0.338657 0.104626 0.117634
H13   H     H_    0.256039 0.295225 0.520423 0.235289
H14   H     H_    0.050255 0.221540 0.291042 0.214232
H15   H     H_    0.049579 0.182645 0.439769 0.215083
H16   H     H_    0.324574 0.662427 0.115843 0.207923
H17   H     H_    0.304210 0.541805 0.095173 0.280883
H18   H     H_    0.347865 0.302314 0.093751 0.210754
H19   H     H_    0.359056 0.383222 0.208610 0.229476
H20   H     H_    0.307191 0.636429 0.898781 0.205202
H21   H     H_    0.342240 0.570135 0.780827 0.225190
H22   H     H_    0.368834 0.290538 0.872180 0.193081
H23   H     H_    0.093949 0.739176 0.556101 0.140470
H24   H     H_    0.321271 0.398469 0.897696 0.286014
H25   H     H_    0.612801 0.643225 0.819801 0.221857
H26   H     H_    0.593260 0.675382 0.967782 0.192121
H27   H     H_    0.644482 0.383652 0.905534 0.193237
H28   H     H_    0.662286 0.463988 0.788821 0.212202
H29   H     H_    0.820948 0.688709 0.703278 0.235901
H30   H     H_    0.751827 0.724699 0.572183 0.248293
H31   H     H_    0.719257 0.629636 0.679432 0.217234
H32   H     H_    0.948300 0.803336 0.640782 0.215248
H33   H     H_    0.944986 0.815272 0.484772 0.221413
H34   H     H_    0.225017 0.648531 0.538583 0.159607
H35   H     H_    0.903791 0.270148 0.393102 0.141223
H36   H     H_    0.400247 0.750641 0.635715 0.119422
H37   H     H_    0.400062 0.246244 0.635252 0.139094
H38   H     H_    0.600118 0.753714 0.365017 0.128594
H39   H     H_    0.599617 0.249316 0.364229 0.122534
N1    N     N_R   0.499930 0.743810 0.499950 -0.182033
N2    N     N_3   0.657997 0.456814 0.885053 -0.551690
N3    N     N_3   0.924187 0.771348 0.558350 -0.605905
N4    N     N_R   0.499930 0.256190 0.499950 -0.183975
N5    N     N_3   0.224140 0.317536 0.439319 -0.547389
N6    N     N_3   0.072687 0.237886 0.381115 -0.554225
N7    N     N_3   0.349577 0.592924 0.131974 -0.574186
N8    N     N_3   0.362344 0.376132 0.112439 -0.590871
N9    N     N_3   0.341198 0.572778 0.877697 -0.587685
N10   N     N_3   0.377069 0.366118 0.861177 -0.568618
N11   N     N_3   0.623582 0.623650 0.911688 -0.566779
O1    O     O_R   0.370250 0.582280 0.500040 -0.582059
O2    O     O_R   0.370250 0.417720 0.500040 -0.598717
O3    O     O_R   0.499970 0.582270 0.317700 -0.576011
O4    O     O_R   0.499970 0.417730 0.317700 -0.608858
O5    O     O_R   0.629730 0.582260 0.499980 -0.583050
O6    O     O_R   0.629730 0.417740 0.499980 -0.590511
O7    O     O_R   0.500000 0.582270 0.682320 -0.616745
O8    O     O_R   0.500000 0.417730 0.682320 -0.564842

loop_
_geom_bond_atom_site_label_1
_geom_bond_atom_site_label_2
_ccdc_geom_bond_type
H33   N3    S    
C4    C36   S    
C4    O3    A    
C35   H8    S    
C18   C21   A    
C19   O6    A    
C41   C42   A    
C35   C36   S    
C18   C26   A    
C24   C27   A    
C33   N10   S    
C7    C8    A    
C38   H31   S    
C33   H7    S    
C23   C42   A    
C3    C9    A    
C8    C42   A    
C2    H23   S    
C38   C39   S    
H26   N11   S    
C13   H36   S    
C16   H39   S    
C17   C20   A    
C29   O8    A    
C9    H34   S    
C14   C24   A    
C12   C37   S    
Cu2   O8    S    
Cu1   O3    S    
C40   C43   A    
H18   N8    S    
C29   O7    A    
H22   N10   S    
C31   C33   S    
C12   N11   S    
C9    C10   A    
C25   H2    S    
C26   H3    S    
C15   N1    A    
H20   N9    S    
C32   N9    S    
C22   C28   A    
C35   H9    S    
C28   H5    S    
C38   H30   S    
C34   C39   A    
Cu2   N4    S    
H24   N10   S    
Cu2   O4    S    
C1    O2    A    
C6    C11   A    
Cu1   O7    S    
C15   H38   S    
C25   C26   A    
C7    N6    S    
C33   C37   S    
H14   N6    S    
C30   C36   S    
C32   H6    S    
Cu1   O1    S    
C11   N5    S    
C2    C43   A    
C23   C34   A    
H17   N7    S    
C32   C37   S    
C12   C35   S    
Cu2   O6    S    
H21   N9    S    
C40   C41   A    
C20   C22   A    
C21   C24   A    
H19   N8    S    
C29   C37   S    
Cu1   N1    S    
C39   C40   A    
Cu1   Cu2   S    
C8    H35   S    
C38   H29   S    
C15   C17   A    
C5    C41   A    
H11   N5    S    
C30   H1    S    
C1    C10   S    
C30   N7    S    
C3    C5    A    
C19   C34   S    
H27   N2    S    
C19   O5    A    
C23   H10   S    
C6    C7    A    
H15   N6    S    
C12   N2    S    
C17   C25   A    
C31   H12   S    
C2    C3    A    
C43   N3    S    
Cu2   O2    S    
C30   C32   S    
Cu1   O5    S    
C5    C6    A    
C1    O1    A    
C13   C22   A    
H25   N11   S    
H13   N5    S    
H28   N2    S    
C10   C11   A    
C14   N4    A    
C27   H4    S    
C20   C21   A    
H32   N3    S    
C16   C18   A    
C31   N8    S    
C4    O4    A    
C13   N1    A    
C27   C28   A    
C16   N4    A    
C14   H37   S    
C31   C36   S    
H16   N7    S    
