data_mof_unit_49370.cif
_audit_creation_date              2013-03-05T15:44:58-0500
_audit_creation_method            fapswitch 2.2
_symmetry_space_group_name_H-M    P1
_symmetry_Int_Tables_number       1
_space_group_crystal_system       triclinic
_cell_length_a                    10.928019
_cell_length_b                    11.033631
_cell_length_c                    18.702042
_cell_angle_alpha                 90.229768
_cell_angle_beta                  89.859532
_cell_angle_gamma                 120.272752
_cell_volume                      1947.4925704

loop_
_atom_site_label
_atom_site_type_symbol
_atom_site_description
_atom_site_fract_x
_atom_site_fract_y
_atom_site_fract_z
_atom_type_partial_charge
O1    O     O_R   0.766500 0.250040 0.579790 -0.450327
O2    O     O_R   0.798570 0.516780 0.574780 -0.469282
C1    C     C_R   0.866431 0.636927 0.604227 0.594550
O3    O     O_R   0.984000 0.732950 0.581090 -0.465173
O4    O     O_R   0.218600 0.700890 0.574760 -0.443269
C2    C     C_R   0.271017 0.632100 0.603368 0.570728
O5    O     O_R   0.249390 0.515350 0.579940 -0.497017
O6    O     O_R   0.982790 0.280900 0.573700 -0.509499
C3    C     C_R   0.857530 0.222127 0.601876 0.560816
O7    O     O_R   0.766600 0.251130 0.419260 -0.461605
O8    O     O_R   0.798660 0.517790 0.425980 -0.521564
C4    C     C_R   0.861251 0.641815 0.400032 0.558770
O9    O     O_R   0.984100 0.734040 0.420570 -0.499460
O10   O     O_R   0.218690 0.701900 0.425960 -0.480291
C5    C     C_R   0.277771 0.638942 0.398540 0.561850
O11   O     O_R   0.249490 0.516440 0.419420 -0.474266
O12   O     O_R   0.982880 0.281910 0.424890 -0.411730
C6    C     C_R   0.889391 0.294310 0.388331 0.572536
Cr1   Cr    Cr6+3 0.791660 0.390250 0.499930 1.131075
Cr2   Cr    Cr6+3 0.098520 0.708290 0.500540 1.154748
Cr3   Cr    Cr6+3 0.109770 0.401430 0.499480 1.124363
O13   O     O_3   0.999980 0.499990 0.499980 -0.339487
C7    C     C_R   0.436794 0.761136 0.701235 -0.099936
H1    H     H_    0.519986 0.824214 0.663598 0.179017
C8    C     C_R   0.462801 0.781204 0.773948 -0.139216
H2    H     H_    0.566336 0.862273 0.792241 0.120699
C9    C     C_R   0.358706 0.691303 0.822651 0.086687
C10   C     C_R   0.228848 0.581278 0.799154 0.215419
C11   C     C_R   0.201069 0.564882 0.726479 -0.106653
H3    H     H_    0.099059 0.481536 0.707707 0.132090
C12   C     C_R   0.304909 0.655521 0.677902 0.016738
C13   C     C_R   0.855144 0.168229 0.823139 0.045695
C14   C     C_R   0.058089 0.127675 0.809737 -0.094386
C15   C     C_R   0.139044 0.091194 0.766704 -0.100623
C16   C     C_R   0.109175 0.065763 0.694023 0.231055
C17   C     C_R   0.004855 0.084912 0.663371 -0.051839
C18   C     C_R   0.926244 0.127387 0.705232 -0.057342
C19   C     C_R   0.945447 0.139456 0.780407 0.013114
H4    H     H_    0.224731 0.082712 0.790132 0.174096
H5    H     H_    0.088835 0.152100 0.865125 0.171159
C20   C     C_R   0.728145 0.168559 0.717389 -0.011667
C21   C     C_R   0.765267 0.207271 0.789013 -0.007272
C22   C     C_R   0.598043 0.153858 0.692735 0.289549
C23   C     C_R   0.530415 0.210526 0.732581 -0.058241
C24   C     C_R   0.584187 0.273033 0.798425 -0.168694
C25   C     C_R   0.700986 0.271832 0.826720 -0.060960
C26   C     C_R   0.826207 0.154047 0.673134 -0.022352
H6    H     H_    0.983412 0.063336 0.606805 0.180405
H7    H     H_    0.737908 0.316585 0.879392 0.178416
H8    H     H_    0.436007 0.206598 0.712658 0.176031
H9    H     H_    0.531383 0.316754 0.829060 0.124654
C27   C     C_R   0.703750 0.595354 0.707631 -0.020784
C28   C     C_R   0.691253 0.597447 0.781557 -0.184173
H10   H     H_    0.588033 0.566183 0.804160 0.125068
C29   C     C_R   0.811315 0.650123 0.826053 -0.012265
C30   C     C_R   0.946332 0.697295 0.796894 0.010585
C31   C     C_R   0.958448 0.693680 0.723614 -0.102140
H11   H     H_    0.061987 0.726169 0.701168 0.204175
C32   C     C_R   0.839998 0.646786 0.678847 0.022577
C33   C     C_R   0.389189 0.607356 0.294294 -0.112511
H12   H     H_    0.407144 0.532260 0.322600 0.196586
C34   C     C_R   0.387452 0.603616 0.221294 -0.125397
H13   H     H_    0.407426 0.526760 0.196325 0.168154
C35   C     C_R   0.363538 0.697085 0.181276 -0.022478
C36   C     C_R   0.341750 0.798266 0.216632 -0.042972
C37   C     C_R   0.341339 0.800223 0.292356 0.000786
C38   C     C_R   0.350125 0.692767 0.330097 0.026679
C39   C     C_R   0.785507 0.277989 0.269872 -0.186020
H14   H     H_    0.711624 0.302230 0.295699 0.133015
C40   C     C_R   0.777190 0.256274 0.196283 0.006714
C41   C     C_R   0.863529 0.208981 0.163510 -0.000912
C42   C     C_R   0.982610 0.228844 0.200272 -0.089578
H15   H     H_    0.062158 0.216227 0.172448 0.214419
C43   C     C_R   0.997262 0.260214 0.273296 0.226065
C44   C     C_R   0.889940 0.272657 0.310203 0.015897
C45   C     C_R   0.885537 0.809054 0.305847 0.011101
C46   C     C_R   0.890158 0.822851 0.231736 0.169360
C47   C     C_R   0.786065 0.712599 0.189315 0.029606
C48   C     C_R   0.687665 0.586440 0.222372 -0.184247
H16   H     H_    0.605859 0.501125 0.191566 0.148036
C49   C     C_R   0.701226 0.565132 0.294539 -0.183867
H17   H     H_    0.633886 0.462298 0.317310 0.151820
C50   C     C_R   0.806639 0.673940 0.335533 0.012222
O14   O     O_R   0.895110 0.806860 0.920430 -0.525780
O15   O     O_R   0.872260 0.046970 0.925000 -0.510774
C51   C     C_R   0.810904 0.106574 0.895654 0.556226
O16   O     O_R   0.691430 0.085060 0.918550 -0.509967
O17   O     O_R   0.451490 0.822460 0.925250 -0.489683
C52   C     C_R   0.398502 0.702133 0.896241 0.595599
O18   O     O_R   0.413330 0.603360 0.920440 -0.493881
O19   O     O_R   0.676110 0.626250 0.926750 -0.499490
C53   C     C_R   0.797389 0.689703 0.897977 0.539912
O20   O     O_R   0.895350 0.809870 0.080950 -0.441831
O21   O     O_R   0.872490 0.049760 0.073800 -0.487901
C54   C     C_R   0.812679 0.117036 0.099360 0.577608
O22   O     O_R   0.691680 0.088070 0.079070 -0.461882
O23   O     O_R   0.451720 0.825250 0.074050 -0.504697
C55   C     C_R   0.399042 0.705972 0.105263 0.528610
O24   O     O_R   0.413580 0.606370 0.080960 -0.515548
O25   O     O_R   0.676340 0.629040 0.075550 -0.489551
C56   C     C_R   0.775575 0.733005 0.112348 0.588781
Cr4   Cr    Cr6+3 0.874790 0.925890 0.000070 1.069634
Cr5   Cr    Cr6+3 0.574120 0.948670 0.999300 1.081366
Cr6   Cr    Cr6+3 0.551420 0.625320 0.000920 1.057740
O26   O     O_3   0.666780 0.833290 0.000090 -0.300227
Cl1   Cl    Cl    0.505919 0.048699 0.618074 -0.488451
C57   C     C_2   0.573718 0.544958 0.663763 0.231906
H18   H     H_    0.470406 0.487625 0.689128 0.108274
O27   O     O_2   0.579370 0.569967 0.599941 -0.467321
C58   C     C_2   0.076012 0.755334 0.841653 0.273336
H19   H     H_    0.069044 0.726010 0.897460 0.158951
O28   O     O_2   0.192073 0.837958 0.816818 -0.515406
C59   C     C_2   0.315592 0.896687 0.174095 0.271668
H20   H     H_    0.253653 0.860230 0.125304 0.151824
O29   O     O_2   0.366684 0.019607 0.191287 -0.497823
C60   C     C_2   0.329708 0.911843 0.331163 0.313392
H21   H     H_    0.259159 0.946928 0.312128 0.148184
O30   O     O_2   0.401703 0.967529 0.384195 -0.434493
C61   C     C_2   0.679794 0.288073 0.156321 0.291242
H22   H     H_    0.586742 0.278372 0.182613 0.143281
O31   O     O_2   0.706689 0.332898 0.095251 -0.474933
Cl2   Cl    Cl    0.150056 0.277784 0.313977 -0.595973
C62   C     C_2   0.969327 0.934300 0.351611 0.325964
H23   H     H_    0.076668 0.011337 0.337220 0.196655
O32   O     O_2   0.918782 0.950281 0.406699 -0.447028
Cl3   Cl    Cl    0.037792 0.971704 0.194512 -0.617278
Cl4   Cl    Cl    0.099359 0.468691 0.860340 -0.686591
Cl5   Cl    Cl    0.202039 0.011333 0.639617 -0.521272

loop_
_geom_bond_atom_site_label_1
_geom_bond_atom_site_label_2
_geom_bond_distance
_ccdc_geom_bond_type
C29   C30   1.403336 A    
C6    C44   1.480099 S    
O14   Cr4   2.066224 S    
C20   C21   1.401670 A    
C54   O22   1.252988 A    
O19   Cr6   1.938479 S    
O23   C55   1.282516 A    
C62   H23   1.079778 S    
O4    Cr2   1.942479 S    
C28   H10   1.084698 S    
C60   H21   1.083674 S    
C39   C44   1.395390 A    
C25   H7    1.083601 S    
O8    Cr1   1.950753 S    
C11   H3    1.085076 S    
C37   C60   1.486565 S    
C10   C11   1.384510 A    
O4    C2    1.278105 A    
C62   O32   1.221310 D    
C41   C54   1.484071 S    
C24   H9    1.082016 S    
C5    O11   1.287406 A    
O25   Cr6   1.940546 S    
C30   C31   1.378887 A    
Cr4   O26   1.967087 S    
C33   C34   1.365602 A    
C15   C16   1.392726 A    
C21   C25   1.412887 A    
C58   H19   1.085035 S    
C34   C35   1.403884 A    
C16   C17   1.385607 A    
C33   C38   1.384875 A    
C39   H14   1.082364 S    
C7    H1    1.081296 S    
C17   H6    1.083366 S    
C40   C41   1.424490 A    
C13   C19   1.422423 A    
C18   C26   1.403862 A    
C40   C61   1.482241 S    
C10   Cl4   1.756742 S    
C46   C47   1.415878 A    
C35   C55   1.463275 S    
C2    C12   1.431848 S    
C13   C51   1.486028 S    
Cr3   O13   1.984318 S    
C47   C56   1.471484 S    
C57   O27   1.220541 D    
O21   C54   1.300576 A    
C45   C50   1.407996 A    
C30   C58   1.485141 S    
Cr6   O26   1.984582 S    
C49   C50   1.399532 A    
C14   C15   1.394753 A    
C58   O28   1.220728 D    
C28   C29   1.408685 A    
O1    Cr1   2.070562 S    
C14   H5    1.080154 S    
C43   C44   1.424214 A    
C15   H4    1.080860 S    
O10   Cr2   1.938701 S    
Cr1   O13   1.967104 S    
O1    C3    1.251789 A    
C45   C46   1.392985 A    
C27   C57   1.485568 S    
C42   C43   1.397127 A    
O20   C56   1.287753 A    
O19   C53   1.265009 A    
C48   C49   1.391940 A    
C51   O16   1.276694 A    
O6    C3    1.294664 A    
C8    H2    1.084595 S    
O15   C51   1.277723 A    
C49   H17   1.082032 S    
C4    C50   1.468715 S    
C33   H12   1.083146 S    
C22   Cl1   1.767953 S    
C7    C12   1.389691 A    
C22   C23   1.397108 A    
C18   C19   1.417815 A    
C27   C32   1.405458 A    
O7    Cr1   2.065671 S    
C57   H18   1.086070 S    
C5    C38   1.464240 S    
C34   H13   1.080624 S    
O12   C6    1.294245 A    
C20   C26   1.423582 A    
Cr5   O26   1.986496 S    
C4    O9    1.267807 A    
O18   Cr6   2.059359 S    
O23   Cr5   1.941010 S    
C61   O31   1.221372 D    
O16   Cr5   2.062137 S    
C43   Cl2   1.755875 S    
C29   C53   1.443787 S    
Cr2   O13   1.986575 S    
C3    C26   1.484595 S    
C36   C37   1.416293 A    
C1    O3    1.260543 A    
O17   Cr5   1.940384 S    
C27   C28   1.390209 A    
C20   C22   1.424917 A    
C59   H20   1.085431 S    
C23   H8    1.077856 S    
C17   C18   1.403636 A    
O24   Cr6   2.056057 S    
O9    Cr2   2.061982 S    
O2    Cr1   1.947533 S    
C47   C48   1.403797 A    
C45   C62   1.482978 S    
C36   C59   1.488251 S    
C23   C24   1.387605 A    
C42   H15   1.079393 S    
O6    Cr3   1.940522 S    
O20   Cr4   2.069879 S    
C61   H22   1.084219 S    
O11   Cr3   2.057670 S    
C2    O5    1.263430 A    
C8    C9    1.404318 A    
C14   C19   1.413583 A    
C35   C36   1.414762 A    
O2    C1    1.271054 A    
C41   C42   1.389169 A    
C11   C12   1.404007 A    
O5    Cr3   2.057838 S    
C37   C38   1.426518 A    
C31   H11   1.083926 S    
O7    C6    1.309958 A    
O25   C56   1.307135 A    
C60   O30   1.221363 D    
C9    C52   1.430652 S    
C7    C8    1.383872 A    
C16   Cl5   1.740806 S    
O12   Cr3   1.938790 S    
C31   C32   1.403848 A    
O15   Cr4   1.951694 S    
C48   H16   1.080259 S    
O3    Cr2   2.059224 S    
C24   C25   1.389173 A    
O17   C52   1.270013 A    
O21   Cr4   1.946618 S    
C39   C40   1.391319 A    
C55   O24   1.269342 A    
O22   Cr5   2.059263 S    
C9    C10   1.393746 A    
C13   C21   1.410473 A    
O10   C5    1.268893 A    
O14   C53   1.262442 A    
C52   O18   1.265375 A    
C46   Cl3   1.765521 S    
O8    C4    1.279050 A    
C59   O29   1.220015 D    
C1    C32   1.439208 S    
