data_mof_unit_66493.cif
_audit_creation_date              2012-12-10T16:44:51-0500
_audit_creation_method            fapswitch 2.2
_symmetry_space_group_name_H-M    P1
_symmetry_Int_Tables_number       1
_space_group_crystal_system       triclinic
_cell_length_a                    18.473537
_cell_length_b                    18.450415
_cell_length_c                    18.424032
_cell_angle_alpha                 119.695888
_cell_angle_beta                  119.645873
_cell_angle_gamma                 90.491537
_cell_volume                      4465.40335943

loop_
_atom_site_label
_atom_site_type_symbol
_atom_type_description
_atom_site_fract_x
_atom_site_fract_y
_atom_site_fract_z
_atom_type_partial_charge
C1    C     C_R   0.138257 0.361431 0.998632 0.514987
C2    C     C_R   0.535389 0.284079 0.866046 -0.050016
C3    C     C_R   0.592215 0.342313 0.875053 -0.166802
C4    C     C_R   0.861596 0.638885 0.999983 0.525761
C5    C     C_R   0.680296 0.347949 0.917968 -0.115094
C6    C     C_2   0.724349 0.781773 0.943662 -0.160032
C7    C     C_2   0.698554 0.811012 0.006518 -0.115403
C8    C     C_2   0.786588 0.731927 0.948513 0.066642
C9    C     C_2   0.803057 0.691441 0.996679 -0.035888
C10   C     C_2   0.723261 0.280868 0.443686 -0.155921
C11   C     C_2   0.691276 0.192150 0.387749 -0.092871
C12   C     C_R   0.820850 0.156655 0.088645 -0.111613
C13   C     C_2   0.777083 0.337115 0.556022 -0.156653
C14   C     C_2   0.808784 0.304600 0.612278 -0.092331
C15   C     C_2   0.333432 0.278637 0.041337 0.250568
C16   C     C_R   0.138242 0.638748 0.277201 0.537809
C17   C     C_2   0.306730 0.194241 0.011347 0.142596
C18   C     C_2   0.279425 0.336071 0.054795 -0.136989
C19   C     C_2   0.191579 0.305016 0.988213 -0.091715
C20   C     C_2   0.218366 0.776747 0.938890 -0.158868
C21   C     C_2   0.306280 0.811042 0.006674 -0.090005
C22   C     C_2   0.162322 0.724981 0.942970 -0.157681
C23   C     C_R   0.785403 0.202911 0.043910 -0.037803
C24   C     C_2   0.195187 0.688953 0.994876 -0.089093
C25   C     C_2   0.219796 0.780322 0.557840 -0.155693
C26   C     C_2   0.308170 0.810816 0.612503 -0.112239
C27   C     C_2   0.162092 0.730289 0.445673 0.066956
C28   C     C_R   0.861759 0.361449 0.722948 0.506634
C29   C     C_2   0.193451 0.691128 0.388349 -0.034312
C30   C     C_R   0.638285 0.138368 0.277058 0.505273
C31   C     C_R   0.361813 0.861974 0.723032 0.519423
C32   C     C_R   0.639110 0.861982 0.000699 0.511773
C33   C     C_R   0.361635 0.138662 0.000603 0.566580
C34   C     C_R   0.842162 0.258765 0.047433 0.048337
C35   C     C_R   0.360531 0.861074 0.000822 0.512858
C36   C     C_R   0.639621 0.139690 0.999545 0.525750
C37   C     C_R   0.139507 0.638907 0.999231 0.513453
C38   C     C_R   0.860343 0.360236 0.000390 0.574070
C39   C     C_R   0.934314 0.268144 0.098510 0.267989
C40   C     C_R   0.965814 0.219784 0.140418 -0.103507
C41   C     C_R   0.909498 0.164614 0.135180 -0.153601
C42   C     C_R   0.694639 0.194630 0.997297 0.006953
C43   C     C_R   0.657850 0.239969 0.951380 0.007757
C44   C     C_R   0.715030 0.297916 0.957632 -0.043610
C45   C     C_R   0.805391 0.304805 0.002286 0.021057
C46   C     C_R   0.565650 0.230510 0.899618 0.265355
H1    H     H_    0.567432 0.382029 0.846521 0.118016
H2    H     H_    0.185734 0.787796 0.879265 0.158595
H3    H     H_    0.340563 0.805284 0.070146 0.107675
H4    H     H_    0.092098 0.715355 0.900598 0.161082
H5    H     H_    0.263915 0.693446 0.033659 0.107373
H6    H     H_    0.187252 0.794757 0.596598 0.155572
H7    H     H_    0.343276 0.801582 0.577527 0.104523
H8    H     H_    0.261866 0.694475 0.422534 0.070602
H9    H     H_    0.035013 0.225687 0.178658 0.101406
H10   H     H_    0.934956 0.128359 0.168510 0.120558
H11   H     H_    0.780686 0.113657 0.088632 0.126301
H12   H     H_    0.723073 0.800902 0.066495 0.106746
H13   H     H_    0.466125 0.277970 0.829047 0.143361
H14   H     H_    0.720687 0.392792 0.920183 0.123187
H15   H     H_    0.701389 0.797180 0.887763 0.156563
H16   H     H_    0.862814 0.791333 0.930616 0.226564
H17   H     H_    0.779048 0.697614 0.821715 0.228522
H18   H     H_    0.420928 0.373818 0.079973 0.319592
H19   H     H_    0.186461 0.102157 0.924238 0.239400
H20   H     H_    0.246380 0.141288 0.049048 0.229480
H21   H     H_    0.053779 0.323635 0.146521 0.313503
H22   H     H_    0.067568 0.787579 0.429061 0.228067
H23   H     H_    0.770918 0.693697 0.033075 0.070953
H24   H     H_    0.043795 0.693506 0.419842 0.232501
H25   H     H_    0.506179 0.109732 0.834991 0.316478
H26   H     H_    0.708914 0.314568 0.406227 0.161668
H27   H     H_    0.701991 0.156075 0.421776 0.108573
H28   H     H_    0.791669 0.408115 0.593187 0.158913
H29   H     H_    0.797786 0.234670 0.578499 0.108631
H30   H     H_    0.313490 0.405916 0.117190 0.137385
H31   H     H_    0.157451 0.236889 0.921446 0.139808
N1    N     N_3   0.828511 0.726745 0.898833 -0.576829
N2    N     N_3   0.228176 0.159436 0.998508 -0.676983
N3    N     N_3   0.070608 0.723433 0.398943 -0.572623
O1    O     O_3   0.000000 0.500000 0.000000 -0.455490
O2    O     O_R   0.325040 0.054120 0.939900 -0.562222
O3    O     O_R   0.444330 0.884140 0.060080 -0.540637
O4    O     O_R   0.054210 0.325030 0.939940 -0.523170
O5    O     O_R   0.615830 0.175840 0.060080 -0.493522
O6    O     O_R   0.324160 0.884140 0.939910 -0.546222
O7    O     O_R   0.615850 0.055700 0.939930 -0.560525
O8    O     O_R   0.614980 0.885710 0.939940 -0.544554
O9    O     O_R   0.445830 0.174930 0.060060 -0.469498
O10   O     O_R   0.614300 0.054120 0.229160 -0.543279
O11   O     O_R   0.325070 0.885060 0.770830 -0.538148
O12   O     O_R   0.054160 0.614240 0.229150 -0.484807
O13   O     O_R   0.885070 0.614240 0.060060 -0.556294
O14   O     O_R   0.174980 0.614900 0.229170 -0.552412
O15   O     O_R   0.885740 0.445830 0.770840 -0.542632
O16   O     O_R   0.175880 0.615810 0.060090 -0.543406
O17   O     O_R   0.884210 0.324110 0.939920 -0.505441
O18   O     O_R   0.055710 0.615810 0.939920 -0.539405
O19   O     O_R   0.884190 0.444260 0.060070 -0.532303
O20   O     O_3   0.412997 0.312288 0.060807 -0.662314
O21   O     O_3   0.993479 0.325857 0.109656 -0.694503
O22   O     O_3   0.502355 0.167815 0.876686 -0.680492
O23   O     O_R   0.885120 0.325030 0.770840 -0.546769
O24   O     O_R   0.175010 0.445830 0.060100 -0.541926
O25   O     O_R   0.885710 0.614900 0.939900 -0.497283
O26   O     O_3   0.500040 0.999960 0.000000 -0.451889
O27   O     O_R   0.614930 0.174930 0.229160 -0.545195
O28   O     O_R   0.445880 0.885710 0.770850 -0.539871
O29   O     O_R   0.614330 0.885060 0.060100 -0.538099
Zn1   Zn    Zn3+2 0.956610 0.542450 0.085830 0.971806
Zn2   Zn    Zn3+2 0.129220 0.543380 0.085850 0.947118
Zn3   Zn    Zn3+2 0.957530 0.543380 0.914160 0.943438
Zn4   Zn    Zn3+2 0.956640 0.370790 0.914170 0.967501
Zn5   Zn    Zn3+2 0.543440 0.957510 0.914170 0.936268
Zn6   Zn    Zn3+2 0.542510 0.956570 0.085840 0.935866
Zn7   Zn    Zn3+2 0.370820 0.956570 0.914150 0.939379
Zn8   Zn    Zn3+2 0.543410 0.129170 0.085830 0.994930

loop_
_geom_bond_atom_site_label_1
_geom_bond_atom_site_label_2
_ccdc_geom_bond_type
H22   N3    S    
C15   C18   S    
O4    Zn4   S    
H19   N2    S    
C30   O27   A    
C27   C29   D    
C31   O28   A    
C36   C42   S    
C15   O20   S    
C30   O10   A    
O1    Zn1   S    
C21   H3    S    
C2    C46   A    
C1    O4    A    
H20   N2    S    
C46   O22   S    
C12   C23   A    
C23   C42   A    
O26   Zn5   S    
C28   O15   A    
C6    H15   S    
O23   Zn4   S    
C9    H23   S    
O15   Zn3   S    
C35   O6    A    
C29   H8    S    
C32   O8    A    
O14   Zn2   S    
C17   N2    S    
O11   Zn7   S    
O6    Zn7   S    
C18   C19   D    
O28   Zn5   S    
C19   H31   S    
C38   C45   S    
C5    C44   A    
O1    Zn2   S    
C11   C30   S    
C8    C9    D    
O7    Zn5   S    
C33   O2    A    
C7    H12   S    
O13   Zn1   S    
C22   H4    S    
C40   H9    S    
C24   H5    S    
C26   C31   S    
C13   C14   D    
C8    N1    S    
C17   C33   S    
C38   O17   A    
C37   O18   A    
C39   O21   S    
C36   O7    A    
O16   Zn2   S    
C1    C19   S    
O18   Zn3   S    
C32   O29   A    
H24   N3    S    
C34   C39   A    
O3    Zn6   S    
C27   N3    S    
C11   H27   S    
C39   C40   A    
C35   O3    A    
C2    H13   S    
C6    C8    S    
C16   C29   S    
O19   Zn1   S    
C37   O16   A    
O26   Zn7   S    
C43   C44   A    
C41   H10   S    
C12   C41   A    
C33   O9    A    
O1    Zn3   S    
C23   C34   A    
C24   C37   S    
C34   C45   A    
O10   Zn6   S    
C13   H28   S    
O5    Zn8   S    
C1    O24   A    
C20   H2    S    
C12   H11   S    
C40   C41   A    
H25   O22   S    
C20   C22   S    
O25   Zn3   S    
C16   O12   A    
C31   O11   A    
O26   Zn8   S    
C22   C24   D    
C42   C43   A    
O17   Zn4   S    
C26   H7    S    
C44   C45   A    
H21   O21   S    
C15   C17   D    
C18   H30   S    
C7    C32   S    
C5    H14   S    
H16   N1    S    
O9    Zn8   S    
C38   O19   A    
C3    C5    A    
C10   C13   S    
O24   Zn2   S    
C6    C7    D    
C21   C35   S    
C36   O5    A    
C25   C27   S    
C4    O25   A    
C16   O14   A    
O26   Zn6   S    
C14   H29   S    
C2    C3    A    
C25   C26   D    
C25   H6    S    
O2    Zn7   S    
C28   O23   A    
O12   Zn1   S    
C3    H1    S    
O8    Zn5   S    
C43   C46   A    
C10   C11   D    
O29   Zn6   S    
C4    O13   A    
H18   O20   S    
C20   C21   D    
O1    Zn4   S    
C14   C28   S    
C4    C9    S    
O27   Zn8   S    
H17   N1    S    
C10   H26   S    
