data_mof_unit_68503.cif
_audit_creation_date              2013-03-05T16:49:09-0500
_audit_creation_method            fapswitch 2.2
_symmetry_space_group_name_H-M    P1
_symmetry_Int_Tables_number       1
_space_group_crystal_system       triclinic
_cell_length_a                    10.880406
_cell_length_b                    10.614543
_cell_length_c                    9.420825
_cell_angle_alpha                 90.389396
_cell_angle_beta                  91.252169
_cell_angle_gamma                 90.188021
_cell_volume                      1087.72480051

loop_
_atom_site_label
_atom_site_type_symbol
_atom_site_description
_atom_site_fract_x
_atom_site_fract_y
_atom_site_fract_z
_atom_type_partial_charge
O1    O     O_R   0.500060 0.316850 0.620870 -0.555422
O2    O     O_R   0.499940 0.683150 0.379130 -0.555382
O3    O     O_R   0.500000 0.316860 0.379090 -0.595493
O4    O     O_R   0.500000 0.683140 0.620910 -0.595512
C1    C     C_R   0.499195 0.259408 0.499631 0.826496
C2    C     C_R   0.500807 0.740592 0.500369 0.826387
O5    O     O_R   0.319670 0.500010 0.620890 -0.585696
O6    O     O_R   0.680330 0.499990 0.379110 -0.585709
O7    O     O_R   0.319620 0.500010 0.379110 -0.590842
O8    O     O_R   0.680380 0.499990 0.620890 -0.590877
C3    C     C_R   0.262394 0.496839 0.498144 0.828686
C4    C     C_R   0.737605 0.503171 0.501856 0.828669
Cu1   Cu    Cu3+1 0.500030 0.499990 0.643150 0.962569
Cu2   Cu    Cu3+1 0.499970 0.500010 0.356850 0.962604
H1    H     H_    0.162606 0.207881 0.897472 0.187977
H2    H     H_    0.837247 0.791998 0.102590 0.187895
C5    C     C_R   0.128236 0.380835 0.002778 -0.236225
C6    C     C_R   0.871819 0.619091 0.997249 -0.236170
H3    H     H_    0.127666 0.433078 0.904679 0.170138
H4    H     H_    0.872452 0.566826 0.095332 0.170126
C7    C     C_R   0.112296 0.443483 0.131310 -0.223265
C8    C     C_R   0.887776 0.556489 0.868692 -0.223231
H5    H     H_    0.097881 0.544367 0.131279 0.165465
H6    H     H_    0.902275 0.455618 0.868692 0.165507
C9    C     C_R   0.108302 0.376255 0.258420 -0.003008
C10   C     C_R   0.891680 0.623747 0.741594 -0.003069
C11   C     C_R   0.124885 0.243928 0.256230 0.288033
C12   C     C_R   0.874960 0.756061 0.743820 0.287826
C13   C     C_R   0.147504 0.180533 0.125879 0.197964
C14   C     C_R   0.852280 0.819382 0.874201 0.198400
C15   C     C_R   0.147004 0.251272 0.999582 -0.183440
C16   C     C_R   0.852921 0.748632 0.000481 -0.183630
C17   C     C_R   0.929788 0.445474 0.390639 -0.222256
C18   C     C_R   0.070210 0.554574 0.609352 -0.222450
H7    H     H_    0.875439 0.401327 0.305961 0.145301
H8    H     H_    0.124559 0.598712 0.694035 0.145312
C19   C     C_R   0.871554 0.503360 0.504733 -0.049476
C20   C     C_R   0.128444 0.496676 0.495262 -0.049603
C21   C     C_R   0.942761 0.559038 0.615957 0.084494
C22   C     C_R   0.057234 0.441012 0.384032 0.084364
C23   C     C_3   0.613761 0.043265 0.530708 -0.136231
C24   C     C_3   0.386242 0.956736 0.469290 -0.135756
C25   C     C_3   0.578422 0.958434 0.402003 -0.087173
C26   C     C_3   0.421582 0.041566 0.597995 -0.087074
H9    H     H_    0.642220 0.921382 0.321468 0.171497
H10   H     H_    0.357787 0.078614 0.678536 0.171543
H11   H     H_    0.706744 0.081820 0.555919 0.168454
H12   H     H_    0.293257 0.918192 0.444061 0.168501
C27   C     C_3   0.500987 0.877576 0.500627 -0.007172
C28   C     C_3   0.499017 0.122424 0.499372 -0.007142
C29   C     C_3   0.536413 0.960115 0.629237 -0.171676
C30   C     C_3   0.463591 0.039886 0.370762 -0.171156
H13   H     H_    0.567221 0.923532 0.734084 0.155927
H14   H     H_    0.432779 0.076475 0.265919 0.156045
C31   C     C_3   0.471155 0.607495 0.048012 0.390913
C32   C     C_3   0.528847 0.392505 0.951988 0.390945
C33   C     C_3   0.391798 0.528456 0.946456 -0.131317
C34   C     C_3   0.608203 0.471545 0.053544 -0.131245
H15   H     H_    0.303762 0.559531 0.897028 0.129583
H16   H     H_    0.696242 0.440479 0.102973 0.129599
N1    N     N_3   0.500090 0.499970 0.858290 -0.196618
N2    N     N_3   0.499910 0.500030 0.141710 -0.196606
C35   C     C_3   0.578684 0.581542 0.951005 -0.081856
C36   C     C_3   0.421317 0.418456 0.048995 -0.081841
H17   H     H_    0.637781 0.652862 0.901274 0.153713
H18   H     H_    0.362222 0.347127 0.098716 0.153767
N3    N     N_2   0.435760 0.727814 0.106612 -0.388390
H19   H     H_    0.348797 0.727028 0.147966 0.251492
C37   C     C_3   0.460084 0.835424 0.018633 -0.777425
H20   H     H_    0.428928 0.922044 0.073074 0.250701
H21   H     H_    0.410550 0.825888 0.914676 0.231806
H22   H     H_    0.560318 0.844839 0.001777 0.239246
N4    N     N_2   0.564254 0.272187 0.893395 -0.388429
H23   H     H_    0.651187 0.273008 0.851960 0.251501
C38   C     C_3   0.540070 0.164598 0.981459 -0.777537
H24   H     H_    0.571226 0.077974 0.927025 0.250718
H25   H     H_    0.439860 0.155137 0.998441 0.239157
H26   H     H_    0.589689 0.174203 0.085357 0.231847
N5    N     N_R   0.110989 0.173708 0.384330 0.094074
O9    O     O_R   0.175464 0.203292 0.497651 -0.406748
O10   O     O_R   0.020443 0.094132 0.394030 -0.335468
N6    N     N_R   0.888855 0.826358 0.615768 0.093904
O11   O     O_R   0.824736 0.796569 0.502257 -0.406872
O12   O     O_R   0.978916 0.906538 0.606436 -0.335132
N7    N     N_2   0.174019 0.048127 0.124288 -0.447487
H27   H     H_    0.151259 0.995797 0.211615 0.295613
C39   C     C_3   0.175136 0.979074 0.990968 -0.704244
H28   H     H_    0.187533 0.876995 0.011777 0.230805
H29   H     H_    0.252702 0.011541 0.925778 0.228781
H30   H     H_    0.087352 0.991636 0.930857 0.266793
N8    N     N_2   0.825479 0.951716 0.875870 -0.447684
H31   H     H_    0.846603 0.004022 0.788002 0.295484
C40   C     C_3   0.824997 0.020929 0.009096 -0.703528
H32   H     H_    0.812775 0.123018 0.988210 0.230720
H33   H     H_    0.912936 0.008195 0.068825 0.266567
H34   H     H_    0.747599 0.988716 0.074694 0.228657

loop_
_geom_bond_atom_site_label_1
_geom_bond_atom_site_label_2
_geom_bond_distance
_ccdc_geom_bond_type
C34   N2    1.487053 S    
C14   C16   1.411082 A    
C39   H28   1.110561 S    
C35   H17   1.104912 S    
C40   H32   1.110566 S    
C11   C13   1.422830 A    
N4    C38   1.442970 S    
N4    H23   1.031132 S    
O7    Cu2   1.978008 S    
N7    H27   1.029995 S    
O5    C3    1.301736 A    
O1    C1    1.290902 A    
C11   N5    1.433263 S    
C9    C22   1.483827 S    
C25   C30   1.545837 S    
C33   H15   1.108070 S    
C34   H16   1.108070 S    
Cu2   N2    2.026783 S    
C31   N2    1.477225 S    
C4    C19   1.457075 S    
N1    C35   1.481918 S    
O4    Cu1   1.956728 S    
C37   H21   1.111342 S    
H2    C16   1.080734 S    
N2    C36   1.481925 S    
C5    H3    1.080914 S    
C30   H14   1.109232 S    
C27   C29   1.532022 S    
C31   C35   1.524896 S    
C28   C30   1.532016 S    
C32   C36   1.524897 S    
C13   N7    1.435713 S    
C40   H33   1.108485 S    
C6    C8    1.391935 A    
Cu1   Cu2   2.697169 S    
C23   C25   1.546387 S    
O2    C2    1.290901 A    
C24   C26   1.546393 S    
O2    Cu2   1.953828 S    
C26   H10   1.110360 S    
N7    C39   1.450201 S    
C17   C22   1.390369 A    
C12   N6    1.433320 S    
N3    H19   1.031131 S    
O4    C2    1.292807 A    
N8    H31   1.029579 S    
N5    O10   1.300739 A    
C25   C27   1.532984 S    
C17   C19   1.399159 A    
C18   C21   1.390396 A    
C29   H13   1.109232 S    
C36   H18   1.104931 S    
C37   H22   1.109796 S    
C38   H24   1.107505 S    
N8    C40   1.450107 S    
O7    C3    1.295087 A    
O6    C4    1.301731 A    
C23   H11   1.110350 S    
C24   H12   1.110360 S    
C33   N1    1.487047 S    
C25   H9    1.110357 S    
O3    Cu2   1.956728 S    
O8    C4    1.295086 A    
C26   C29   1.545833 S    
C40   H34   1.109829 S    
N6    O12   1.300599 A    
C31   C33   1.520847 S    
C5    C15   1.391214 A    
C8    H6    1.082769 S    
C1    C28   1.454007 S    
C39   H30   1.108581 S    
C6    C16   1.391195 A    
C23   C28   1.531651 S    
C33   C36   1.550423 S    
C26   C28   1.532982 S    
C34   C35   1.550409 S    
C7    C9    1.399555 A    
O6    Cu2   1.969002 S    
C32   N4    1.444680 S    
C18   C20   1.399185 A    
C14   N8    1.435601 S    
O3    C1    1.292805 A    
O8    Cu1   1.978008 S    
C31   N3    1.444675 S    
H1    C15   1.080720 S    
C9    C11   1.416791 A    
C10   C12   1.416846 A    
C7    H5    1.082774 S    
C13   C15   1.411164 A    
C20   C22   1.414407 A    
C12   C14   1.422837 A    
C17   H7    1.085419 S    
C18   H8    1.085418 S    
C32   C34   1.520842 S    
C6    H4    1.080909 S    
C2    C27   1.454008 S    
C37   H20   1.107492 S    
C10   C21   1.483843 S    
C38   H26   1.111343 S    
C5    C7    1.391940 A    
C24   C27   1.531658 S    
N5    O9    1.300651 A    
O1    Cu1   1.953828 S    
O5    Cu1   1.969002 S    
Cu1   N1    2.026784 S    
C19   C21   1.414411 A    
N6    O11   1.300603 A    
C8    C10   1.399578 A    
C38   H25   1.109788 S    
C39   H29   1.109868 S    
C32   N1    1.477231 S    
C3    C20   1.457084 S    
N3    C37   1.442972 S    
C23   C29   1.545713 S    
C24   C30   1.545710 S    
