data_mof_unit_52606.cif
_audit_creation_date              2012-12-10T20:34:56-0500
_audit_creation_method            fapswitch 2.2
_symmetry_space_group_name_H-M    P1
_symmetry_Int_Tables_number       1
_space_group_crystal_system       triclinic
_cell_length_a                    10.638489
_cell_length_b                    10.668746
_cell_length_c                    9.872545
_cell_angle_alpha                 90.192717
_cell_angle_beta                  89.966159
_cell_angle_gamma                 90.270487
_cell_volume                      1120.50830168

loop_
_atom_site_label
_atom_site_type_symbol
_atom_type_description
_atom_site_fract_x
_atom_site_fract_y
_atom_site_fract_z
_atom_type_partial_charge
C1    C     C_R   0.503333 0.260021 0.499925 0.882245
C2    C     C_R   0.515275 0.936654 0.623424 0.166207
C3    C     C_3   0.418522 0.929217 0.733095 -0.483032
C4    C     C_R   0.257692 0.499065 0.500227 0.837806
C5    C     C_3   0.418027 0.071300 0.732828 -0.506337
C6    C     C_R   0.434625 0.410520 0.070949 0.221363
C7    C     C_R   0.574043 0.580512 0.072848 -0.181550
C8    C     C_R   0.574374 0.580715 0.928936 0.010373
C9    C     C_R   0.434394 0.410690 0.928458 0.197652
C10   C     C_3   0.295994 0.388992 0.923593 -0.519967
C11   C     C_3   0.296511 0.387821 0.077234 -0.513205
C12   C     C_3   0.878708 0.496566 0.500855 0.128490
C13   C     C_R   0.503884 0.739981 0.500185 0.882602
C14   C     C_R   0.742218 0.499337 0.500201 0.842637
C15   C     C_3   0.071258 0.491936 0.648438 -0.407387
C16   C     C_3   0.928731 0.494457 0.648896 -0.381216
C17   C     C_3   0.072427 0.618130 0.432099 -0.403589
C18   C     C_3   0.072941 0.380700 0.422528 -0.432621
C19   C     C_3   0.121302 0.497554 0.500761 0.164241
C20   C     C_1   0.652613 0.670031 0.859568 0.203186
C21   C     C_1   0.878809 0.260529 0.477332 0.130632
C22   C     C_3   0.928242 0.617240 0.431360 -0.431765
C23   C     C_3   0.927848 0.379622 0.421587 -0.132822
C24   C     C_R   0.514794 0.064395 0.623167 0.157845
C25   C     C_R   0.522046 0.128641 0.500942 -0.101591
C26   C     C_R   0.553137 0.064662 0.381345 -0.208363
C27   C     C_R   0.553850 0.935019 0.381631 -0.228745
C28   C     C_R   0.523162 0.871494 0.501446 -0.114164
H1    H     H_    0.895547 0.384891 0.314508 0.139139
H2    H     H_    0.271439 0.296727 0.877958 0.196765
H3    H     H_    0.244482 0.467772 0.122605 0.214004
H4    H     H_    0.273464 0.294499 0.120650 0.197396
H5    H     H_    0.892301 0.411138 0.704366 0.185554
H6    H     H_    0.896890 0.579293 0.704876 0.192670
H7    H     H_    0.107223 0.702449 0.487577 0.163013
H8    H     H_    0.892783 0.701863 0.485290 0.177830
H9    H     H_    0.107391 0.382578 0.316111 0.165880
H10   H     H_    0.111841 0.294309 0.469608 0.158244
H11   H     H_    0.107108 0.573176 0.708438 0.176831
H12   H     H_    0.107530 0.624353 0.326046 0.177727
H13   H     H_    0.569914 0.885525 0.287234 0.167484
H14   H     H_    0.328463 0.886882 0.697957 0.196392
H15   H     H_    0.327677 0.111825 0.697528 0.195399
H16   H     H_    0.894251 0.622184 0.324861 0.177178
H17   H     H_    0.568841 0.113652 0.286844 0.168744
H18   H     H_    0.457018 0.888973 0.828053 0.211487
H19   H     H_    0.456314 0.113162 0.827569 0.209299
H20   H     H_    0.631631 0.646909 0.128527 0.145819
H21   H     H_    0.103510 0.404295 0.698227 0.176793
H22   H     H_    0.244699 0.470419 0.881473 0.213424
N1    N     N_R   0.499150 0.499140 0.142800 -0.110401
N2    N     N_R   0.499150 0.499180 0.857150 -0.128827
N3    N     N_1   0.715776 0.742395 0.804598 -0.239022
N4    N     N_1   0.840582 0.167340 0.521070 -0.211132
O1    O     O_R   0.500020 0.316790 0.614690 -0.613373
O2    O     O_R   0.500000 0.316760 0.385350 -0.623053
O3    O     O_R   0.314800 0.500000 0.614670 -0.631193
O4    O     O_R   0.314790 0.499960 0.385330 -0.624961
O5    O     O_R   0.500000 0.683240 0.614650 -0.608922
O6    O     O_R   0.499980 0.683210 0.385310 -0.624400
O7    O     O_R   0.685210 0.500040 0.614670 -0.620747
O8    O     O_R   0.685200 0.500000 0.385330 -0.633158
Zn1   Zn    Zn3+2 0.500010 0.500020 0.653130 0.948508
Zn2   Zn    Zn3+2 0.499990 0.499980 0.346870 0.934684

loop_
_geom_bond_atom_site_label_1
_geom_bond_atom_site_label_2
_ccdc_geom_bond_type
C4    O3    A    
C15   C19   S    
O2    Zn2   S    
C13   C28   S    
C13   O5    A    
C16   H5    S    
C22   H8    S    
C9    C10   S    
C10   H2    S    
C3    H18   S    
O5    Zn1   S    
C17   C22   S    
C4    C19   S    
O6    Zn2   S    
C7    H20   S    
C3    C5    S    
C6    C9    A    
C21   C23   S    
C2    C3    S    
C18   H10   S    
C7    N1    A    
C7    C8    A    
C3    H14   S    
C13   O6    A    
C1    C25   S    
C5    H19   S    
C12   C23   S    
C15   H11   S    
C26   C27   A    
C8    C20   S    
C9    N2    A    
C18   C23   S    
C23   H1    S    
C17   C19   S    
C18   H9    S    
C12   C14   S    
C11   H4    S    
O3    Zn1   S    
C15   H21   S    
C1    O1    A    
C21   N4    T    
C6    N1    A    
C2    C28   A    
C10   C11   S    
C11   H3    S    
C15   C16   S    
C10   H22   S    
C12   C22   S    
C5    C24   S    
C6    C11   S    
C24   C25   A    
C20   N3    T    
C18   C19   S    
C4    O4    A    
C27   C28   A    
O7    Zn1   S    
C8    N2    A    
N2    Zn1   S    
C5    H15   S    
O8    Zn2   S    
C2    C24   A    
C17   H7    S    
C26   H17   S    
C16   H6    S    
C25   C26   A    
C14   O7    A    
C1    O2    A    
C22   H16   S    
N1    Zn2   S    
C12   C16   S    
O1    Zn1   S    
C27   H13   S    
O4    Zn2   S    
C17   H12   S    
C14   O8    A    
