data_mof_unit_38024.cif
_audit_creation_date              2012-12-10T18:50:51-0500
_audit_creation_method            fapswitch 2.2
_symmetry_space_group_name_H-M    P1
_symmetry_Int_Tables_number       1
_space_group_crystal_system       triclinic
_cell_length_a                    10.687922
_cell_length_b                    9.856435
_cell_length_c                    15.742187
_cell_angle_alpha                 89.755933
_cell_angle_beta                  90.58644
_cell_angle_gamma                 90.04113
_cell_volume                      1658.25538707

loop_
_atom_site_label
_atom_site_type_symbol
_atom_type_description
_atom_site_fract_x
_atom_site_fract_y
_atom_site_fract_z
_atom_type_partial_charge
C1    C     C_R   0.259971 0.499955 0.499680 0.851468
C2    C     C_R   0.936565 0.613534 0.529490 -0.194521
C3    C     C_R   0.872458 0.500361 0.498560 -0.013472
C4    C     C_R   0.127575 0.500021 0.499000 -0.004930
C5    C     C_R   0.574554 0.072603 0.556024 0.228722
C6    C     C_R   0.572798 0.927121 0.557162 0.232987
C7    C     C_R   0.500247 0.500349 0.338346 0.898532
C8    C     C_R   0.426937 0.928522 0.443905 -0.147480
C9    C     C_R   0.426621 0.072085 0.444096 -0.146071
C10   C     C_R   0.740003 0.500067 0.499554 0.862899
C11   C     C_R   0.499905 0.499676 0.661662 0.908763
C12   C     C_3   0.636678 0.549497 0.947675 -0.535433
C13   C     C_3   0.401963 0.595072 0.049893 -0.091244
C14   C     C_3   0.487112 0.356856 0.051098 -0.019215
C15   C     C_3   0.476524 0.355967 0.952073 -0.014566
C16   C     C_3   0.401393 0.599446 0.950700 0.032460
C17   C     C_1   0.500620 0.499017 0.750348 -0.231918
C18   C     C_3   0.515703 0.505406 0.083021 0.069503
C19   C     C_3   0.505010 0.501623 0.917030 0.094196
C20   C     C_3   0.523884 0.124674 0.106392 -0.778534
C21   C     C_3   0.272306 0.792347 0.088933 -0.779396
C22   C     C_3   0.492409 0.155566 0.857551 -0.828512
C23   C     C_3   0.646770 0.558157 0.046995 0.461335
C24   C     C_3   0.330925 0.778203 0.848423 -0.819471
C25   C     C_3   0.796144 0.754745 0.059301 -0.844518
C26   C     C_3   0.785032 0.462496 0.165331 -0.777241
C27   C     C_3   0.783796 0.141787 0.603272 -0.775379
C28   C     C_3   0.615834 0.859322 0.703994 -0.788203
C29   C     C_1   0.501804 0.499826 0.825558 -0.003551
C30   C     C_1   0.511737 0.503589 0.174664 -0.015882
C31   C     C_1   0.505725 0.501648 0.249764 -0.203709
C32   C     C_R   0.063617 0.387064 0.467468 -0.196481
C33   C     C_R   0.064699 0.613481 0.529650 -0.201110
C34   C     C_R   0.935305 0.387530 0.466889 -0.210212
H1    H     H_    0.308837 0.558148 0.929808 0.112856
H2    H     H_    0.114327 0.700806 0.554639 0.153855
H3    H     H_    0.885497 0.300764 0.441387 0.155784
H4    H     H_    0.888052 0.700749 0.554412 0.143584
H5    H     H_    0.660204 0.249660 0.054898 0.265829
H6    H     H_    0.598567 0.059364 0.134132 0.235929
H7    H     H_    0.485398 0.074577 0.048708 0.262221
H8    H     H_    0.449012 0.135528 0.154309 0.235533
H9    H     H_    0.442185 0.744070 0.144289 0.244210
H10   H     H_    0.281426 0.901126 0.105986 0.233457
H11   H     H_    0.213361 0.740834 0.137056 0.222498
H12   H     H_    0.376409 0.333854 0.936469 0.119013
H13   H     H_    0.225490 0.785667 0.025860 0.264426
H14   H     H_    0.644289 0.274686 0.897949 0.231255
H15   H     H_    0.557459 0.071546 0.842633 0.235203
H16   H     H_    0.464050 0.207316 0.797634 0.249266
H17   H     H_    0.408784 0.111315 0.888500 0.245102
H18   H     H_    0.499527 0.783593 0.918463 0.237537
H19   H     H_    0.338172 0.889263 0.838071 0.235505
H20   H     H_    0.232075 0.754069 0.863494 0.234520
H21   H     H_    0.357642 0.726282 0.789041 0.251235
H22   H     H_    0.606712 0.767724 0.048093 0.238080
H23   H     H_    0.368430 0.874475 0.398907 0.152612
H24   H     H_    0.796939 0.864125 0.076092 0.239923
H25   H     H_    0.825099 0.744946 0.992106 0.230246
H26   H     H_    0.865740 0.703768 0.101112 0.264879
H27   H     H_    0.830365 0.477424 0.037827 0.215718
H28   H     H_    0.886336 0.439489 0.172803 0.214544
H29   H     H_    0.733200 0.377843 0.195381 0.261828
H30   H     H_    0.765729 0.558515 0.199348 0.260811
H31   H     H_    0.620639 0.143719 0.676589 0.221112
H32   H     H_    0.826562 0.069254 0.649161 0.210640
H33   H     H_    0.824051 0.243479 0.616155 0.254686
H34   H     H_    0.367678 0.126638 0.399352 0.147670
H35   H     H_    0.808359 0.111784 0.537505 0.229008
H36   H     H_    0.743688 0.860703 0.604380 0.206287
H37   H     H_    0.673837 0.936300 0.737216 0.208040
H38   H     H_    0.635157 0.759937 0.734671 0.251879
H39   H     H_    0.515028 0.883521 0.711806 0.241871
H40   H     H_    0.315042 0.540618 0.069325 0.121932
H41   H     H_    0.392432 0.329857 0.075466 0.117565
H42   H     H_    0.659918 0.648188 0.917581 0.170996
H43   H     H_    0.709004 0.480609 0.922061 0.155405
H44   H     H_    0.112536 0.299740 0.442631 0.148760
N1    N     N_R   0.499970 0.857200 0.499980 -0.103781
N2    N     N_2   0.649179 0.852591 0.615130 -0.254129
N3    N     N_R   0.499970 0.142800 0.499980 -0.103098
N4    N     N_2   0.575366 0.256292 0.084977 -0.257909
N5    N     N_2   0.395286 0.730714 0.087427 -0.278255
N6    N     N_2   0.553951 0.250332 0.914123 -0.271749
N7    N     N_2   0.412932 0.738096 0.917888 -0.251314
N8    N     N_2   0.671221 0.699839 0.071604 -0.298044
N9    N     N_2   0.752111 0.472214 0.075628 -0.306320
N10   N     N_2   0.649599 0.147126 0.614429 -0.256138
O1    O     O_R   0.316750 0.614620 0.499990 -0.626806
O2    O     O_R   0.316750 0.385380 0.499990 -0.626982
O3    O     O_R   0.499990 0.614720 0.377140 -0.615526
O4    O     O_R   0.499990 0.385280 0.377140 -0.614017
O5    O     O_R   0.683220 0.614710 0.500000 -0.614675
O6    O     O_R   0.683220 0.385290 0.500000 -0.598803
O7    O     O_R   0.499980 0.614620 0.622860 -0.587299
O8    O     O_R   0.499980 0.385380 0.622860 -0.604882
Zn1   Zn    Zn3+2 0.499980 0.653120 0.500000 0.958676
Zn2   Zn    Zn3+2 0.499980 0.346880 0.500000 0.957924

loop_
_geom_bond_atom_site_label_1
_geom_bond_atom_site_label_2
_ccdc_geom_bond_type
C11   O8    A    
C1    O2    A    
C20   N4    S    
C34   H3    S    
C17   C29   T    
C14   C18   S    
C20   H7    S    
O4    Zn2   S    
C24   H21   S    
C15   C19   S    
C12   C23   S    
C13   C18   S    
H18   N7    S    
C16   H1    S    
C30   C31   T    
C20   H6    S    
N3    Zn2   S    
C10   O6    A    
C24   H20   S    
C33   H2    S    
H9    N5    S    
C26   H30   S    
H27   N9    S    
C5    N10   S    
C6    N2    S    
C21   N5    S    
C26   N9    S    
C23   N8    S    
O8    Zn2   S    
C8    N1    A    
C18   C30   S    
C25   H26   S    
C24   N7    S    
C27   H35   S    
C22   H16   S    
C23   N9    S    
C28   H38   S    
C28   H39   S    
C21   H11   S    
C7    C31   S    
H36   N2    S    
C18   C23   S    
C8    C9    A    
C3    C34   A    
C24   H19   S    
H14   N6    S    
O1    Zn1   S    
C22   N6    S    
C26   H29   S    
C8    H23   S    
C21   H10   S    
C5    N3    A    
C2    H4    S    
H22   N8    S    
C7    O3    A    
C12   H43   S    
O3    Zn1   S    
C4    C32   A    
C22   H15   S    
C2    C33   A    
C12   H42   S    
C16   N7    S    
C28   H37   S    
C25   H24   S    
C14   N4    S    
C19   C29   S    
O5    Zn1   S    
H31   N10   S    
C11   O7    A    
C4    C33   A    
C11   C17   S    
C1    O1    A    
N1    Zn1   S    
H5    N4    S    
C20   H8    S    
O7    Zn1   S    
C15   N6    S    
C13   N5    S    
C10   O5    A    
C1    C4    S    
C14   H41   S    
C2    C3    A    
C26   H28   S    
C9    H34   S    
C27   H32   S    
C6    N1    A    
C5    C6    A    
C16   C19   S    
C7    O4    A    
C12   C19   S    
C25   N8    S    
C27   N10   S    
C28   N2    S    
C27   H33   S    
C32   H44   S    
C13   H40   S    
C13   C16   S    
C9    N3    A    
C3    C10   S    
O6    Zn2   S    
C14   C15   S    
C25   H25   S    
C15   H12   S    
O2    Zn2   S    
C32   C34   A    
C22   H17   S    
C21   H13   S    
