data_mof_unit_62783.cif
_audit_creation_date              2012-12-10T16:41:37-0500
_audit_creation_method            fapswitch 2.2
_symmetry_space_group_name_H-M    P1
_symmetry_Int_Tables_number       1
_space_group_crystal_system       triclinic
_cell_length_a                    26.18603
_cell_length_b                    26.162391
_cell_length_c                    18.506796
_cell_angle_alpha                 90.096182
_cell_angle_beta                  134.931905
_cell_angle_gamma                 89.966065
_cell_volume                      8975.90209268

loop_
_atom_site_label
_atom_site_type_symbol
_atom_type_description
_atom_site_fract_x
_atom_site_fract_y
_atom_site_fract_z
_atom_type_partial_charge
C1    C     C_R   0.612136 0.750849 0.501328 0.866659
C2    C     C_2   0.020938 0.294830 0.484003 0.212170
C3    C     C_2   0.492594 0.223243 0.429990 0.200855
C4    C     C_2   0.520884 0.794812 0.483899 0.212104
C5    C     C_2   0.054033 0.749622 0.496277 -0.386709
C6    C     C_2   0.056356 0.251512 0.500804 -0.416081
C7    C     C_2   0.550393 0.254852 0.488860 -0.397352
C8    C     C_2   0.556357 0.751507 0.500804 -0.416087
C9    C     C_2   0.955411 0.707736 0.465035 0.185232
C10   C     C_2   0.957426 0.293321 0.469276 0.210127
C11   C     C_2   0.432068 0.230929 0.419877 0.176043
C12   C     C_R   0.610709 0.250328 0.498818 0.881866
C13   C     C_2   0.457383 0.793295 0.469192 0.209844
C14   C     C_2   0.949744 0.744423 0.511004 -0.421934
C15   C     C_2   0.949517 0.255213 0.510549 -0.425591
C16   C     C_2   0.443983 0.248438 0.499667 -0.396385
C17   C     C_2   0.449503 0.755203 0.510522 -0.425503
C18   C     C_2   0.725989 0.471950 0.415873 0.208350
C19   C     C_2   0.718892 0.528539 0.412208 0.173277
C20   C     C_2   0.224673 0.971941 0.415070 0.208718
C21   C     C_2   0.217574 0.028540 0.411633 0.172904
C22   C     C_2   0.739103 0.444188 0.489327 -0.400600
C23   C     C_R   0.112136 0.250850 0.501329 0.866782
C24   C     C_2   0.749143 0.555795 0.497053 -0.405125
C25   C     C_2   0.238995 0.944179 0.489427 -0.399736
C26   C     C_2   0.249026 0.055786 0.496998 -0.402877
C27   C     C_2   0.808894 0.028125 0.560495 -0.165587
C28   C     C_2   0.808940 0.971948 0.557862 -0.163392
C29   C     C_2   0.308877 0.528127 0.560470 -0.164307
C30   C     C_2   0.308926 0.471949 0.557879 -0.163683
C31   C     C_2   0.748473 0.056081 0.495488 -0.296119
C32   C     C_2   0.748526 0.943903 0.501764 -0.298810
C33   C     C_2   0.248447 0.556085 0.495594 -0.298830
C34   C     C_R   0.111694 0.749402 0.500574 0.895814
C35   C     C_2   0.248513 0.443900 0.501722 -0.298865
C36   C     C_R   0.889694 0.748780 0.501889 0.872132
C37   C     C_R   0.889528 0.251055 0.501584 0.871904
C38   C     C_R   0.387999 0.250307 0.498711 0.877566
C39   C     C_R   0.389524 0.751052 0.501577 0.871328
C40   C     C_R   0.749983 0.888563 0.500362 0.852380
C41   C     C_R   0.749946 0.111433 0.499628 0.851135
C42   C     C_R   0.249982 0.388562 0.500354 0.851001
C43   C     C_R   0.249941 0.611435 0.499655 0.852973
C44   C     C_R   0.748637 0.611406 0.498231 0.868883
C45   C     C_2   0.948124 0.744048 0.886413 -0.371569
C46   C     C_R   0.748085 0.388684 0.497943 0.872532
C47   C     C_R   0.248616 0.111404 0.498226 0.870797
C48   C     C_R   0.248048 0.888682 0.497937 0.872682
C49   C     C_R   0.611626 0.750114 0.222663 0.880741
C50   C     C_R   0.611093 0.250296 0.222566 0.867226
C51   C     C_R   0.111657 0.250126 0.222679 0.880334
C52   C     C_R   0.111079 0.750336 0.222638 0.870742
C53   C     C_R   0.889041 0.749391 0.776903 0.881663
C54   C     C_R   0.887722 0.249377 0.776949 0.883946
C55   C     C_R   0.389220 0.249270 0.776887 0.880602
C56   C     C_2   0.936704 0.245091 0.886479 -0.374824
C57   C     C_R   0.387711 0.749355 0.776943 0.884398
C58   C     C_2   0.061882 0.771344 0.054580 0.481912
C59   C     C_2   0.045683 0.213775 0.054703 0.487358
C60   C     C_2   0.562745 0.270489 0.054617 0.483769
C61   C     C_2   0.546143 0.713922 0.054677 0.487444
C62   C     C_2   0.050141 0.756607 0.112352 -0.035175
C63   C     C_2   0.062730 0.255435 0.112377 -0.033502
C64   C     C_2   0.550492 0.256261 0.112006 -0.032713
C65   C     C_2   0.562583 0.755433 0.112318 -0.034144
C66   C     C_2   0.000199 0.779123 0.943436 -0.307162
C67   C     C_2   0.449098 0.243352 0.886134 -0.365960
C68   C     C_2   0.998570 0.219266 0.943539 -0.304039
C69   C     C_2   0.501094 0.278481 0.943439 -0.309283
C70   C     C_2   0.498835 0.719508 0.943470 -0.302810
C71   C     C_3   0.142888 0.769559 0.039243 -0.308137
C72   C     C_3   0.029503 0.125444 0.039268 -0.334429
C73   C     C_3   0.643497 0.270059 0.038590 -0.307368
C74   C     C_3   0.531911 0.625389 0.039391 -0.333937
C75   C     C_3   0.953987 0.705566 0.074095 -0.754856
C76   C     C_3   0.997678 0.335602 0.074029 -0.756811
C77   C     C_3   0.451896 0.205586 0.067548 -0.770146
C78   C     C_2   0.436665 0.744944 0.886444 -0.375134
C79   C     C_3   0.496245 0.834881 0.073891 -0.755107
C80   C     C_3   0.007132 0.636417 0.380793 -0.678796
C81   C     C_3   0.001222 0.365794 0.379878 -0.678191
C82   C     C_3   0.452452 0.191054 0.273697 -0.690945
C83   C     C_3   0.501049 0.865681 0.379530 -0.676798
C84   C     C_3   0.846202 0.676084 0.298765 -0.720034
C85   C     C_3   0.917372 0.376419 0.472889 -0.703791
C86   C     C_3   0.314564 0.258259 0.258517 -0.740566
C87   C     C_3   0.417305 0.876394 0.472739 -0.702193
C88   C     C_3   0.642659 0.431770 0.249032 -0.693886
C89   C     C_2   0.018598 0.706341 0.479214 0.201705
C90   C     C_3   0.711753 0.565343 0.283180 -0.705708
C91   C     C_3   0.139726 0.931517 0.248517 -0.693991
C92   C     C_3   0.207473 0.065239 0.279851 -0.701015
H1    H     H_    0.739961 0.461949 0.543081 0.134842
H2    H     H_    0.695828 0.960863 0.456125 0.147109
H3    H     H_    0.119010 0.907495 0.272724 0.230039
H4    H     H_    0.138603 0.080629 0.298560 0.232815
H5    H     H_    0.203572 0.106908 0.265212 0.284004
H6    H     H_    0.179007 0.044671 0.207343 0.217267
H7    H     H_    0.265473 0.054393 0.337041 0.217631
H8    H     H_    0.195750 0.539059 0.435949 0.146297
H9    H     H_    0.195799 0.460849 0.455978 0.146309
H10   H     H_    0.000377 0.812327 0.908446 0.188788
H11   H     H_    0.013202 0.199429 0.908684 0.190194
H12   H     H_    0.500742 0.312198 0.908912 0.187012
H13   H     H_    0.513703 0.700132 0.908559 0.190228
H14   H     H_    0.949937 0.709577 0.920669 0.179336
H15   H     H_    0.920299 0.262362 0.920828 0.179722
H16   H     H_    0.451788 0.208347 0.919939 0.177565
H17   H     H_    0.779180 0.537654 0.570123 0.130358
H18   H     H_    0.420036 0.761797 0.920767 0.179627
H19   H     H_    0.038375 0.786675 0.501678 0.123016
H20   H     H_    0.041515 0.214538 0.507624 0.131925
H21   H     H_    0.552217 0.287172 0.527470 0.134330
H22   H     H_    0.541572 0.714536 0.507727 0.131838
H23   H     H_    0.992999 0.771791 0.562178 0.140441
H24   H     H_    0.991839 0.227187 0.560387 0.141607
H25   H     H_    0.497626 0.259526 0.570732 0.129515
H26   H     H_    0.491837 0.727188 0.560384 0.141658
H27   H     H_    0.119056 0.799653 0.980542 0.169085
H28   H     H_    0.240731 0.961938 0.544044 0.134838
H29   H     H_    0.120914 0.731193 0.003125 0.160639
H30   H     H_    0.201694 0.768748 0.086988 0.184376
H31   H     H_    0.030575 0.117477 0.981368 0.174251
H32   H     H_    0.973351 0.132416 0.002150 0.165946
H33   H     H_    0.049250 0.090683 0.086897 0.191882
H34   H     H_    0.620102 0.301366 0.982208 0.168186
H35   H     H_    0.620737 0.232334 0.999646 0.162482
H36   H     H_    0.702235 0.269006 0.085945 0.184180
H37   H     H_    0.533271 0.618061 0.981623 0.173770
H38   H     H_    0.475577 0.631502 0.002135 0.165753
H39   H     H_    0.279974 0.037634 0.570321 0.129983
H40   H     H_    0.552453 0.590571 0.087097 0.191635
H41   H     H_    0.940249 0.778830 0.013843 0.235894
H42   H     H_    0.901924 0.695429 0.996010 0.225080
H43   H     H_    0.945314 0.708485 0.124623 0.251095
H44   H     H_    0.993033 0.674311 0.101890 0.246769
H45   H     H_    0.039402 0.314379 0.013483 0.236141
H46   H     H_    0.949399 0.349142 0.995897 0.224644
H47   H     H_    0.027845 0.369381 0.124351 0.254447
H48   H     H_    0.978907 0.312541 0.102058 0.247173
H49   H     H_    0.441351 0.279897 0.013728 0.235810
H50   H     H_    0.860985 0.046854 0.617551 0.173854
H51   H     H_    0.403553 0.194840 0.987209 0.228546
H52   H     H_    0.435297 0.208785 0.108164 0.247451
H53   H     H_    0.492682 0.174708 0.102770 0.252084
H54   H     H_    0.538272 0.814751 0.013317 0.236585
H55   H     H_    0.447727 0.848255 0.995761 0.224546
H56   H     H_    0.525895 0.868752 0.124154 0.254937
H57   H     H_    0.477891 0.811336 0.102020 0.246482
H58   H     H_    0.050060 0.631406 0.526870 0.209637
H59   H     H_    0.045245 0.611787 0.388418 0.234656
H60   H     H_    0.987385 0.666861 0.324201 0.245362
H61   H     H_    0.861065 0.953301 0.605170 0.174372
H62   H     H_    0.960860 0.612485 0.352072 0.222323
H63   H     H_    0.098573 0.349498 0.530838 0.214896
H64   H     H_    0.034826 0.370176 0.364154 0.240823
H65   H     H_    0.982177 0.404165 0.377860 0.225542
H66   H     H_    0.953598 0.341826 0.318407 0.233956
H67   H     H_    0.470089 0.147872 0.383022 0.210184
H68   H     H_    0.463821 0.159443 0.246646 0.226826
H69   H     H_    0.471770 0.227445 0.268888 0.247839
H70   H     H_    0.393239 0.193344 0.222643 0.228973
H71   H     H_    0.598425 0.849527 0.530564 0.215145
H72   H     H_    0.360981 0.546857 0.617385 0.173539
H73   H     H_    0.534655 0.870059 0.363807 0.240870
H74   H     H_    0.481918 0.904044 0.377359 0.226055
H75   H     H_    0.453478 0.841651 0.318142 0.233668
H76   H     H_    0.889950 0.648716 0.439996 0.242706
H77   H     H_    0.813199 0.640858 0.260270 0.222695
H78   H     H_    0.867915 0.686252 0.266452 0.229212
H79   H     H_    0.811033 0.707613 0.282818 0.258195
H80   H     H_    0.854070 0.324111 0.350463 0.256784
H81   H     H_    0.878325 0.407311 0.421296 0.221925
H82   H     H_    0.972780 0.392127 0.522866 0.236847
H83   H     H_    0.361056 0.453304 0.605239 0.174276
H84   H     H_    0.908757 0.363846 0.520887 0.235024
H85   H     H_    0.338242 0.185732 0.325908 0.253080
H86   H     H_    0.264732 0.242762 0.183599 0.231024
H87   H     H_    0.341294 0.283971 0.245682 0.234781
H88   H     H_    0.299398 0.280448 0.292226 0.234479
H89   H     H_    0.354010 0.824058 0.350359 0.256656
H90   H     H_    0.378219 0.907266 0.421123 0.222234
H91   H     H_    0.472694 0.892126 0.522652 0.237082
H92   H     H_    0.408744 0.863831 0.520804 0.234877
H93   H     H_    0.740895 0.464878 0.319811 0.222102
H94   H     H_    0.695809 0.039044 0.435674 0.148662
H95   H     H_    0.641573 0.408788 0.197461 0.238882
H96   H     H_    0.607830 0.465882 0.206885 0.222418
H97   H     H_    0.620734 0.407896 0.271613 0.230421
H98   H     H_    0.640481 0.580410 0.297720 0.234325
H99   H     H_    0.707868 0.607006 0.268473 0.284503
H100  H     H_    0.684535 0.544725 0.211182 0.216880
H101  H     H_    0.769820 0.554669 0.341907 0.217371
H102  H     H_    0.237131 0.964896 0.316244 0.222607
H103  H     H_    0.137611 0.908612 0.195879 0.239584
H104  H     H_    0.104517 0.965531 0.206929 0.222792
N1    N     N_2   0.979245 0.754333 0.072167 -0.338729
N2    N     N_2   0.906936 0.334290 0.412731 -0.280075
N3    N     N_2   0.362138 0.216554 0.324788 -0.294454
N4    N     N_2   0.406873 0.834250 0.412613 -0.280278
N5    N     N_2   0.716130 0.447052 0.337966 -0.257028
N6    N     N_2   0.676154 0.552998 0.315211 -0.294785
N7    N     N_2   0.213433 0.947018 0.336018 -0.257109
N8    N     N_2   0.173544 0.053040 0.314441 -0.296291
N9    N     N_2   0.043689 0.306285 0.072105 -0.339713
N10   N     N_2   0.479319 0.254557 0.070914 -0.337738
N11   N     N_2   0.542670 0.806274 0.071924 -0.338662
N12   N     N_2   0.043913 0.657751 0.479795 -0.285479
N13   N     N_2   0.043702 0.343558 0.480065 -0.287836
N14   N     N_2   0.488864 0.180841 0.377724 -0.263373
N15   N     N_2   0.543564 0.843537 0.479798 -0.287817
N16   N     N_2   0.904473 0.667039 0.407448 -0.292976
O1    O     O_3   0.750030 0.750030 0.500000 -0.489254
O2    O     O_R   0.750010 0.364550 0.560050 -0.650461
O3    O     O_R   0.250010 0.135450 0.560050 -0.642977
O4    O     O_R   0.250010 0.864550 0.560050 -0.650681
O5    O     O_R   0.605390 0.780070 0.439910 -0.634790
O6    O     O_R   0.605390 0.219930 0.439910 -0.607723
O7    O     O_R   0.105390 0.280070 0.439910 -0.634468
O8    O     O_R   0.105390 0.719930 0.439910 -0.618740
O9    O     O_R   0.834580 0.719970 0.439940 -0.646501
O10   O     O_R   0.834580 0.280030 0.439940 -0.636991
O11   O     O_R   0.334580 0.219970 0.439940 -0.648097
O12   O     O_3   0.750030 0.249970 0.500000 -0.495476
O13   O     O_R   0.334580 0.780030 0.439940 -0.637458
O14   O     O_R   0.665460 0.720000 0.560050 -0.641082
O15   O     O_R   0.665460 0.280000 0.560050 -0.651620
O16   O     O_R   0.165460 0.220000 0.560050 -0.641124
O17   O     O_R   0.165460 0.780000 0.560050 -0.650276
O18   O     O_R   0.894670 0.780060 0.560110 -0.643600
O19   O     O_R   0.894670 0.219940 0.560110 -0.644046
O20   O     O_R   0.394670 0.280060 0.560110 -0.644643
O21   O     O_R   0.394670 0.719940 0.560110 -0.644084
O22   O     O_R   0.689950 0.864610 0.439940 -0.654346
O23   O     O_3   0.250030 0.250030 0.500000 -0.489546
O24   O     O_R   0.689950 0.135390 0.439940 -0.645087
O25   O     O_R   0.189950 0.364610 0.439940 -0.654772
O26   O     O_R   0.189950 0.635390 0.439940 -0.650251
O27   O     O_R   0.750020 0.635440 0.439910 -0.634137
O28   O     O_R   0.750020 0.364560 0.439910 -0.610816
O29   O     O_R   0.250020 0.135440 0.439910 -0.631659
O30   O     O_R   0.250020 0.864560 0.439910 -0.610641
O31   O     O_R   0.605400 0.780060 0.270840 -0.644764
O32   O     O_R   0.605400 0.219940 0.270840 -0.647231
O33   O     O_R   0.105400 0.280060 0.270840 -0.645386
O34   O     O_3   0.250030 0.749970 0.500000 -0.494696
O35   O     O_R   0.105400 0.719940 0.270840 -0.647877
O36   O     O_R   0.834560 0.720000 0.729150 -0.647221
O37   O     O_R   0.834560 0.280000 0.729150 -0.647559
O38   O     O_R   0.334560 0.220000 0.729150 -0.647173
O39   O     O_R   0.334560 0.780000 0.729150 -0.647378
O40   O     O_R   0.665490 0.719970 0.270840 -0.616268
O41   O     O_R   0.665490 0.280030 0.270840 -0.602735
O42   O     O_R   0.165490 0.219970 0.270840 -0.616985
O43   O     O_R   0.165490 0.780030 0.270840 -0.602021
O44   O     O_R   0.894650 0.780070 0.729170 -0.642848
O45   O     O_R   0.810120 0.864610 0.560110 -0.642063
O46   O     O_R   0.894650 0.219930 0.729170 -0.642243
O47   O     O_R   0.394650 0.280070 0.729170 -0.642118
O48   O     O_R   0.394650 0.719930 0.729170 -0.642236
O49   O     O_3   0.132491 0.781243 0.102597 -0.595234
O50   O     O_3   0.075804 0.166526 0.102894 -0.606498
O51   O     O_3   0.633636 0.279693 0.103131 -0.596051
O52   O     O_3   0.577209 0.666817 0.102984 -0.605454
O53   O     O_R   0.810120 0.135390 0.560110 -0.643540
O54   O     O_R   0.310120 0.364610 0.560110 -0.642672
O55   O     O_R   0.310120 0.635390 0.560110 -0.642720
O56   O     O_R   0.750010 0.635450 0.560050 -0.642728
Zn1   Zn    Zn3+2 0.835880 0.792950 0.585850 0.954307
Zn2   Zn    Zn3+2 0.750030 0.292900 0.414160 0.978479
Zn3   Zn    Zn3+2 0.250030 0.207100 0.414160 0.956417
Zn4   Zn    Zn3+2 0.250030 0.792900 0.414160 0.979176
Zn5   Zn    Zn3+2 0.750010 0.707110 0.585820 0.957449
Zn6   Zn    Zn3+2 0.750010 0.292890 0.585820 0.953992
Zn7   Zn    Zn3+2 0.250010 0.207110 0.585820 0.958562
Zn8   Zn    Zn3+2 0.250010 0.792890 0.585820 0.956325
Zn9   Zn    Zn3+2 0.835880 0.207050 0.585850 0.955595
Zn10  Zn    Zn3+2 0.335880 0.292950 0.585850 0.953506
Zn11  Zn    Zn3+2 0.335880 0.707050 0.585850 0.956278
Zn12  Zn    Zn3+2 0.664180 0.792950 0.414160 0.946041
Zn13  Zn    Zn3+2 0.664180 0.207050 0.414160 0.961244
Zn14  Zn    Zn3+2 0.164180 0.292950 0.414160 0.944083
Zn15  Zn    Zn3+2 0.164180 0.707050 0.414160 0.954397
Zn16  Zn    Zn3+2 0.750030 0.707100 0.414160 0.955126

loop_
_geom_bond_atom_site_label_1
_geom_bond_atom_site_label_2
_ccdc_geom_bond_type
C61   C70   S    
C58   C62   D    
C80   H59   S    
C81   N13   S    
C21   C26   D    
C48   O4    A    
O17   Zn8   S    
C71   O49   S    
C13   N4    S    
C74   H40   S    
C70   C78   D    
C1    C8    S    
C50   C64   S    
H76   N16   S    
C59   O50   S    
C41   O53   A    
C21   N8    S    
C68   H11   S    
C90   N6    S    
C4    C8    D    
C84   H79   S    
C27   H50   S    
C87   H90   S    
C23   O16   A    
C75   H42   S    
C92   H6    S    
C56   H15   S    
H45   N9    S    
O54   Zn10  S    
O6    Zn13  S    
C43   O55   A    
C83   H73   S    
O32   Zn13  S    
H67   N14   S    
C49   C65   S    
C30   C35   D    
C51   O33   A    
C52   O43   A    
C37   O10   A    
C50   O32   A    
C10   C15   D    
O40   Zn16  S    
C14   C36   S    
C75   H43   S    
C67   H16   S    
C44   O56   A    
C89   N12   S    
C20   C25   D    
H102  N7    S    
O16   Zn7   S    
H93   N5    S    
C73   H34   S    
C29   C33   D    
O42   Zn3   S    
C86   H86   S    
C85   H84   S    
O23   Zn7   S    
C82   H69   S    
C80   H60   S    
C18   C19   S    
C17   C39   S    
O20   Zn10  S    
C4    C13   S    
O33   Zn14  S    
C35   C42   S    
C66   H10   S    
H49   N10   S    
C15   C37   S    
O35   Zn15  S    
O26   Zn15  S    
C71   H30   S    
C53   O36   A    
C49   O40   A    
C58   C66   S    
C88   H95   S    
C46   O2    A    
C47   O3    A    
O56   Zn5   S    
C85   H81   S    
H80   N2    S    
O14   Zn5   S    
C46   O28   A    
C88   N5    S    
C57   O39   A    
C31   C41   S    
C32   H2    S    
C6    C23   S    
C92   N8    S    
C8    H22   S    
C86   N3    S    
C79   H57   S    
C3    N14   S    
C76   H48   S    
O1    Zn12  S    
C45   C53   S    
C4    N15   S    
C72   H32   S    
C29   H72   S    
C60   O51   S    
C2    C6    D    
C6    H20   S    
C87   N4    S    
C10   N2    S    
C12   O6    A    
C45   H14   S    
C49   O31   A    
C42   O25   A    
C71   H29   S    
C92   H5    S    
H4    N8    S    
C23   O7    A    
O43   Zn4   S    
C75   N1    S    
C5    C89   D    
C88   H97   S    
O21   Zn11  S    
C83   H74   S    
C54   C56   S    
C55   O38   A    
O23   Zn14  S    
O22   Zn12  S    
O19   Zn9   S    
C27   C31   D    
O37   Zn6   S    
C33   C43   S    
C28   C32   D    
C81   H65   S    
O39   Zn8   S    
C20   N7    S    
C48   O30   A    
C84   H77   S    
C9    C89   S    
C87   H92   S    
C39   O21   A    
O48   Zn11  S    
H71   N15   S    
C75   H44   S    
H98   N6    S    
C12   O15   A    
C38   O20   A    
C5    H19   S    
C41   O24   A    
C84   H78   S    
C73   H35   S    
O44   Zn1   S    
C83   H75   S    
C19   N6    S    
O29   Zn3   S    
C67   C69   D    
O30   Zn4   S    
C38   O11   A    
C72   O50   S    
C25   H28   S    
C77   H51   S    
O13   Zn4   S    
O11   Zn3   S    
C29   C30   S    
C43   O26   A    
C59   C68   S    
C61   O52   S    
C82   H68   S    
C11   C16   D    
O28   Zn2   S    
O12   Zn13  S    
C1    O14   A    
H63   N13   S    
O41   Zn2   S    
C40   O45   A    
C5    C34   S    
O46   Zn9   S    
C86   H88   S    
C85   H82   S    
O4    Zn8   S    
C9    C14   D    
C51   C63   S    
O34   Zn15  S    
C78   H18   S    
O38   Zn7   S    
C18   N5    S    
O25   Zn14  S    
C81   H64   S    
C25   C48   S    
O3    Zn7   S    
C17   H26   S    
O7    Zn14  S    
C79   H55   S    
C26   C47   S    
C40   O22   A    
C90   H99   S    
C53   O44   A    
O1    Zn5   S    
C74   H38   S    
C72   H31   S    
C63   N9    S    
C28   H61   S    
C24   C44   S    
C22   H1    S    
C7    C12   S    
C34   O17   A    
C42   O54   A    
C73   O51   S    
C2    C10   S    
C44   O27   A    
C77   H53   S    
C30   H83   S    
C45   C66   D    
C32   C40   S    
C76   N9    S    
C47   O29   A    
O27   Zn16  S    
C76   H47   S    
C37   O19   A    
C79   N11   S    
C90   H100  S    
C2    N13   S    
H41   N1    S    
C81   H66   S    
O5    Zn12  S    
C22   C46   S    
C18   C22   D    
O23   Zn10  S    
C59   C63   D    
C57   C78   S    
O15   Zn6   S    
O9    Zn16  S    
C24   H17   S    
C62   N1    S    
H54   N11   S    
C35   H9    S    
C70   H13   S    
O31   Zn12  S    
C55   C67   S    
C52   O35   A    
C84   N16   S    
C82   H70   S    
C80   H62   S    
C79   H56   S    
C65   N11   S    
O18   Zn1   S    
C76   H46   S    
C73   H36   S    
O12   Zn6   S    
C91   H103  S    
O24   Zn13  S    
C57   O48   A    
C3    C7    D    
C71   H27   S    
C72   H33   S    
C60   C64   D    
C33   H8    S    
C56   C68   D    
C7    H21   S    
O34   Zn8   S    
C19   C24   D    
C77   H52   S    
H58   N12   S    
O36   Zn5   S    
C58   O49   S    
C50   O41   A    
C52   C62   S    
C77   N10   S    
C87   H91   S    
C91   H104  S    
C51   O42   A    
O53   Zn9   S    
C90   H101  S    
C64   N10   S    
C60   C69   S    
C54   O46   A    
O12   Zn9   S    
O2    Zn6   S    
C31   H94   S    
O55   Zn11  S    
C86   H87   S    
O34   Zn4   S    
C54   O37   A    
O8    Zn15  S    
C34   O8    A    
C80   N12   S    
O34   Zn11  S    
C11   N3    S    
C39   O13   A    
C3    C11   S    
O12   Zn2   S    
C13   C17   D    
O10   Zn2   S    
C61   C65   D    
C85   N2    S    
C88   H96   S    
O45   Zn1   S    
C20   C21   S    
C91   H3    S    
C36   O18   A    
H85   N3    S    
C74   H37   S    
O1    Zn1   S    
C27   C28   S    
C91   N7    S    
C15   H24   S    
O47   Zn10  S    
C1    O5    A    
C9    N16   S    
C82   N14   S    
C16   H25   S    
H89   N4    S    
O23   Zn3   S    
C36   O9    A    
O1    Zn16  S    
C83   N15   S    
C26   H39   S    
C14   H23   S    
C92   H7    S    
C16   C38   S    
C69   H12   S    
C55   O47   A    
C74   O52   S    
