data_mof_unit_25366.cif
_audit_creation_date              2012-12-10T17:18:12-0500
_audit_creation_method            fapswitch 2.2
_symmetry_space_group_name_H-M    P1
_symmetry_Int_Tables_number       1
_space_group_crystal_system       triclinic
_cell_length_a                    21.714417
_cell_length_b                    21.878886
_cell_length_c                    30.082175
_cell_angle_alpha                 89.999845
_cell_angle_beta                  89.999982
_cell_angle_gamma                 89.999241
_cell_volume                      14291.6579168

loop_
_atom_site_label
_atom_site_type_symbol
_atom_type_description
_atom_site_fract_x
_atom_site_fract_y
_atom_site_fract_z
_atom_type_partial_charge
C1    C     C_R   0.499999 0.119895 0.499998 0.858278
C2    C     C_R   0.120394 0.500000 0.499999 0.838335
C3    C     C_R   0.500001 0.880105 0.499998 0.858274
C4    C     C_R   0.879606 0.500000 0.499999 0.838336
C5    C     C_R   0.999999 0.619895 0.999998 0.858262
C6    C     C_R   0.620394 1.000000 1.000000 0.838321
C7    C     C_R   0.000001 0.380105 0.999998 0.858259
C8    C     C_R   0.379606 1.000000 0.999999 0.838322
C9    C     C_R   0.586893 0.287320 0.604457 -0.188373
C10   C     C_R   0.284703 0.339919 0.535144 -0.192589
C11   C     C_R   0.413104 0.712678 0.604456 -0.188376
C12   C     C_R   0.715296 0.660080 0.535146 -0.192591
C13   C     C_R   0.586936 0.712665 0.395560 -0.188330
C14   C     C_R   0.284703 0.660084 0.464865 -0.192605
C15   C     C_R   0.413069 0.287334 0.395557 -0.188320
C16   C     C_R   0.715297 0.339917 0.464865 -0.192605
C17   C     C_R   0.086898 0.787321 0.104455 -0.188336
C18   C     C_R   0.784703 0.839917 0.035141 -0.192583
C19   C     C_R   0.913091 0.212675 0.104451 -0.188352
C20   C     C_R   0.215297 0.160082 0.035141 -0.192584
C21   C     C_R   0.086940 0.212665 0.895561 -0.188304
C22   C     C_R   0.784705 0.160085 0.964869 -0.192601
C23   C     C_R   0.913061 0.787336 0.895561 -0.188306
C24   C     C_R   0.215294 0.839916 0.964868 -0.192612
C25   C     C_R   0.569970 0.314130 0.564852 -0.231112
C26   C     C_R   0.315426 0.390405 0.518183 -0.240672
C27   C     C_R   0.430028 0.685869 0.564851 -0.231111
C28   C     C_R   0.684574 0.609595 0.518184 -0.240668
C29   C     C_R   0.569992 0.685860 0.435161 -0.231116
C30   C     C_R   0.315426 0.609595 0.481823 -0.240670
C31   C     C_R   0.430011 0.314140 0.435159 -0.231118
C32   C     C_R   0.684574 0.390405 0.481823 -0.240670
C33   C     C_R   0.069972 0.814131 0.064850 -0.231119
C34   C     C_R   0.815426 0.890404 0.018181 -0.240674
C35   C     C_R   0.930022 0.185867 0.064846 -0.231118
C36   C     C_R   0.184574 0.109595 0.018182 -0.240674
C37   C     C_R   0.069993 0.185860 0.935162 -0.231124
C38   C     C_R   0.815427 0.109595 0.981825 -0.240673
C39   C     C_R   0.930007 0.814141 0.935162 -0.231121
C40   C     C_R   0.184573 0.890405 0.981826 -0.240665
C41   C     C_R   0.533710 0.282037 0.533177 0.073451
C42   C     C_R   0.284108 0.446306 0.511571 0.062892
C43   C     C_R   0.466289 0.717963 0.533176 0.073449
C44   C     C_R   0.715892 0.553693 0.511572 0.062891
C45   C     C_R   0.533723 0.717959 0.466828 0.073469
C46   C     C_R   0.284108 0.553693 0.488431 0.062901
C47   C     C_R   0.466279 0.282041 0.466827 0.073470
C48   C     C_R   0.715892 0.446307 0.488431 0.062902
C49   C     C_R   0.033711 0.782037 0.033176 0.073450
C50   C     C_R   0.784108 0.946306 0.011570 0.062891
C51   C     C_R   0.966285 0.217962 0.033175 0.073451
C52   C     C_R   0.215892 0.053694 0.011570 0.062890
C53   C     C_R   0.033724 0.217959 0.966828 0.073467
C54   C     C_R   0.784108 0.053693 0.988432 0.062902
C55   C     C_R   0.966276 0.782041 0.966828 0.073468
C56   C     C_R   0.215891 0.946307 0.988432 0.062903
C57   C     C_R   0.532626 0.217629 0.534931 -0.015164
C58   C     C_R   0.220647 0.449669 0.519129 -0.023162
C59   C     C_R   0.467373 0.782371 0.534930 -0.015163
C60   C     C_R   0.779353 0.550330 0.519130 -0.023160
C61   C     C_R   0.532642 0.782368 0.465071 -0.015158
C62   C     C_R   0.220647 0.550332 0.480872 -0.023170
C63   C     C_R   0.467359 0.217632 0.465071 -0.015159
C64   C     C_R   0.779353 0.449668 0.480872 -0.023172
C65   C     C_R   0.032629 0.717629 0.034930 -0.015157
C66   C     C_R   0.720647 0.949669 0.019128 -0.023162
C67   C     C_R   0.967369 0.282370 0.034929 -0.015155
C68   C     C_R   0.279353 0.050331 0.019128 -0.023161
C69   C     C_R   0.032643 0.282368 0.965072 -0.015151
C70   C     C_R   0.720647 0.050333 0.980874 -0.023171
C71   C     C_R   0.967357 0.717633 0.965071 -0.015154
C72   C     C_R   0.279352 0.949667 0.980873 -0.023167
C73   C     C_R   0.499998 0.313437 0.500001 -0.151602
C74   C     C_R   0.315263 0.499999 0.500000 -0.116131
C75   C     C_R   0.500002 0.686563 0.500001 -0.151601
C76   C     C_R   0.684737 0.500001 0.500000 -0.116132
C77   C     C_R   0.999998 0.813437 0.000001 -0.151600
C78   C     C_R   0.815263 0.999999 0.000000 -0.116129
C79   C     C_R   0.000002 0.186563 0.000000 -0.151597
C80   C     C_R   0.184737 0.000001 0.000000 -0.116130
C81   C     C_R   0.499996 0.185746 0.499999 -0.127822
C82   C     C_R   0.187679 0.500000 0.500000 -0.156533
C83   C     C_R   0.500004 0.814254 0.499999 -0.127825
C84   C     C_R   0.812321 0.500000 0.500000 -0.156533
C85   C     C_R   0.999996 0.685746 0.999999 -0.127824
C86   C     C_R   0.687678 0.000000 1.000000 -0.156532
C87   C     C_R   0.000004 0.314253 0.999999 -0.127825
C88   C     C_R   0.312321 1.000000 1.000000 -0.156532
C89   C     C_R   0.380612 0.499999 0.500000 0.856706
C90   C     C_R   0.499999 0.620077 0.500000 0.827795
C91   C     C_R   0.619388 0.500002 0.500000 0.856705
C92   C     C_R   0.500001 0.379923 0.500000 0.827797
C93   C     C_R   0.880612 0.999998 0.000000 0.856705
C94   C     C_R   0.999999 0.120077 0.000000 0.827795
C95   C     C_R   0.119388 0.000002 0.000000 0.856705
C96   C     C_R   0.000001 0.879923 0.000000 0.827796
C97   C     C_R   0.500000 1.000000 0.586647 0.859014
C98   C     C_R   0.000000 0.500000 0.586619 0.864977
C99   C     C_R   0.500000 1.000000 0.413354 0.858966
C100  C     C_R   0.000000 0.500000 0.413382 0.864931
C101  C     C_R   1.000000 0.500000 0.086647 0.859003
C102  C     C_R   0.500000 1.000000 0.086618 0.864966
C103  C     C_R   0.000000 0.500000 0.913354 0.858962
C104  C     C_R   0.500000 1.000000 0.913383 0.864908
C105  C     C_R   0.464489 0.042624 0.842860 -0.188393
C106  C     C_R   0.960704 0.460790 0.843138 -0.151130
C107  C     C_R   0.535512 0.957377 0.842860 -0.188395
C108  C     C_R   0.039297 0.539210 0.843138 -0.151128
C109  C     C_R   0.464610 0.957278 0.157145 -0.188384
C110  C     C_R   0.960609 0.539118 0.156866 -0.151093
C111  C     C_R   0.535391 0.042721 0.157145 -0.188386
C112  C     C_R   0.039391 0.460882 0.156866 -0.151080
C113  C     C_R   0.964534 0.542661 0.342858 -0.188391
C114  C     C_R   0.460682 0.960811 0.343138 -0.151122
C115  C     C_R   0.035466 0.457340 0.342858 -0.188392
C116  C     C_R   0.539318 0.039189 0.343137 -0.151131
C117  C     C_R   0.964633 0.457259 0.657147 -0.188383
C118  C     C_R   0.460566 0.039076 0.656868 -0.151087
C119  C     C_R   0.035368 0.542740 0.657147 -0.188383
C120  C     C_R   0.539434 0.960924 0.656868 -0.151083
C121  C     C_R   0.500001 0.000000 0.865495 -0.042474
C122  C     C_R   0.000000 0.500000 0.865683 -0.038982
C123  C     C_R   0.500000 1.000000 0.134509 -0.042627
C124  C     C_R   1.000000 0.500000 0.134321 -0.038968
C125  C     C_R   0.000000 0.500000 0.365493 -0.042531
C126  C     C_R   0.500000 1.000000 0.365682 -0.038989
C127  C     C_R   0.000001 0.500000 0.634510 -0.042655
C128  C     C_R   0.500000 1.000000 0.634322 -0.038982
C129  C     C_R   0.537184 0.957346 0.796462 0.069270
C130  C     C_R   0.038920 0.541100 0.796751 0.100120
C131  C     C_R   0.462817 0.042655 0.796461 0.069270
C132  C     C_R   0.961080 0.458899 0.796751 0.100119
C133  C     C_R   0.537056 0.042763 0.203544 0.069230
C134  C     C_R   0.039022 0.458994 0.203254 0.100109
C135  C     C_R   0.462945 0.957236 0.203544 0.069229
C136  C     C_R   0.960978 0.541006 0.203254 0.100100
C137  C     C_R   0.037136 0.457305 0.296459 0.069255
C138  C     C_R   0.538944 0.041078 0.296750 0.100113
C139  C     C_R   0.962864 0.542696 0.296459 0.069254
C140  C     C_R   0.461057 0.958921 0.296750 0.100120
C141  C     C_R   0.037032 0.542784 0.703546 0.069221
C142  C     C_R   0.539069 0.959038 0.703256 0.100097
C143  C     C_R   0.962969 0.457215 0.703546 0.069222
C144  C     C_R   0.460932 0.040962 0.703256 0.100096
C145  C     C_R   0.500001 0.000000 0.773116 0.045795
C146  C     C_R   0.000001 0.500000 0.773398 0.061454
C147  C     C_R   0.500000 1.000000 0.226889 0.045808
C148  C     C_R   0.000000 0.500000 0.226607 0.061618
C149  C     C_R   0.000000 0.500000 0.273114 0.045800
C150  C     C_R   0.500000 1.000000 0.273397 0.061488
C151  C     C_R   0.000001 0.499999 0.726891 0.045812
C152  C     C_R   0.500000 0.000000 0.726609 0.061684
C153  C     C_R   0.575169 0.915830 0.773155 -0.058614
C154  C     C_R   0.076188 0.583252 0.773481 -0.052311
C155  C     C_R   0.424833 0.084171 0.773155 -0.058613
C156  C     C_R   0.923814 0.416747 0.773481 -0.052318
C157  C     C_R   0.574908 0.084396 0.226851 -0.058658
C158  C     C_R   0.076399 0.416937 0.226524 -0.052428
C159  C     C_R   0.425094 0.915602 0.226852 -0.058659
C160  C     C_R   0.923602 0.583064 0.226524 -0.052433
C161  C     C_R   0.075072 0.415745 0.273153 -0.058629
C162  C     C_R   0.576236 0.083208 0.273480 -0.052343
C163  C     C_R   0.924930 0.584256 0.273152 -0.058628
C164  C     C_R   0.423765 0.916791 0.273480 -0.052337
C165  C     C_R   0.074859 0.584440 0.726852 -0.058667
C166  C     C_R   0.576495 0.917024 0.726526 -0.052473
C167  C     C_R   0.925143 0.415559 0.726853 -0.058666
C168  C     C_R   0.423506 0.082976 0.726526 -0.052478
C169  C     C_R   0.563752 0.189545 0.572657 -0.201540
C170  C     C_R   0.194224 0.402823 0.546025 -0.117381
C171  C     C_R   0.436247 0.810454 0.572656 -0.201538
C172  C     C_R   0.805776 0.597176 0.546026 -0.117383
C173  C     C_R   0.563783 0.810446 0.427349 -0.201616
C174  C     C_R   0.194224 0.597182 0.453980 -0.117386
C175  C     C_R   0.436219 0.189553 0.427349 -0.201620
C176  C     C_R   0.805776 0.402818 0.453980 -0.117384
C177  C     C_R   0.063758 0.689545 0.072654 -0.201575
C178  C     C_R   0.694224 0.902821 0.046023 -0.117378
C179  C     C_R   0.936238 0.310453 0.072654 -0.201567
C180  C     C_R   0.305776 0.097178 0.046023 -0.117378
C181  C     C_R   0.063787 0.310446 0.927351 -0.201633
C182  C     C_R   0.694224 0.097186 0.953983 -0.117383
C183  C     C_R   0.936214 0.689554 0.927350 -0.201634
C184  C     C_R   0.305775 0.902815 0.953982 -0.117389
C185  C     C_R   0.579859 0.225150 0.609937 0.462396
C186  C     C_R   0.224645 0.346148 0.550729 0.453660
C187  C     C_R   0.420139 0.774848 0.609936 0.462395
C188  C     C_R   0.775355 0.653850 0.550731 0.453661
C189  C     C_R   0.579912 0.774835 0.390075 0.462368
C190  C     C_R   0.224645 0.653857 0.449279 0.453663
C191  C     C_R   0.420093 0.225164 0.390074 0.462365
C192  C     C_R   0.775355 0.346143 0.449279 0.453661
C193  C     C_R   0.079867 0.725150 0.109935 0.462378
C194  C     C_R   0.724645 0.846146 0.050726 0.453658
C195  C     C_R   0.920123 0.274845 0.109932 0.462381
C196  C     C_R   0.275355 0.153853 0.050726 0.453659
C197  C     C_R   0.079917 0.274835 0.890077 0.462353
C198  C     C_R   0.724646 0.153861 0.949285 0.453659
C199  C     C_R   0.920085 0.725166 0.890077 0.462355
C200  C     C_R   0.275352 0.846141 0.949281 0.453661
H1    H     H_    0.437138 0.074634 0.861973 0.161126
H2    H     H_    0.931299 0.430693 0.862318 0.148705
H3    H     H_    0.562863 0.925366 0.861974 0.161125
H4    H     H_    0.068702 0.569307 0.862318 0.148702
H5    H     H_    0.437349 0.925191 0.138034 0.161247
H6    H     H_    0.931131 0.569146 0.137687 0.148776
H7    H     H_    0.562652 0.074808 0.138034 0.161247
H8    H     H_    0.068869 0.430853 0.137688 0.148775
H9    H     H_    0.937217 0.574700 0.361970 0.161170
H10   H     H_    0.431260 0.930730 0.362318 0.148722
H11   H     H_    0.062784 0.425301 0.361971 0.161170
H12   H     H_    0.568740 0.069270 0.362317 0.148724
H13   H     H_    0.937389 0.425158 0.638036 0.161269
H14   H     H_    0.431056 0.069073 0.637690 0.148813
H15   H     H_    0.062612 0.574841 0.638036 0.161268
H16   H     H_    0.568944 0.930927 0.637690 0.148810
H17   H     H_    0.608503 0.314765 0.630049 0.196499
H18   H     H_    0.309525 0.297386 0.539313 0.204496
H19   H     H_    0.391494 0.685233 0.630048 0.196498
H20   H     H_    0.690475 0.702612 0.539315 0.204489
H21   H     H_    0.608558 0.685215 0.369975 0.196502
H22   H     H_    0.309524 0.702616 0.460700 0.204495
H23   H     H_    0.391449 0.314784 0.369971 0.196501
H24   H     H_    0.690476 0.297384 0.460700 0.204498
H25   H     H_    0.108509 0.814766 0.130047 0.196497
H26   H     H_    0.809525 0.797385 0.039309 0.204496
H27   H     H_    0.891478 0.185229 0.130040 0.196499
H28   H     H_    0.190476 0.202615 0.039309 0.204496
H29   H     H_    0.108562 0.185215 0.869977 0.196503
H30   H     H_    0.809526 0.202617 0.960705 0.204497
H31   H     H_    0.891440 0.814786 0.869976 0.196503
H32   H     H_    0.190472 0.797384 0.960703 0.204495
H33   H     H_    0.584823 0.360749 0.560624 0.186004
H34   H     H_    0.363761 0.385321 0.510396 0.148504
H35   H     H_    0.415175 0.639250 0.560622 0.186003
H36   H     H_    0.636239 0.614679 0.510397 0.148502
H37   H     H_    0.584838 0.639239 0.439393 0.185993
H38   H     H_    0.363760 0.614678 0.489612 0.148504
H39   H     H_    0.415164 0.360760 0.439391 0.185995
H40   H     H_    0.636240 0.385322 0.489612 0.148505
H41   H     H_    0.084824 0.860750 0.060623 0.186004
H42   H     H_    0.863761 0.885321 0.010395 0.148502
H43   H     H_    0.915171 0.139248 0.060617 0.186000
H44   H     H_    0.136239 0.114679 0.010395 0.148501
H45   H     H_    0.084839 0.139239 0.939394 0.185992
H46   H     H_    0.863761 0.114677 0.989613 0.148503
H47   H     H_    0.915161 0.860761 0.939394 0.185992
H48   H     H_    0.136239 0.885323 0.989615 0.148503
O1    O     O_R   0.448270 0.091550 0.500010 -0.625683
O2    O     O_R   0.091550 0.551730 0.500010 -0.610297
O3    O     O_R   0.551730 0.908450 0.500010 -0.625684
O4    O     O_R   0.908450 0.448270 0.500010 -0.610296
O5    O     O_R   0.448270 0.908450 0.499990 -0.625678
O6    O     O_R   0.091550 0.448270 0.499990 -0.610293
O7    O     O_R   0.551730 0.091550 0.499990 -0.625677
O8    O     O_R   0.908450 0.551730 0.499990 -0.610293
O9    O     O_R   0.948270 0.591550 0.000010 -0.625685
O10   O     O_R   0.591550 0.051730 0.000010 -0.610298
O11   O     O_R   0.051730 0.408450 0.000010 -0.625686
O12   O     O_R   0.408450 0.948270 0.000010 -0.610300
O13   O     O_R   0.948270 0.408450 0.999990 -0.625681
O14   O     O_R   0.591550 0.948270 0.999990 -0.610294
O15   O     O_R   0.051730 0.591550 0.999990 -0.625683
O16   O     O_R   0.408450 0.051730 0.999990 -0.610293
O17   O     O_R   0.448260 0.999910 0.566090 -0.615248
O18   O     O_R   0.999910 0.551740 0.566090 -0.605792
O19   O     O_R   0.551740 0.000090 0.566090 -0.615248
O20   O     O_R   0.000090 0.448260 0.566090 -0.605792
O21   O     O_R   0.448260 0.000090 0.433910 -0.615208
O22   O     O_R   0.999910 0.448260 0.433910 -0.605751
O23   O     O_R   0.551740 0.999910 0.433910 -0.615211
O24   O     O_R   0.000090 0.551740 0.433910 -0.605751
O25   O     O_R   0.948260 0.499910 0.066090 -0.615235
O26   O     O_R   0.499910 0.051740 0.066090 -0.605782
O27   O     O_R   0.051740 0.500090 0.066090 -0.615228
O28   O     O_R   0.500090 0.948260 0.066090 -0.605782
O29   O     O_R   0.948260 0.500090 0.933910 -0.615201
O30   O     O_R   0.499910 0.948260 0.933910 -0.605735
O31   O     O_R   0.051740 0.499910 0.933910 -0.615202
O32   O     O_R   0.500090 0.051740 0.933910 -0.605732
O33   O     O_R   0.408410 0.499950 0.462690 -0.616588
O34   O     O_R   0.499950 0.591590 0.462690 -0.620255
O35   O     O_R   0.591590 0.500050 0.462690 -0.616588
O36   O     O_R   0.500050 0.408410 0.462690 -0.620256
O37   O     O_R   0.408410 0.500050 0.537310 -0.616587
O38   O     O_R   0.499950 0.408410 0.537310 -0.620264
O39   O     O_R   0.591590 0.499950 0.537310 -0.616587
O40   O     O_R   0.500050 0.591590 0.537310 -0.620264
O41   O     O_R   0.908410 0.999950 0.962690 -0.616589
O42   O     O_R   0.999950 0.091590 0.962690 -0.620256
O43   O     O_R   0.091590 0.000050 0.962690 -0.616589
O44   O     O_R   0.000050 0.908410 0.962690 -0.620255
O45   O     O_R   0.908410 0.000050 0.037310 -0.616588
O46   O     O_R   0.999950 0.908410 0.037310 -0.620264
O47   O     O_R   0.091590 0.999950 0.037310 -0.616588
O48   O     O_R   0.000050 0.091590 0.037310 -0.620262
Zn1   Zn    Zn3+2 0.430920 0.000000 0.500000 1.028612
Zn2   Zn    Zn3+2 0.000000 0.569080 0.500000 1.082229
Zn3   Zn    Zn3+2 0.569080 0.000000 0.500000 1.028612
Zn4   Zn    Zn3+2 0.000000 0.430920 0.500000 1.082229
Zn5   Zn    Zn3+2 0.930920 0.500000 0.000000 1.028617
Zn6   Zn    Zn3+2 0.500000 0.069080 0.000000 1.082246
Zn7   Zn    Zn3+2 0.069080 0.500000 0.000000 1.028620
Zn8   Zn    Zn3+2 0.500000 0.930920 0.000000 1.082244
Zn9   Zn    Zn3+2 0.500000 0.500000 0.450200 0.998113
Zn10  Zn    Zn3+2 0.500000 0.500000 0.549800 0.998105
Zn11  Zn    Zn3+2 0.000000 0.000000 0.950200 0.998111
Zn12  Zn    Zn3+2 0.000000 1.000000 0.049800 0.998104
C201  C     C_1   0.613431 0.872087 0.796827 0.211136
N1    N     N_1   0.643916 0.837254 0.815650 -0.134825
C202  C     C_1   0.115445 0.626069 0.797208 0.217203
N2    N     N_1   0.146681 0.660180 0.816089 -0.130529
C203  C     C_1   0.386571 0.127915 0.796827 0.211136
N3    N     N_1   0.356086 0.162747 0.815650 -0.134825
C204  C     C_1   0.884556 0.373930 0.797209 0.217202
N4    N     N_1   0.853320 0.339819 0.816090 -0.130485
C205  C     C_1   0.613028 0.128261 0.203179 0.211203
N5    N     N_1   0.643400 0.163190 0.184357 -0.134752
C206  C     C_1   0.115774 0.374225 0.202797 0.217088
N6    N     N_1   0.147104 0.340198 0.183917 -0.130431
C207  C     C_1   0.386974 0.871737 0.203180 0.211201
N7    N     N_1   0.356604 0.836806 0.184357 -0.134754
C208  C     C_1   0.884228 0.625777 0.202797 0.217088
N8    N     N_1   0.852899 0.659805 0.183916 -0.130428
C209  C     C_1   0.113281 0.371955 0.296824 0.211160
N9    N     N_1   0.143724 0.337085 0.315647 -0.134796
C210  C     C_1   0.615520 0.126000 0.297208 0.217176
N10   N     N_1   0.646777 0.160091 0.316089 -0.130471
C211  C     C_1   0.886721 0.628047 0.296824 0.211165
N11   N     N_1   0.856279 0.662917 0.315646 -0.134792
C212  C     C_1   0.384482 0.873998 0.297208 0.217176
N12   N     N_1   0.353226 0.839906 0.316090 -0.130489
C213  C     C_1   0.112952 0.628329 0.703181 0.211217
N13   N     N_1   0.143302 0.663278 0.684360 -0.134739
C214  C     C_1   0.615922 0.874360 0.702800 0.217033
N14   N     N_1   0.647294 0.840371 0.683919 -0.130440
C215  C     C_1   0.887050 0.371670 0.703182 0.211217
N15   N     N_1   0.856700 0.336720 0.684360 -0.134739
C216  C     C_1   0.384079 0.125641 0.702799 0.217032
N16   N     N_1   0.352707 0.159630 0.683919 -0.130408
S1    S     S_3+6 0.395577 0.192379 0.339142 0.029605
O49   O     O_2   0.408487 0.235702 0.301490 -0.258469
O50   O     O_2   0.428854 0.133179 0.331132 -0.327580
O51   O     O_3   0.319419 0.179096 0.341895 -0.531872
H49   H     H_    0.309008 0.159139 0.313309 0.399716
S2    S     S_3+6 0.190503 0.715983 0.420839 0.051837
O52   O     O_2   0.196842 0.705831 0.371638 -0.264112
O53   O     O_2   0.123360 0.719943 0.432670 -0.265134
O54   O     O_3   0.225786 0.781675 0.434810 -0.546642
H50   H     H_    0.205622 0.813432 0.416398 0.400167
S3    S     S_3+6 0.604428 0.807620 0.339144 0.029609
O55   O     O_2   0.591543 0.764288 0.301494 -0.258461
O56   O     O_2   0.571132 0.866808 0.331125 -0.327584
O57   O     O_3   0.680581 0.820932 0.341904 -0.531875
H51   H     H_    0.690990 0.840893 0.313320 0.399714
S4    S     S_3+6 0.809497 0.284018 0.420839 0.051837
O58   O     O_2   0.803164 0.294171 0.371638 -0.264082
O59   O     O_2   0.876639 0.280055 0.432674 -0.265159
O60   O     O_3   0.774212 0.218325 0.434807 -0.546646
H52   H     H_    0.794394 0.186566 0.416409 0.400171
S5    S     S_3+6 0.395663 0.807644 0.660874 0.029626
O61   O     O_2   0.408553 0.764309 0.698522 -0.258412
O62   O     O_2   0.428987 0.866819 0.668880 -0.327581
O63   O     O_3   0.319514 0.820987 0.658136 -0.531920
H53   H     H_    0.309132 0.840967 0.686718 0.399694
S6    S     S_3+6 0.190503 0.284028 0.579175 0.051839
O64   O     O_2   0.196838 0.294189 0.628375 -0.264092
O65   O     O_2   0.123361 0.280065 0.567342 -0.265159
O66   O     O_3   0.225788 0.218332 0.565212 -0.546633
H54   H     H_    0.205618 0.186578 0.583622 0.400175
S7    S     S_3+6 0.604336 0.192354 0.660875 0.029624
O67   O     O_2   0.591438 0.235685 0.698523 -0.258414
O68   O     O_2   0.571018 0.133174 0.668879 -0.327582
O69   O     O_3   0.680487 0.179021 0.658138 -0.531919
H55   H     H_    0.690870 0.159041 0.686721 0.399694
S8    S     S_3+6 0.809495 0.715969 0.579179 0.051844
O70   O     O_2   0.803155 0.705805 0.628379 -0.264151
O71   O     O_2   0.876639 0.719932 0.567350 -0.265097
O72   O     O_3   0.774212 0.781665 0.565216 -0.546624
H56   H     H_    0.794336 0.813409 0.583661 0.400170
S9    S     S_3+6 0.895562 0.692383 0.839146 0.029602
O73   O     O_2   0.908473 0.735704 0.801494 -0.258477
O74   O     O_2   0.928832 0.633179 0.831134 -0.327583
O75   O     O_3   0.819403 0.679106 0.841901 -0.531859
H57   H     H_    0.808987 0.659153 0.813315 0.399722
S10   S     S_3+6 0.690503 0.215989 0.920848 0.051841
O76   O     O_2   0.696836 0.205840 0.871646 -0.264091
O77   O     O_2   0.623361 0.219951 0.932683 -0.265141
O78   O     O_3   0.725789 0.281680 0.934819 -0.546646
H58   H     H_    0.705612 0.313441 0.916419 0.400169
S11   S     S_3+6 0.104441 0.307619 0.839147 0.029601
O79   O     O_2   0.091529 0.264298 0.801494 -0.258478
O80   O     O_2   0.071172 0.366824 0.831135 -0.327583
O81   O     O_3   0.180601 0.320893 0.841903 -0.531859
H59   H     H_    0.191017 0.340845 0.813316 0.399721
S12   S     S_3+6 0.309492 0.784016 0.920840 0.051849
O82   O     O_2   0.303180 0.794185 0.871639 -0.264166
O83   O     O_2   0.376629 0.780036 0.932687 -0.265059
O84   O     O_3   0.274188 0.718326 0.934790 -0.546645
H60   H     H_    0.294308 0.686582 0.916344 0.400164
S13   S     S_3+6 0.895633 0.307638 0.160867 0.029615
O85   O     O_2   0.908533 0.264308 0.198517 -0.258434
O86   O     O_2   0.928937 0.366824 0.168874 -0.327586
O87   O     O_3   0.819479 0.320955 0.158125 -0.531901
H61   H     H_    0.809086 0.340927 0.186709 0.399703
S14   S     S_3+6 0.690502 0.784024 0.079169 0.051843
O88   O     O_2   0.696838 0.794181 0.128369 -0.264090
O89   O     O_2   0.623360 0.780063 0.067336 -0.265152
O90   O     O_3   0.725787 0.718329 0.065203 -0.546633
H62   H     H_    0.705615 0.686574 0.083610 0.400174
S15   S     S_3+6 0.104355 0.692357 0.160871 0.029606
O91   O     O_2   0.091411 0.735669 0.198523 -0.258453
O92   O     O_2   0.071084 0.633149 0.168862 -0.327584
O93   O     O_3   0.180518 0.679087 0.158144 -0.531889
H63   H     H_    0.190912 0.659124 0.186731 0.399708
S16   S     S_3+6 0.309498 0.215975 0.079169 0.051841
O94   O     O_2   0.303163 0.205817 0.128370 -0.264093
O95   O     O_2   0.376640 0.219936 0.067336 -0.265153
O96   O     O_3   0.274214 0.281670 0.065204 -0.546632
H64   H     H_    0.294386 0.313425 0.083611 0.400174
C217  C     C_1   0.600696 0.134928 0.569990 0.355686
N17   N     N_1   0.633061 0.092896 0.568881 -0.105176
C218  C     C_1   0.149358 0.418152 0.579531 0.307782
N18   N     N_1   0.115126 0.429561 0.607715 -0.165639
C219  C     C_1   0.399305 0.865072 0.569990 0.355686
N19   N     N_1   0.366940 0.907104 0.568881 -0.105174
C220  C     C_1   0.850641 0.581845 0.579532 0.307781
N20   N     N_1   0.884873 0.570436 0.607716 -0.165639
C221  C     C_1   0.600711 0.865073 0.430016 0.355705
N21   N     N_1   0.633065 0.907112 0.431124 -0.105119
C222  C     C_1   0.149355 0.581861 0.420474 0.307775
N22   N     N_1   0.115120 0.570460 0.392291 -0.165632
C223  C     C_1   0.399289 0.134929 0.430016 0.355705
N23   N     N_1   0.366934 0.092891 0.431125 -0.105126
C224  C     C_1   0.850645 0.418139 0.420474 0.307775
N24   N     N_1   0.884880 0.429541 0.392291 -0.165633
C225  C     C_1   0.100703 0.634928 0.069986 0.355706
N25   N     N_1   0.133067 0.592897 0.068876 -0.105158
C226  C     C_1   0.649358 0.918148 0.079529 0.307780
N26   N     N_1   0.615125 0.929555 0.107713 -0.165636
C227  C     C_1   0.899298 0.365072 0.069986 0.355701
N27   N     N_1   0.866936 0.407107 0.068878 -0.105156
C228  C     C_1   0.350642 0.081851 0.079529 0.307781
N28   N     N_1   0.384875 0.070443 0.107714 -0.165638
C229  C     C_1   0.100716 0.365072 0.930019 0.355720
N29   N     N_1   0.133070 0.407111 0.931128 -0.105115
C230  C     C_1   0.649354 0.081869 0.920477 0.307771
N30   N     N_1   0.615118 0.070471 0.892294 -0.165629
C231  C     C_1   0.899286 0.634928 0.930018 0.355714
N31   N     N_1   0.866932 0.592889 0.931127 -0.105115
C232  C     C_1   0.350646 0.918133 0.920477 0.307772
N32   N     N_1   0.384883 0.929531 0.892294 -0.165624

loop_
_geom_bond_atom_site_label_1
_geom_bond_atom_site_label_2
_ccdc_geom_bond_type
S11   O81   S    
C220  N20   T    
C89   O37   A    
C153  C166  A    
S15   O92   D    
C219  N19   T    
C94   O42   A    
C91   O39   A    
O4    Zn4   S    
C107  C129  A    
C53   C69   A    
C104  O32   A    
C215  N15   T    
C105  C131  A    
C179  C195  A    
C225  N25   T    
C106  C132  A    
O14   Zn8   S    
C46   C62   A    
S12   O83   D    
C112  C124  A    
C58   C82   A    
C130  C146  A    
C182  C230  S    
C22   C38   A    
C37   H45   S    
C64   C84   A    
C75   C90   S    
C72   C88   A    
C7    O11   A    
C162  C210  S    
C56   C72   A    
C8    O16   A    
C57   C169  A    
C180  C196  A    
S8    O72   S    
C143  C151  A    
O47   Zn12  S    
S13   O86   D    
C141  C151  A    
C42   C58   A    
C59   C171  A    
C2    O6    A    
C183  C231  S    
C153  C201  S    
O37   Zn10  S    
C43   C75   A    
S5    O63   S    
O18   Zn2   S    
C135  C159  A    
C208  N8    T    
C160  C163  A    
C71   C183  A    
C147  C150  A    
C4    O4    A    
O34   Zn9   S    
C25   C41   A    
C213  N13   T    
C28   C44   A    
S4    O60   S    
C29   C45   A    
S10   O77   D    
C3    O5    A    
C178  C194  A    
C22   H30   S    
C11   C27   A    
S3    O56   D    
C172  C220  S    
C61   C173  A    
C138  C162  A    
O15   Zn7   S    
C102  O26   A    
C117  H13   S    
C168  C216  S    
O40   Zn10  S    
C177  C193  A    
C97   O17   A    
C98   C127  S    
C7    O13   A    
C35   C51   A    
S9    O73   D    
C119  C141  A    
C157  C205  S    
C16   H24   S    
S10   O78   S    
C102  C123  S    
O12   Zn8   S    
C15   C191  A    
O17   Zn1   S    
C96   O44   A    
C112  C134  A    
C193  S15   S    
C164  C212  S    
O41   Zn11  S    
C178  C226  S    
S16   O94   D    
C132  C146  A    
C19   C35   A    
C137  C161  A    
C194  S14   S    
C229  N29   T    
O33   Zn9   S    
O81   H59   S    
C41   C57   A    
C214  N14   T    
O46   Zn12  S    
C24   C200  A    
C207  N7    T    
O60   H52   S    
C5    O15   A    
C67   C179  A    
O90   H62   S    
C186  S6    S    
C33   C49   A    
C157  C162  A    
C12   H20   S    
C23   H31   S    
C69   C181  A    
C35   H43   S    
O54   H50   S    
C109  C135  A    
C48   C76   A    
C33   H41   S    
S3    O55   D    
C181  C197  A    
S13   O85   D    
S3    O57   S    
C221  N21   T    
O10   Zn6   S    
O8    Zn2   S    
C3    O3    A    
C114  C126  A    
C1    O1    A    
C94   O48   A    
O84   H60   S    
C105  H1    S    
O63   H53   S    
C45   C61   A    
C44   C76   A    
C19   H27   S    
O69   H55   S    
C17   H25   S    
C97   O19   A    
C115  C137  A    
C98   O20   A    
C184  C200  A    
S9    O75   S    
C113  C139  A    
C154  C165  A    
O19   Zn3   S    
C133  C147  A    
C95   O43   A    
C64   C176  A    
O5    Zn1   S    
C108  C130  A    
C36   C52   A    
C43   C59   A    
C5    C85   S    
C26   H34   S    
C30   H38   S    
C97   C128  S    
S4    O59   D    
S8    O71   D    
C99   C126  S    
S1    O50   D    
C39   C55   A    
C101  C124  S    
C166  C214  S    
S16   O96   S    
O87   H61   S    
C79   C94   S    
C130  C154  A    
C109  C123  A    
O2    Zn2   S    
C8    C88   S    
C8    O12   A    
C107  H3    S    
C142  C166  A    
C50   C66   A    
O24   Zn2   S    
S2    O53   D    
C222  N22   T    
S7    O69   S    
C106  C122  A    
C5    O9    A    
C93   O45   A    
C6    O14   A    
C51   C67   A    
C80   C95   S    
C109  H5    S    
S6    O66   S    
C143  C167  A    
C136  C148  A    
O44   Zn11  S    
C28   H36   S    
C134  C158  A    
C135  C147  A    
C4    O8    A    
O39   Zn10  S    
C111  H7    S    
S13   O87   S    
C26   C42   A    
S2    O54   S    
C159  C207  S    
C9    H17   S    
S11   O80   D    
C165  C213  S    
C30   C46   A    
C73   C92   S    
C13   H21   S    
C66   C86   A    
C15   C31   A    
C140  C164  A    
C77   C96   S    
C141  C165  A    
C20   H28   S    
C115  H11   S    
C139  C163  A    
C113  H9    S    
C92   O36   A    
C129  C153  A    
C65   C177  A    
C98   O18   A    
C160  C208  S    
O20   Zn4   S    
C99   O23   A    
C132  C156  A    
C49   C77   A    
C131  C145  A    
C133  C157  A    
C51   C79   A    
C145  C152  A    
O6    Zn4   S    
C76   C91   S    
C41   C73   A    
C146  C151  A    
C14   C190  A    
O51   H49   S    
O57   H51   S    
C159  C164  A    
C169  C217  S    
C189  S3    S    
C180  C228  S    
C11   H19   S    
S6    O65   D    
O30   Zn8   S    
C9    C25   A    
O72   H56   S    
C197  S11   S    
C100  O22   A    
C119  H15   S    
S5    O62   D    
C10   H18   S    
C217  N17   T    
C12   C28   A    
C13   C29   A    
C59   C83   A    
C188  S8    S    
C47   C63   A    
C177  C225  S    
C48   C64   A    
C18   C194  A    
C1    C81   S    
S7    O67   D    
C38   H46   S    
O26   Zn6   S    
C142  C152  A    
S6    O64   D    
C199  S9    S    
C158  C161  A    
C110  C124  A    
C110  C136  A    
C70   C182  A    
C7    C87   S    
O96   H64   S    
C40   C56   A    
C173  C221  S    
C69   C87   A    
C62   C82   A    
C204  N4    T    
C185  S7    S    
C31   C47   A    
S15   O93   S    
C32   C48   A    
C187  S5    S    
C17   C33   A    
C50   C78   A    
O29   Zn5   S    
C42   C74   A    
O31   Zn7   S    
C111  C123  A    
C230  N30   T    
C36   H44   S    
C170  C218  S    
C47   C73   A    
C92   O38   A    
C61   C83   A    
O45   Zn12  S    
S1    O49   D    
C99   O21   A    
O3    Zn3   S    
C95   O47   A    
C212  N12   T    
C117  C143  A    
C216  N16   T    
C38   C54   A    
C155  C168  A    
C21   H29   S    
C170  C186  A    
C90   O40   A    
C118  H14   S    
S12   O82   D    
C63   C175  A    
C117  C127  A    
C72   C184  A    
C174  C190  A    
C39   H47   S    
O28   Zn8   S    
C63   C81   A    
O43   Zn11  S    
O93   H63   S    
C2    C82   S    
C16   C32   A    
C107  C121  A    
C200  S12   S    
C100  O24   A    
C31   H39   S    
C174  C222  S    
C53   C79   A    
C196  S16   S    
C22   C198  A    
C176  C224  S    
C24   H32   S    
C56   C80   A    
C120  C128  A    
C89   O33   A    
C93   O41   A    
C6    O10   A    
O32   Zn6   S    
C131  C155  A    
S10   O76   D    
O23   Zn3   S    
C210  N10   T    
C116  H12   S    
O48   Zn12  S    
C203  N3    T    
C44   C60   A    
C21   C197  A    
C139  C149  A    
C15   H23   S    
C209  N9    T    
C96   O46   A    
C169  C185  A    
C206  N6    T    
C20   C36   A    
C27   C43   A    
C21   C37   A    
C144  C152  A    
C156  C204  S    
S15   O91   D    
S9    O74   D    
S14   O88   D    
C163  C211  S    
C52   C80   A    
C103  C122  S    
C1    O7    A    
S16   O95   D    
C54   C78   A    
C62   C174  A    
C195  S13   S    
O1    Zn1   S    
C202  N2    T    
C19   C195  A    
C34   H42   S    
C211  N11   T    
C17   C193  A    
C182  C198  A    
S12   O84   S    
C103  O31   A    
C226  N26   T    
O75   H57   S    
O21   Zn1   S    
C227  N27   T    
S11   O79   D    
C201  N1    T    
C138  C150  A    
C66   C178  A    
O42   Zn11  S    
C49   C65   A    
C144  C168  A    
C11   C187  A    
C190  S2    S    
C74   C89   S    
C58   C170  A    
O25   Zn5   S    
C9    C185  A    
C2    O2    A    
C175  C191  A    
C55   C77   A    
O27   Zn7   S    
C176  C192  A    
C113  C125  A    
C78   C93   S    
C12   C188  A    
C23   C199  A    
C192  S4    S    
C13   C189  A    
C173  C189  A    
C18   H26   S    
C10   C186  A    
C71   C85   A    
S7    O68   D    
S14   O90   S    
C4    C84   S    
C55   C71   A    
C161  C209  S    
C184  C232  S    
C16   C192  A    
C54   C70   A    
C52   C68   A    
C27   H35   S    
C154  C202  S    
C10   C26   A    
O38   Zn10  S    
C25   H33   S    
C116  C126  A    
C101  O25   A    
C118  C128  A    
C14   C30   A    
C29   H37   S    
C40   H48   S    
C116  C138  A    
C34   C50   A    
C100  C125  S    
C60   C172  A    
C120  C142  A    
C148  C149  A    
C112  H8    S    
C175  C223  S    
C104  O30   A    
C218  N18   T    
C111  C133  A    
C104  C121  S    
C32   H40   S    
C156  C167  A    
O13   Zn5   S    
C68   C180  A    
C183  C199  A    
C232  N32   T    
C136  C160  A    
C106  H2    S    
O36   Zn9   S    
C105  C121  A    
C110  H6    S    
C158  C206  S    
C191  S1    S    
C91   O35   A    
C18   C34   A    
C90   O34   A    
C179  C227  S    
C137  C149  A    
C231  N31   T    
C114  C140  A    
C68   C88   A    
C57   C81   A    
C103  O29   A    
C118  C144  A    
O7    Zn3   S    
C70   C86   A    
C140  C150  A    
C6    C86   S    
C46   C74   A    
S8    O70   D    
C167  C215  S    
O22   Zn4   S    
O66   H54   S    
C155  C203  S    
S1    O51   S    
C181  C229  S    
C14   H22   S    
C108  C122  A    
C65   C85   A    
C120  H16   S    
C134  C148  A    
S5    O61   D    
C67   C87   A    
C115  C125  A    
C171  C187  A    
C45   C75   A    
C114  H10   S    
C171  C219  S    
C37   C53   A    
C228  N28   T    
C108  H4    S    
C3    C83   S    
C60   C84   A    
O9    Zn5   S    
S2    O52   D    
O78   H58   S    
C172  C188  A    
C23   C39   A    
O11   Zn7   S    
S4    O58   D    
C24   C40   A    
S14   O89   D    
C129  C145  A    
C205  N5    T    
O16   Zn6   S    
C224  N24   T    
C198  S10   S    
C223  N23   T    
C101  O27   A    
C102  O28   A    
C20   C196  A    
O35   Zn9   S    
C119  C127  A    
