data_mof_unit_41633.cif
_audit_creation_date              2012-12-10T19:09:36-0500
_audit_creation_method            fapswitch 2.2
_symmetry_space_group_name_H-M    P1
_symmetry_Int_Tables_number       1
_space_group_crystal_system       triclinic
_cell_length_a                    9.574533
_cell_length_b                    10.786
_cell_length_c                    17.102592
_cell_angle_alpha                 89.074672
_cell_angle_beta                  93.562625
_cell_angle_gamma                 89.826533
_cell_volume                      1762.54280137

loop_
_atom_site_label
_atom_site_type_symbol
_atom_type_description
_atom_site_fract_x
_atom_site_fract_y
_atom_site_fract_z
_atom_type_partial_charge
C1    C     C_R   0.500235 0.262573 0.499523 0.786245
C2    C     C_R   0.656489 0.494156 0.778890 -0.178537
C3    C     C_R   0.583428 0.472390 0.141442 -0.147857
C4    C     C_R   0.590906 0.470322 0.222823 -0.197358
C5    C     C_R   0.456983 0.504759 0.099165 0.373166
C6    C     C_R   0.473215 0.500793 0.263466 -0.061261
C7    C     C_R   0.346811 0.531272 0.221499 -0.198570
C8    C     C_R   0.339107 0.532961 0.139890 -0.178864
C9    C     C_R   0.613653 0.063076 0.532120 0.101479
C10   C     C_R   0.501908 0.129415 0.495658 -0.065893
C11   C     C_R   0.395161 0.066137 0.453104 -0.208123
C12   C     C_R   0.517078 0.498737 0.650807 0.794265
C13   C     C_R   0.395307 0.936846 0.453226 -0.185148
C14   C     C_R   0.501180 0.870942 0.496660 -0.075210
C15   C     C_R   0.613192 0.934926 0.532990 0.046571
C16   C     C_3   0.665140 0.928512 0.617441 -0.187035
C17   C     C_3   0.668415 0.069426 0.615704 -0.551576
C18   C     C_R   0.074677 0.607224 0.510587 0.180803
C19   C     C_R   0.073898 0.392377 0.495932 -0.046356
C20   C     C_R   0.925845 0.392277 0.496683 -0.037426
C21   C     C_R   0.927506 0.607954 0.506992 0.182887
C22   C     C_3   0.922890 0.721834 0.454346 0.271420
C23   C     C_R   0.499960 0.737496 0.499998 0.830804
C24   C     C_3   0.081797 0.723193 0.462955 -0.533955
C25   C     C_R   0.482804 0.500830 0.349256 0.826219
C26   C     C_R   0.525959 0.498650 0.736709 -0.035048
C27   C     C_R   0.403195 0.502936 0.777295 -0.234843
C28   C     C_R   0.410568 0.502545 0.858676 -0.152706
C29   C     C_R   0.541717 0.497853 0.901094 0.382085
C30   C     C_R   0.663854 0.493478 0.860494 -0.187512
Cu1   Cu    Cu3+1 0.640670 0.499980 0.500000 1.021610
Cu2   Cu    Cu3+1 0.359330 0.500020 0.500000 0.957898
H1    H     H_    0.688548 0.443659 0.253845 0.208692
H2    H     H_    0.312010 0.888733 0.420746 0.160197
H3    H     H_    0.586197 0.889117 0.655951 0.173493
H4    H     H_    0.592164 0.111977 0.653901 0.197275
H5    H     H_    0.774853 0.110726 0.621055 0.189610
H6    H     H_    0.127489 0.304913 0.491186 0.136830
H7    H     H_    0.871759 0.304721 0.492943 0.136714
H8    H     H_    0.874772 0.803532 0.480614 0.073963
H9    H     H_    0.135877 0.708755 0.408097 0.248370
H10   H     H_    0.676327 0.448023 0.112015 0.164559
H11   H     H_    0.123064 0.801539 0.498834 0.157780
H12   H     H_    0.765180 0.489549 0.892359 0.147405
H13   H     H_    0.752837 0.490787 0.748983 0.178212
H14   H     H_    0.254375 0.554929 0.251633 0.190939
H15   H     H_    0.313606 0.505353 0.887977 0.158132
H16   H     H_    0.241160 0.557173 0.108134 0.155255
H17   H     H_    0.301094 0.506498 0.746278 0.170880
H18   H     H_    0.310851 0.116346 0.421315 0.157576
N1    N     N_2   0.555643 0.495727 0.984107 -0.257090
N2    N     N_2   0.443164 0.508437 0.016170 -0.259326
N3    N     N_R   0.147870 0.500930 0.499500 -0.169736
N4    N     N_R   0.851960 0.500890 0.499500 -0.165883
O1    O     O_R   0.618810 0.319640 0.500000 -0.595403
O2    O     O_R   0.381230 0.319680 0.499990 -0.599033
O3    O     O_R   0.631790 0.498830 0.613930 -0.575155
O4    O     O_R   0.394210 0.498870 0.613920 -0.585313
O5    O     O_R   0.618770 0.680320 0.500010 -0.545926
O6    O     O_R   0.381190 0.680360 0.500000 -0.596445
O7    O     O_R   0.605790 0.501130 0.386080 -0.512009
O8    O     O_R   0.368210 0.501170 0.386070 -0.585081
C31   C     C_2   0.807352 0.869693 0.629516 0.401981
H19   H     H_    0.896209 0.908775 0.601432 0.050324
O9    O     O_2   0.824044 0.777502 0.671394 -0.554352
S1    S     S_3+6 0.861268 0.699686 0.354192 0.016816
O10   O     O_2   0.940609 0.784316 0.302272 -0.299430
O11   O     O_2   0.884211 0.567713 0.331080 -0.304155
O12   O     O_3   0.690475 0.736419 0.342752 -0.529014
H20   H     H_    0.667338 0.733212 0.285565 0.366172

loop_
_geom_bond_atom_site_label_1
_geom_bond_atom_site_label_2
_ccdc_geom_bond_type
C14   C23   S    
C5    C8    A    
S1    O11   D    
C8    H16   S    
C28   H15   S    
C29   C30   A    
C16   C31   S    
C13   C14   A    
C18   C21   A    
C9    C10   A    
C16   H3    S    
Cu1   Cu2   S    
Cu2   O4    S    
C21   N4    A    
C2    C30   A    
O12   H20   S    
C12   O4    A    
C19   N3    A    
C19   C20   A    
C31   O9    D    
S1    O10   D    
C1    O1    A    
Cu2   O8    S    
C13   H2    S    
C5    N2    S    
C11   H18   S    
C25   O7    A    
C21   C22   S    
C23   O5    A    
C24   H9    S    
C11   C13   A    
Cu1   O3    S    
C26   C27   A    
C6    C7    A    
C18   C24   S    
C12   O3    A    
C20   N4    A    
C28   C29   A    
C17   H4    S    
C1    O2    A    
C30   H12   S    
C25   O8    A    
C2    H13   S    
C9    C15   A    
C23   O6    A    
C22   C24   S    
C6    C25   S    
C7    C8    A    
C10   C11   A    
Cu2   O6    S    
Cu1   O5    S    
C3    C4    A    
S1    O12   S    
C7    H14   S    
C27   H17   S    
Cu2   N3    S    
Cu1   N4    S    
C3    H10   S    
N1    N2    D    
C2    C26   A    
C4    C6    A    
C29   N1    S    
C19   H6    S    
C9    C17   S    
C27   C28   A    
C24   H11   S    
C20   H7    S    
Cu1   O7    S    
C22   H8    S    
C22   S1    S    
C17   H5    S    
C4    H1    S    
C18   N3    A    
Cu1   O1    S    
C14   C15   A    
Cu2   O2    S    
C1    C10   S    
C15   C16   S    
C16   C17   S    
C12   C26   S    
C31   H19   S    
C3    C5    A    
