data_mof_unit_55095.cif
_audit_creation_date              2012-12-10T17:27:42-0500
_audit_creation_method            fapswitch 2.2
_symmetry_space_group_name_H-M    P1
_symmetry_Int_Tables_number       1
_space_group_crystal_system       triclinic
_cell_length_a                    21.708166
_cell_length_b                    21.710979
_cell_length_c                    38.58712
_cell_angle_alpha                 90.000792
_cell_angle_beta                  89.999671
_cell_angle_gamma                 90.000753
_cell_volume                      18186.3232767

loop_
_atom_site_label
_atom_site_type_symbol
_atom_type_description
_atom_site_fract_x
_atom_site_fract_y
_atom_site_fract_z
_atom_type_partial_charge
C1    C     C_R   0.499963 0.120009 0.499913 0.878328
C2    C     C_R   0.880014 0.500000 0.500000 0.878957
C3    C     C_R   0.500037 0.879991 0.499914 0.878327
C4    C     C_R   0.119986 0.500000 0.499999 0.878957
C5    C     C_R   0.000001 0.620029 0.999999 0.877743
C6    C     C_R   0.379993 0.999962 0.999914 0.878343
C7    C     C_R   0.999999 0.379971 0.000000 0.877746
C8    C     C_R   0.620007 0.000037 0.999914 0.878344
C9    C     C_R   0.368356 0.282390 0.439829 -0.145009
C10   C     C_R   0.718160 0.369917 0.438776 -0.147329
C11   C     C_R   0.631647 0.717606 0.439832 -0.145010
C12   C     C_R   0.281843 0.630081 0.438776 -0.147329
C13   C     C_R   0.369449 0.718259 0.560891 -0.146878
C14   C     C_R   0.718169 0.630104 0.561214 -0.147059
C15   C     C_R   0.630544 0.281746 0.560893 -0.146880
C16   C     C_R   0.281828 0.369908 0.561219 -0.147066
C17   C     C_R   0.867984 0.782292 0.940117 -0.144710
C18   C     C_R   0.217598 0.868352 0.939838 -0.144806
C19   C     C_R   0.132014 0.217707 0.940117 -0.144707
C20   C     C_R   0.782403 0.131645 0.939840 -0.144815
C21   C     C_R   0.867964 0.217705 0.059874 -0.144438
C22   C     C_R   0.218251 0.130557 0.060874 -0.146689
C23   C     C_R   0.132030 0.782293 0.059876 -0.144435
C24   C     C_R   0.781748 0.869441 0.060872 -0.146689
C25   C     C_R   0.407536 0.313625 0.462324 -0.195983
C26   C     C_R   0.686745 0.408355 0.461616 -0.195790
C27   C     C_R   0.592467 0.686373 0.462327 -0.195978
C28   C     C_R   0.313257 0.591643 0.461616 -0.195786
C29   C     C_R   0.408022 0.686809 0.538136 -0.195976
C30   C     C_R   0.686748 0.591654 0.538382 -0.195768
C31   C     C_R   0.591975 0.313194 0.538137 -0.195971
C32   C     C_R   0.313249 0.408351 0.538384 -0.195762
C33   C     C_R   0.907258 0.813563 0.962544 -0.196292
C34   C     C_R   0.186362 0.907537 0.962328 -0.196120
C35   C     C_R   0.092743 0.186437 0.962545 -0.196291
C36   C     C_R   0.813638 0.092463 0.962331 -0.196111
C37   C     C_R   0.907249 0.186433 0.037454 -0.196274
C38   C     C_R   0.186800 0.091981 0.038124 -0.196088
C39   C     C_R   0.092750 0.813566 0.037454 -0.196268
C40   C     C_R   0.813200 0.908019 0.038123 -0.196093
C41   C     C_R   0.455562 0.282551 0.480001 0.070452
C42   C     C_R   0.717623 0.456077 0.479660 0.070445
C43   C     C_R   0.544439 0.717448 0.480003 0.070452
C44   C     C_R   0.282378 0.543922 0.479660 0.070447
C45   C     C_R   0.455919 0.717637 0.520212 0.069788
C46   C     C_R   0.717624 0.543930 0.520338 0.070248
C47   C     C_R   0.544080 0.282364 0.520211 0.069789
C48   C     C_R   0.282374 0.456073 0.520340 0.070244
C49   C     C_R   0.955436 0.782536 0.980116 0.069903
C50   C     C_R   0.217444 0.955558 0.980004 0.070347
C51   C     C_R   0.044564 0.217463 0.980117 0.069900
C52   C     C_R   0.782556 0.044441 0.980005 0.070345
C53   C     C_R   0.955426 0.217462 0.019882 0.069703
C54   C     C_R   0.217634 0.044084 0.020205 0.069685
C55   C     C_R   0.044572 0.782538 0.019881 0.069700
C56   C     C_R   0.782366 0.955916 0.020205 0.069685
C57   C     C_R   0.459377 0.218380 0.477391 0.059389
C58   C     C_R   0.781779 0.460159 0.477070 0.058125
C59   C     C_R   0.540624 0.781619 0.477392 0.059389
C60   C     C_R   0.218222 0.539841 0.477070 0.058125
C61   C     C_R   0.460059 0.781779 0.522802 0.058430
C62   C     C_R   0.781780 0.539848 0.522927 0.058171
C63   C     C_R   0.539940 0.218223 0.522802 0.058428
C64   C     C_R   0.218219 0.460157 0.522929 0.058171
C65   C     C_R   0.959317 0.718376 0.977504 0.059564
C66   C     C_R   0.281620 0.959371 0.977394 0.059346
C67   C     C_R   0.040681 0.281623 0.977504 0.059562
C68   C     C_R   0.718381 0.040626 0.977394 0.059342
C69   C     C_R   0.959305 0.281623 0.022492 0.059613
C70   C     C_R   0.281779 0.039941 0.022799 0.058382
C71   C     C_R   0.040690 0.718377 0.022492 0.059609
C72   C     C_R   0.718221 0.960057 0.022798 0.058380
C73   C     C_R   0.499985 0.314058 0.500036 -0.192962
C74   C     C_R   0.685990 0.500003 0.500000 -0.193374
C75   C     C_R   0.500015 0.685942 0.500037 -0.192962
C76   C     C_R   0.314010 0.499997 0.500000 -0.193377
C77   C     C_R   0.000003 0.814105 0.999999 -0.192560
C78   C     C_R   0.185940 0.999984 0.000035 -0.192927
C79   C     C_R   0.999998 0.185895 0.000000 -0.192558
C80   C     C_R   0.814061 0.000016 0.000036 -0.192926
C81   C     C_R   0.499801 0.186412 0.499999 -0.190342
C82   C     C_R   0.813641 0.500001 0.499999 -0.189804
C83   C     C_R   0.500199 0.813589 0.500000 -0.190343
C84   C     C_R   0.186359 0.500000 0.500000 -0.189804
C85   C     C_R   0.000002 0.686459 0.999998 -0.190923
C86   C     C_R   0.313590 0.999799 0.000000 -0.190417
C87   C     C_R   0.999995 0.313541 0.999999 -0.190925
C88   C     C_R   0.686410 0.000200 1.000000 -0.190419
C89   C     C_R   0.619895 0.500002 0.500000 0.856670
C90   C     C_R   0.499878 0.619877 0.500007 0.857120
C91   C     C_R   0.380105 0.499997 0.500000 0.856669
C92   C     C_R   0.500121 0.380123 0.500006 0.857118
C93   C     C_R   0.119875 0.000120 0.000006 0.856540
C94   C     C_R   0.999999 0.119858 0.000000 0.856970
C95   C     C_R   0.880125 0.999880 0.000006 0.856541
C96   C     C_R   0.000002 0.880142 1.000000 0.856970
C97   C     C_R   0.500000 1.000000 0.432858 0.865592
C98   C     C_R   1.000000 0.500000 0.432807 0.866446
C99   C     C_R   0.500000 0.999999 0.567193 0.867074
C100  C     C_R   1.000000 0.500000 0.567193 0.866476
C101  C     C_R   0.000000 0.500000 0.932859 0.866083
C102  C     C_R   0.499999 1.000000 0.932859 0.865529
C103  C     C_R   1.000000 0.500000 0.067141 0.866113
C104  C     C_R   0.500001 0.000000 0.067191 0.867005
C105  C     C_R   0.461175 0.040004 0.377242 -0.230964
C106  C     C_R   0.967240 0.454848 0.377042 -0.232652
C107  C     C_R   0.538829 0.959992 0.377243 -0.230958
C108  C     C_R   0.032761 0.545149 0.377042 -0.232649
C109  C     C_R   0.454815 0.967286 0.622954 -0.232637
C110  C     C_R   0.967256 0.545161 0.622959 -0.232653
C111  C     C_R   0.545188 0.032711 0.622954 -0.232638
C112  C     C_R   0.032739 0.454837 0.622958 -0.232653
C113  C     C_R   0.961126 0.539961 0.877248 -0.230952
C114  C     C_R   0.459992 0.961172 0.877243 -0.230965
C115  C     C_R   0.038875 0.460041 0.877247 -0.230961
C116  C     C_R   0.540004 0.038828 0.877244 -0.230977
C117  C     C_R   0.961112 0.460052 0.122751 -0.230940
C118  C     C_R   0.467282 0.045176 0.122954 -0.232635
C119  C     C_R   0.038887 0.539947 0.122752 -0.230958
C120  C     C_R   0.532723 0.954823 0.122951 -0.232636
C121  C     C_R   0.461368 0.041376 0.341041 0.106379
C122  C     C_R   0.965688 0.454929 0.340835 0.104880
C123  C     C_R   0.538640 0.958617 0.341043 0.106364
C124  C     C_R   0.034315 0.545066 0.340834 0.104880
C125  C     C_R   0.454894 0.965733 0.659161 0.104851
C126  C     C_R   0.965701 0.545079 0.659166 0.104855
C127  C     C_R   0.545112 0.034263 0.659161 0.104846
C128  C     C_R   0.034289 0.454916 0.659166 0.104857
C129  C     C_R   0.961311 0.541334 0.841048 0.106390
C130  C     C_R   0.458618 0.961364 0.841042 0.106363
C131  C     C_R   0.038688 0.458667 0.841047 0.106398
C132  C     C_R   0.541378 0.038639 0.841043 0.106358
C133  C     C_R   0.961296 0.458679 0.158951 0.106395
C134  C     C_R   0.465731 0.045097 0.159161 0.104862
C135  C     C_R   0.038703 0.541319 0.158952 0.106395
C136  C     C_R   0.534274 0.954897 0.159158 0.104855
C137  C     C_R   0.500004 0.999996 0.322799 0.028329
C138  C     C_R   0.000002 0.499997 0.322568 0.033390
C139  C     C_R   0.500003 0.999999 0.677428 0.033530
C140  C     C_R   0.999995 0.499998 0.677433 0.033495
C141  C     C_R   0.999999 0.500000 0.822805 0.028338
C142  C     C_R   0.499999 0.000000 0.822800 0.028339
C143  C     C_R   0.999999 0.499999 0.177195 0.028320
C144  C     C_R   0.500003 0.999996 0.177426 0.033451
C145  C     C_R   0.500001 0.999998 0.395195 -0.068409
C146  C     C_R   0.000000 0.499999 0.395045 -0.073071
C147  C     C_R   0.500000 0.999999 0.604953 -0.073252
C148  C     C_R   0.999999 0.500000 0.604956 -0.073076
C149  C     C_R   0.000000 0.500001 0.895198 -0.068618
C150  C     C_R   0.499999 0.999999 0.895196 -0.068406
C151  C     C_R   1.000000 0.500000 0.104801 -0.068617
C152  C     C_R   0.500002 1.000000 0.104952 -0.073248
C153  C     C_R   0.500004 0.999995 0.215269 0.271575
C154  C     C_R   0.999999 0.499999 0.214938 0.263796
C155  C     C_R   0.500001 1.000000 0.785055 0.263819
C156  C     C_R   0.999998 0.499999 0.785061 0.263761
C157  C     C_R   0.999996 0.499998 0.715276 0.271504
C158  C     C_R   0.500003 1.000000 0.715271 0.271474
C159  C     C_R   0.000001 0.499997 0.284723 0.271601
C160  C     C_R   0.500006 0.999994 0.285054 0.263877
C161  C     C_R   0.422281 0.188008 0.452358 -0.214154
C162  C     C_R   0.812305 0.423954 0.451706 -0.209496
C163  C     C_R   0.577721 0.811989 0.452360 -0.214151
C164  C     C_R   0.187697 0.576046 0.451706 -0.209504
C165  C     C_R   0.423712 0.812324 0.548098 -0.208906
C166  C     C_R   0.812310 0.576061 0.548286 -0.209439
C167  C     C_R   0.576286 0.187679 0.548098 -0.208905
C168  C     C_R   0.187689 0.423952 0.548291 -0.209428
C169  C     C_R   0.922120 0.687980 0.952524 -0.213587
C170  C     C_R   0.311994 0.922271 0.952364 -0.214188
C171  C     C_R   0.077875 0.312017 0.952523 -0.213576
C172  C     C_R   0.688008 0.077721 0.952362 -0.214174
C173  C     C_R   0.922097 0.312019 0.047467 -0.213547
C174  C     C_R   0.312326 0.076289 0.048094 -0.208936
C175  C     C_R   0.077889 0.687982 0.047470 -0.213525
C176  C     C_R   0.687673 0.923707 0.048091 -0.208931
C177  C     C_R   0.376277 0.219227 0.433885 0.161473
C178  C     C_R   0.781309 0.378272 0.432895 0.163792
C179  C     C_R   0.623726 0.780770 0.433887 0.161472
C180  C     C_R   0.218695 0.621726 0.432895 0.163786
C181  C     C_R   0.377870 0.781379 0.566814 0.163379
C182  C     C_R   0.781319 0.621753 0.567090 0.163712
C183  C     C_R   0.622124 0.218626 0.566815 0.163386
C184  C     C_R   0.218679 0.378263 0.567098 0.163711
C185  C     C_R   0.875982 0.719150 0.934131 0.161099
C186  C     C_R   0.280771 0.876268 0.933894 0.161395
C187  C     C_R   0.124012 0.280847 0.934129 0.161108
C188  C     C_R   0.719233 0.123724 0.933893 0.161411
C189  C     C_R   0.875953 0.280850 0.065856 0.160998
C190  C     C_R   0.281377 0.122133 0.066803 0.163303
C191  C     C_R   0.124033 0.719151 0.065861 0.161013
C192  C     C_R   0.718621 0.877861 0.066799 0.163316
H1    H     H_    0.332814 0.308548 0.426869 0.130703
H2    H     H_    0.692142 0.334722 0.425429 0.130617
H3    H     H_    0.667191 0.691448 0.426872 0.130704
H4    H     H_    0.307862 0.665274 0.425429 0.130616
H5    H     H_    0.334132 0.692279 0.574160 0.130818
H6    H     H_    0.692153 0.665303 0.574558 0.130850
H7    H     H_    0.665859 0.307727 0.574164 0.130818
H8    H     H_    0.307842 0.334710 0.574565 0.130849
H9    H     H_    0.832342 0.808413 0.927220 0.130525
H10   H     H_    0.191435 0.832812 0.926880 0.130551
H11   H     H_    0.167656 0.191585 0.927219 0.130525
H12   H     H_    0.808568 0.167185 0.926883 0.130550
H13   H     H_    0.832320 0.191583 0.072769 0.130756
H14   H     H_    0.192268 0.165877 0.074137 0.130658
H15   H     H_    0.167674 0.808414 0.072772 0.130757
H16   H     H_    0.807731 0.834121 0.074135 0.130663
H17   H     H_    0.399086 0.362288 0.465860 0.157194
H18   H     H_    0.638112 0.399621 0.465085 0.157629
H19   H     H_    0.600916 0.637710 0.465863 0.157193
H20   H     H_    0.361890 0.600377 0.465086 0.157631
H21   H     H_    0.399321 0.638173 0.534670 0.157307
H22   H     H_    0.638114 0.600382 0.534917 0.157856
H23   H     H_    0.600676 0.361830 0.534671 0.157311
H24   H     H_    0.361883 0.399620 0.534919 0.157855
H25   H     H_    0.898831 0.862233 0.966075 0.156545
H26   H     H_    0.137691 0.899097 0.965858 0.157071
H27   H     H_    0.101171 0.137767 0.966076 0.156541
H28   H     H_    0.862309 0.100906 0.965862 0.157067
H29   H     H_    0.898831 0.137760 0.033929 0.156780
H30   H     H_    0.138157 0.100677 0.034659 0.157167
H31   H     H_    0.101172 0.862238 0.033928 0.156776
H32   H     H_    0.861843 0.899324 0.034659 0.157172
N1    N     N_R   0.472412 0.953668 0.267400 -0.181511
N2    N     N_R   0.972442 0.546347 0.267027 -0.190879
N3    N     N_R   0.527598 0.046321 0.267400 -0.181526
N4    N     N_R   0.027559 0.453648 0.267025 -0.190873
N5    N     N_R   0.546302 0.972354 0.732968 -0.190867
N6    N     N_R   0.972356 0.453696 0.732974 -0.190877
N7    N     N_R   0.453702 0.027645 0.732968 -0.190870
N8    N     N_R   0.027635 0.546301 0.732973 -0.190865
N9    N     N_R   0.972408 0.453663 0.767408 -0.181466
N10   N     N_R   0.546334 0.972403 0.767402 -0.181522
N11   N     N_R   0.027586 0.546335 0.767407 -0.181448
N12   N     N_R   0.453669 0.027596 0.767402 -0.181510
N13   N     N_R   0.972493 0.546381 0.232593 -0.181459
N14   N     N_R   0.472361 0.953700 0.232966 -0.190873
N15   N     N_R   0.027505 0.453615 0.232591 -0.181436
N16   N     N_R   0.527647 0.046289 0.232966 -0.190884
O1    O     O_R   0.551620 0.091530 0.500110 -0.622373
O2    O     O_R   0.908470 0.551620 0.500110 -0.622180
O3    O     O_R   0.448380 0.908470 0.500110 -0.622373
O4    O     O_R   0.091530 0.448380 0.500110 -0.622173
O5    O     O_R   0.551620 0.908470 0.499890 -0.622307
O6    O     O_R   0.908470 0.448380 0.499890 -0.622133
O7    O     O_R   0.448380 0.091530 0.499890 -0.622306
O8    O     O_R   0.091530 0.551620 0.499890 -0.622135
O9    O     O_R   0.051620 0.591530 0.000110 -0.622550
O10   O     O_R   0.408470 0.051620 0.000110 -0.622385
O11   O     O_R   0.948380 0.408470 0.000110 -0.622557
O12   O     O_R   0.591530 0.948380 0.000110 -0.622389
O13   O     O_R   0.051620 0.408470 0.999890 -0.622506
O14   O     O_R   0.408470 0.948380 0.999890 -0.622329
O15   O     O_R   0.948380 0.591530 0.999890 -0.622511
O16   O     O_R   0.591530 0.051620 0.999890 -0.622324
O17   O     O_R   0.551620 0.999930 0.449180 -0.623262
O18   O     O_R   0.000070 0.551620 0.449180 -0.624637
O19   O     O_R   0.448380 0.000070 0.449180 -0.623261
O20   O     O_R   0.999930 0.448380 0.449180 -0.624638
O21   O     O_R   0.551620 0.000070 0.550820 -0.624580
O22   O     O_R   0.000070 0.448380 0.550820 -0.624636
O23   O     O_R   0.448380 0.999930 0.550820 -0.624579
O24   O     O_R   0.999930 0.551620 0.550820 -0.624636
O25   O     O_R   0.051620 0.499930 0.949180 -0.623210
O26   O     O_R   0.500070 0.051620 0.949180 -0.623264
O27   O     O_R   0.948380 0.500070 0.949180 -0.623212
O28   O     O_R   0.499930 0.948380 0.949180 -0.623264
O29   O     O_R   0.051620 0.500070 0.050820 -0.623209
O30   O     O_R   0.500070 0.948380 0.050820 -0.624583
O31   O     O_R   0.948380 0.499930 0.050820 -0.623211
O32   O     O_R   0.499930 0.051620 0.050820 -0.624580
O33   O     O_R   0.591500 0.499930 0.528880 -0.625191
O34   O     O_R   0.500070 0.591500 0.528880 -0.625168
O35   O     O_R   0.408500 0.500070 0.528880 -0.625189
O36   O     O_R   0.499930 0.408500 0.528880 -0.625167
O37   O     O_R   0.591500 0.500070 0.471120 -0.625268
O38   O     O_R   0.500070 0.408500 0.471120 -0.625246
O39   O     O_R   0.408500 0.499930 0.471120 -0.625270
O40   O     O_R   0.499930 0.591500 0.471120 -0.625245
O41   O     O_R   0.091500 0.999930 0.028880 -0.625116
O42   O     O_R   0.000070 0.091500 0.028880 -0.625109
O43   O     O_R   0.908500 0.000070 0.028880 -0.625118
O44   O     O_R   0.999930 0.908500 0.028880 -0.625105
O45   O     O_R   0.091500 0.000070 0.971120 -0.625201
O46   O     O_R   0.000070 0.908500 0.971120 -0.625188
O47   O     O_R   0.908500 0.999930 0.971120 -0.625196
O48   O     O_R   0.999930 0.091500 0.971120 -0.625185
Zn1   Zn    Zn3+2 0.568970 1.000000 0.500000 0.937117
Zn2   Zn    Zn3+2 0.000000 0.568970 0.500000 0.936719
Zn3   Zn    Zn3+2 0.431030 1.000000 0.500000 0.937118
Zn4   Zn    Zn3+2 0.000000 0.431030 0.500000 0.936725
Zn5   Zn    Zn3+2 0.068970 0.500000 0.000000 0.937380
Zn6   Zn    Zn3+2 0.500000 0.068970 0.000000 0.936955
Zn7   Zn    Zn3+2 0.931030 0.500000 0.000000 0.937371
Zn8   Zn    Zn3+2 0.500000 0.931030 0.000000 0.936950
Zn9   Zn    Zn3+2 0.500000 0.500000 0.538510 0.940044
Zn10  Zn    Zn3+2 0.500000 0.500000 0.461490 0.939737
Zn11  Zn    Zn3+2 0.000000 1.000000 0.038510 0.940061
Zn12  Zn    Zn3+2 0.000000 0.000000 0.961490 0.939754
H33   H     H_    0.431529 0.071070 0.391533 0.131710
H34   H     H_    0.941181 0.420691 0.391350 0.137743
H35   H     H_    0.568474 0.928926 0.391535 0.131711
H36   H     H_    0.058820 0.579307 0.391350 0.137744
H37   H     H_    0.420629 0.941262 0.608645 0.137759
H38   H     H_    0.941212 0.579329 0.608651 0.137762
H39   H     H_    0.579374 0.058733 0.608645 0.137765
H40   H     H_    0.058784 0.420670 0.608650 0.137769
H41   H     H_    0.931442 0.570994 0.891540 0.131756
H42   H     H_    0.428927 0.931524 0.891534 0.131704
H43   H     H_    0.068558 0.429008 0.891538 0.131761
H44   H     H_    0.571070 0.068476 0.891536 0.131715
H45   H     H_    0.931418 0.429029 0.108459 0.131767
H46   H     H_    0.441251 0.079354 0.108646 0.137755
H47   H     H_    0.068581 0.570971 0.108461 0.131774
H48   H     H_    0.558751 0.920644 0.108641 0.137756
C193  C     C_3   0.420201 0.087685 0.322949 -0.432317
C194  C     C_3   0.450514 0.151495 0.322790 -0.327384
C195  C     C_3   0.410045 0.198972 0.304614 -0.882131
H49   H     H_    0.402380 0.185523 0.277191 0.260664
H50   H     H_    0.364978 0.203129 0.317990 0.265045
H51   H     H_    0.433178 0.244573 0.305116 0.251449
H52   H     H_    0.459013 0.166982 0.349832 0.217093
H53   H     H_    0.495580 0.149053 0.309184 0.239054
H54   H     H_    0.409777 0.073416 0.295941 0.214411
H55   H     H_    0.375130 0.089996 0.336579 0.195073
C196  C     C_3   0.924842 0.408419 0.322618 -0.436114
C197  C     C_3   0.864169 0.438378 0.311135 -0.333052
C198  C     C_3   0.822863 0.392508 0.292264 -0.885112
H56   H     H_    0.846654 0.374171 0.268976 0.260998
H57   H     H_    0.810323 0.353848 0.309699 0.264339
H58   H     H_    0.779908 0.415921 0.283872 0.251826
H59   H     H_    0.839254 0.456213 0.334231 0.221584
H60   H     H_    0.873535 0.477681 0.293496 0.236657
H61   H     H_    0.949104 0.387922 0.300099 0.219948
H62   H     H_    0.914217 0.369404 0.340285 0.194950
C199  C     C_3   0.579810 0.912309 0.322951 -0.432306
C200  C     C_3   0.549501 0.848497 0.322793 -0.327392
C201  C     C_3   0.589973 0.801023 0.304617 -0.882138
H63   H     H_    0.597639 0.814473 0.277194 0.260663
H64   H     H_    0.635041 0.796868 0.317992 0.265046
H65   H     H_    0.566841 0.755423 0.305119 0.251454
H66   H     H_    0.541002 0.833011 0.349835 0.217092
H67   H     H_    0.504436 0.850936 0.309187 0.239054
H68   H     H_    0.590237 0.926577 0.295944 0.214422
H69   H     H_    0.624880 0.910002 0.336583 0.195073
C202  C     C_3   0.075164 0.591574 0.322618 -0.436123
C203  C     C_3   0.135840 0.561613 0.311141 -0.333042
C204  C     C_3   0.177139 0.607472 0.292257 -0.885099
H70   H     H_    0.153350 0.625774 0.268960 0.260992
H71   H     H_    0.189664 0.646157 0.309677 0.264337
H72   H     H_    0.220102 0.584061 0.283877 0.251825
H73   H     H_    0.160759 0.543803 0.334242 0.221574
H74   H     H_    0.126478 0.522292 0.293514 0.236655
H75   H     H_    0.050907 0.612065 0.300096 0.219965
H76   H     H_    0.085784 0.630593 0.340283 0.194941
C205  C     C_3   0.408319 0.924949 0.677371 -0.436003
C206  C     C_3   0.438208 0.864268 0.688886 -0.333033
C207  C     C_3   0.392204 0.822940 0.707642 -0.885013
H77   H     H_    0.373623 0.846729 0.730873 0.260972
H78   H     H_    0.353707 0.810347 0.690096 0.264301
H79   H     H_    0.415589 0.780021 0.716111 0.251791
H80   H     H_    0.456194 0.839387 0.665814 0.221719
H81   H     H_    0.477400 0.873611 0.706611 0.236615
H82   H     H_    0.387816 0.949250 0.699875 0.219849
H83   H     H_    0.369316 0.914335 0.659689 0.194994
C208  C     C_3   0.924885 0.591614 0.677383 -0.436075
C209  C     C_3   0.864208 0.561686 0.688885 -0.333088
C210  C     C_3   0.822879 0.607618 0.707691 -0.885202
H84   H     H_    0.846676 0.626112 0.730937 0.261019
H85   H     H_    0.810280 0.646164 0.690192 0.264391
H86   H     H_    0.779957 0.584209 0.716140 0.251808
H87   H     H_    0.839311 0.543759 0.665805 0.221649
H88   H     H_    0.873568 0.522452 0.706573 0.236673
H89   H     H_    0.949172 0.612109 0.699895 0.219889
H90   H     H_    0.914265 0.630623 0.659711 0.195007
C211  C     C_3   0.591692 0.075044 0.677371 -0.435995
C212  C     C_3   0.561808 0.135723 0.688892 -0.333082
C213  C     C_3   0.607822 0.177061 0.707631 -0.885211
H91   H     H_    0.626430 0.153275 0.730851 0.261020
H92   H     H_    0.646292 0.189660 0.690075 0.264342
H93   H     H_    0.584442 0.219975 0.716111 0.251817
H94   H     H_    0.543800 0.160600 0.665826 0.221758
H95   H     H_    0.522634 0.126381 0.706628 0.236640
H96   H     H_    0.612200 0.050738 0.699872 0.219844
H97   H     H_    0.630691 0.085660 0.659687 0.195012
C214  C     C_3   0.075105 0.408382 0.677382 -0.436092
C215  C     C_3   0.135790 0.438308 0.688874 -0.333093
C216  C     C_3   0.177106 0.392388 0.707698 -0.885146
H98   H     H_    0.153310 0.373947 0.730958 0.261003
H99   H     H_    0.189677 0.353803 0.690217 0.264370
H100  H     H_    0.220044 0.415791 0.716126 0.251804
H101  H     H_    0.160691 0.456199 0.665786 0.221619
H102  H     H_    0.126439 0.477567 0.706546 0.236673
H103  H     H_    0.050825 0.387897 0.699899 0.219913
H104  H     H_    0.085714 0.369365 0.659713 0.195006
C217  C     C_3   0.920073 0.587588 0.822962 -0.432288
C218  C     C_3   0.950239 0.651468 0.822864 -0.327413
C219  C     C_3   0.909692 0.698889 0.804698 -0.882018
H105  H     H_    0.902114 0.685484 0.777260 0.260654
H106  H     H_    0.864585 0.702909 0.818047 0.264960
H107  H     H_    0.932714 0.744544 0.805247 0.251470
H108  H     H_    0.958648 0.666918 0.849923 0.217080
H109  H     H_    0.995335 0.649156 0.809283 0.239007
H110  H     H_    0.909733 0.573358 0.795938 0.214426
H111  H     H_    0.874973 0.589771 0.836571 0.195093
C220  C     C_3   0.412309 0.920193 0.822950 -0.432330
C221  C     C_3   0.348479 0.950476 0.822806 -0.327351
C222  C     C_3   0.301008 0.910012 0.804620 -0.882037
H112  H     H_    0.314452 0.902393 0.777191 0.260659
H113  H     H_    0.296879 0.864926 0.817974 0.265017
H114  H     H_    0.255390 0.933117 0.805140 0.251458
H115  H     H_    0.332993 0.958940 0.849853 0.217074
H116  H     H_    0.350901 0.995551 0.809216 0.239050
H117  H     H_    0.426569 0.909790 0.795938 0.214436
H118  H     H_    0.410023 0.875120 0.836573 0.195045
C223  C     C_3   0.079925 0.412411 0.822960 -0.432298
C224  C     C_3   0.049749 0.348536 0.822854 -0.327425
C225  C     C_3   0.090302 0.301106 0.804697 -0.882050
H119  H     H_    0.097921 0.314516 0.777265 0.260661
H120  H     H_    0.135387 0.297068 0.818065 0.264970
H121  H     H_    0.067264 0.255459 0.805232 0.251475
H122  H     H_    0.041314 0.333088 0.849910 0.217089
H123  H     H_    0.004665 0.350855 0.809261 0.239022
H124  H     H_    0.090277 0.426646 0.795938 0.214409
H125  H     H_    0.125021 0.410218 0.836572 0.195105
C226  C     C_3   0.587686 0.079812 0.822952 -0.432322
C227  C     C_3   0.651509 0.049514 0.822790 -0.327355
C228  C     C_3   0.698984 0.089986 0.804613 -0.882078
H126  H     H_    0.685536 0.097638 0.777189 0.260664
H127  H     H_    0.703126 0.135053 0.817985 0.265018
H128  H     H_    0.744597 0.066871 0.805118 0.251461
H129  H     H_    0.667000 0.041018 0.849833 0.217078
H130  H     H_    0.649073 0.004454 0.809184 0.239068
H131  H     H_    0.573412 0.090237 0.795945 0.214433
H132  H     H_    0.589990 0.124876 0.836585 0.195054
C229  C     C_3   0.920036 0.412442 0.177037 -0.432272
C230  C     C_3   0.950167 0.348548 0.177131 -0.327405
C231  C     C_3   0.909602 0.301148 0.195302 -0.882044
H133  H     H_    0.902047 0.314554 0.222742 0.260648
H134  H     H_    0.864487 0.297157 0.181961 0.264997
H135  H     H_    0.932596 0.255479 0.194747 0.251471
H136  H     H_    0.958559 0.333093 0.150072 0.217094
H137  H     H_    0.995270 0.350837 0.190707 0.239006
H138  H     H_    0.909703 0.426674 0.204061 0.214416
H139  H     H_    0.874934 0.410282 0.163428 0.195082
C232  C     C_3   0.424934 0.091656 0.177374 -0.436054
C233  C     C_3   0.364229 0.061768 0.188860 -0.333013
C234  C     C_3   0.322937 0.107718 0.207680 -0.885005
H140  H     H_    0.346725 0.126123 0.230954 0.260966
H141  H     H_    0.310426 0.146329 0.190203 0.264273
H142  H     H_    0.279967 0.084351 0.216090 0.251835
H143  H     H_    0.339325 0.043895 0.165769 0.221690
H144  H     H_    0.373549 0.022503 0.206533 0.236633
H145  H     H_    0.449219 0.112132 0.199891 0.219891
H146  H     H_    0.414343 0.130673 0.159700 0.194939
C235  C     C_3   0.079963 0.587555 0.177039 -0.432277
C236  C     C_3   0.049814 0.651441 0.177151 -0.327362
C237  C     C_3   0.090383 0.698847 0.195318 -0.882054
H147  H     H_    0.097966 0.685438 0.222755 0.260642
H148  H     H_    0.135486 0.702855 0.181966 0.264979
H149  H     H_    0.067377 0.744507 0.194774 0.251477
H150  H     H_    0.041392 0.666902 0.150095 0.217080
H151  H     H_    0.004723 0.649134 0.190741 0.239011
H152  H     H_    0.090317 0.573308 0.204058 0.214403
H153  H     H_    0.125055 0.589735 0.163421 0.195098
C238  C     C_3   0.575059 0.908327 0.177367 -0.436031
C239  C     C_3   0.635758 0.938204 0.188871 -0.333048
C240  C     C_3   0.677062 0.892225 0.207656 -0.885146
H154  H     H_    0.653272 0.873742 0.230906 0.261000
H155  H     H_    0.689602 0.853674 0.190145 0.264305
H156  H     H_    0.720015 0.915586 0.216093 0.251855
H157  H     H_    0.660657 0.956133 0.165792 0.221729
H158  H     H_    0.626431 0.977427 0.206573 0.236650
H159  H     H_    0.550761 0.887838 0.199876 0.219867
H160  H     H_    0.585659 0.869322 0.159687 0.194961
C241  C     C_3   0.660660 0.181601 0.592185 -0.445572
C242  C     C_3   0.715108 0.216218 0.608561 -0.346508
C243  C     C_3   0.754346 0.173271 0.630789 -0.881882
H161  H     H_    0.726163 0.152121 0.651613 0.257727
H162  H     H_    0.774620 0.136198 0.614553 0.261394
H163  H     H_    0.792388 0.199813 0.642914 0.252174
H164  H     H_    0.744899 0.235816 0.587878 0.225616
H165  H     H_    0.697575 0.254215 0.625169 0.220788
H166  H     H_    0.629881 0.164881 0.613174 0.198520
H167  H     H_    0.678995 0.140644 0.578258 0.206966
C244  C     C_3   0.818332 0.660258 0.592479 -0.445823
C245  C     C_3   0.783752 0.714794 0.608783 -0.346431
C246  C     C_3   0.826743 0.754129 0.630933 -0.881966
H168  H     H_    0.847923 0.726052 0.651790 0.257769
H169  H     H_    0.863800 0.774319 0.614651 0.261387
H170  H     H_    0.800222 0.792227 0.643012 0.252182
H171  H     H_    0.764139 0.744484 0.588061 0.225735
H172  H     H_    0.745764 0.697361 0.625432 0.220703
H173  H     H_    0.834934 0.629492 0.613497 0.198614
H174  H     H_    0.859366 0.678502 0.578584 0.207020
C247  C     C_3   0.339333 0.818407 0.592182 -0.445571
C248  C     C_3   0.284878 0.783791 0.608554 -0.346489
C249  C     C_3   0.245638 0.826738 0.630783 -0.881887
H175  H     H_    0.273818 0.847888 0.651607 0.257729
H176  H     H_    0.225364 0.863811 0.614548 0.261394
H177  H     H_    0.207594 0.800197 0.642908 0.252166
H178  H     H_    0.255088 0.764199 0.587869 0.225615
H179  H     H_    0.302406 0.745793 0.625162 0.220786
H180  H     H_    0.370110 0.835123 0.613173 0.198506
H181  H     H_    0.321003 0.859365 0.578255 0.206965
C250  C     C_3   0.181669 0.339773 0.592495 -0.445819
C251  C     C_3   0.216235 0.285213 0.608780 -0.346407
C252  C     C_3   0.173243 0.245888 0.630933 -0.881978
H182  H     H_    0.152100 0.273962 0.651804 0.257765
H183  H     H_    0.136160 0.225731 0.614658 0.261388
H184  H     H_    0.199755 0.207765 0.642994 0.252184
H185  H     H_    0.235820 0.255526 0.588047 0.225740
H186  H     H_    0.254244 0.302618 0.625423 0.220698
H187  H     H_    0.165106 0.370545 0.613521 0.198626
H188  H     H_    0.140608 0.321556 0.578613 0.207007
C253  C     C_3   0.663258 0.817627 0.408923 -0.442514
C254  C     C_3   0.715165 0.781607 0.390992 -0.348991
C255  C     C_3   0.753501 0.823647 0.367739 -0.880482
H189  H     H_    0.724105 0.845276 0.347588 0.257036
H190  H     H_    0.775800 0.860349 0.383390 0.262089
H191  H     H_    0.789978 0.796267 0.354717 0.251942
H192  H     H_    0.746158 0.761021 0.410789 0.225010
H193  H     H_    0.695131 0.744264 0.374814 0.221500
H194  H     H_    0.632724 0.837255 0.388681 0.199682
H195  H     H_    0.684056 0.856647 0.423486 0.207555
C256  C     C_3   0.818310 0.339790 0.407490 -0.445669
C257  C     C_3   0.783729 0.285249 0.391192 -0.346497
C258  C     C_3   0.826707 0.245940 0.369021 -0.882218
H196  H     H_    0.847839 0.274029 0.348154 0.257776
H197  H     H_    0.863799 0.225771 0.385285 0.261429
H198  H     H_    0.800188 0.207828 0.356956 0.252035
H199  H     H_    0.764148 0.255545 0.411917 0.225652
H200  H     H_    0.745718 0.302675 0.374558 0.220608
H201  H     H_    0.834879 0.370572 0.386472 0.198595
H202  H     H_    0.859366 0.321555 0.421369 0.206982
C259  C     C_3   0.336746 0.182367 0.408921 -0.442513
C260  C     C_3   0.284839 0.218388 0.390990 -0.348996
C261  C     C_3   0.246502 0.176346 0.367738 -0.880486
H203  H     H_    0.275898 0.154716 0.347586 0.257037
H204  H     H_    0.224205 0.139645 0.383389 0.262091
H205  H     H_    0.210025 0.203726 0.354717 0.251941
H206  H     H_    0.253846 0.238975 0.410787 0.225012
H207  H     H_    0.304874 0.255728 0.374811 0.221499
H208  H     H_    0.367279 0.162738 0.388680 0.199681
H209  H     H_    0.315946 0.143349 0.423484 0.207556
C262  C     C_3   0.181695 0.660207 0.407490 -0.445654
C263  C     C_3   0.216282 0.714735 0.391183 -0.346492
C264  C     C_3   0.173308 0.754039 0.369009 -0.882223
H210  H     H_    0.152171 0.725943 0.348146 0.257771
H211  H     H_    0.136221 0.774222 0.385270 0.261431
H212  H     H_    0.199833 0.792141 0.356936 0.252037
H213  H     H_    0.235870 0.744446 0.411904 0.225645
H214  H     H_    0.254290 0.697295 0.374551 0.220616
H215  H     H_    0.165114 0.629422 0.386475 0.198590
H216  H     H_    0.140646 0.678456 0.421370 0.206979
C265  C     C_3   0.163577 0.682267 0.090806 -0.442412
C266  C     C_3   0.215511 0.718263 0.108728 -0.348919
C267  C     C_3   0.253809 0.676210 0.131992 -0.880511
H217  H     H_    0.224389 0.654613 0.152144 0.257023
H218  H     H_    0.276082 0.639482 0.116349 0.262058
H219  H     H_    0.290303 0.703570 0.145012 0.251929
H220  H     H_    0.246522 0.738808 0.088927 0.224949
H221  H     H_    0.195504 0.755634 0.124896 0.221587
H222  H     H_    0.133056 0.662639 0.111059 0.199605
H223  H     H_    0.184344 0.643245 0.076231 0.207520
C268  C     C_3   0.318405 0.160668 0.092172 -0.445427
C269  C     C_3   0.283775 0.215102 0.108552 -0.346516
C270  C     C_3   0.326718 0.254322 0.130794 -0.882147
H224  H     H_    0.347851 0.226134 0.151620 0.257729
H225  H     H_    0.363812 0.274595 0.114570 0.261400
H226  H     H_    0.300169 0.292359 0.142916 0.252019
H227  H     H_    0.264186 0.244899 0.087871 0.225537
H228  H     H_    0.245766 0.197562 0.125152 0.220708
H229  H     H_    0.335132 0.129894 0.113160 0.198484
H230  H     H_    0.359363 0.179008 0.078244 0.206930
C271  C     C_3   0.836393 0.317737 0.090793 -0.442351
C272  C     C_3   0.784488 0.281726 0.108733 -0.348905
C273  C     C_3   0.746177 0.323780 0.131991 -0.880433
H231  H     H_    0.775602 0.345445 0.152120 0.257008
H232  H     H_    0.723842 0.360458 0.116337 0.262039
H233  H     H_    0.709729 0.296400 0.145041 0.251915
H234  H     H_    0.753478 0.261144 0.088942 0.224924
H235  H     H_    0.804527 0.244381 0.124908 0.221582
H236  H     H_    0.866909 0.337406 0.111037 0.199571
H237  H     H_    0.815597 0.356732 0.076208 0.207517
C274  C     C_3   0.681590 0.839320 0.092163 -0.445466
C275  C     C_3   0.716212 0.784874 0.108533 -0.346534
C276  C     C_3   0.673260 0.745641 0.130765 -0.882151
H238  H     H_    0.652114 0.773821 0.151590 0.257744
H239  H     H_    0.636178 0.725370 0.114532 0.261401
H240  H     H_    0.699805 0.707602 0.142888 0.252019
H241  H     H_    0.735803 0.755088 0.087847 0.225550
H242  H     H_    0.754219 0.802400 0.125140 0.220700
H243  H     H_    0.664869 0.870088 0.113156 0.198494
H244  H     H_    0.640629 0.820992 0.078234 0.206943
C277  C     C_3   0.163546 0.317727 0.909175 -0.442274
C278  C     C_3   0.215475 0.281728 0.891250 -0.349042
C279  C     C_3   0.253762 0.323775 0.867976 -0.880740
H245  H     H_    0.224333 0.345364 0.847825 0.257051
H246  H     H_    0.276042 0.360509 0.883611 0.262094
H247  H     H_    0.290250 0.296411 0.854953 0.251777
H248  H     H_    0.246496 0.261192 0.911049 0.224869
H249  H     H_    0.195463 0.244349 0.875089 0.221476
H250  H     H_    0.133016 0.337345 0.888924 0.199597
H251  H     H_    0.184317 0.356755 0.923743 0.207503
C280  C     C_3   0.317634 0.836731 0.908936 -0.442374
C281  C     C_3   0.281595 0.784859 0.890984 -0.349061
C282  C     C_3   0.323639 0.746522 0.867734 -0.880829
H252  H     H_    0.345329 0.775923 0.847607 0.257078
H253  H     H_    0.360301 0.724174 0.883393 0.262110
H254  H     H_    0.296244 0.710092 0.854684 0.251794
H255  H     H_    0.260974 0.753866 0.910769 0.224943
H256  H     H_    0.244272 0.804922 0.874801 0.221425
H257  H     H_    0.337299 0.867259 0.888704 0.199649
H258  H     H_    0.356633 0.815908 0.923507 0.207538
C283  C     C_3   0.836441 0.682268 0.909181 -0.442252
C284  C     C_3   0.784520 0.718270 0.891251 -0.349028
C285  C     C_3   0.746229 0.676221 0.867979 -0.880735
H259  H     H_    0.775658 0.654621 0.847832 0.257045
H260  H     H_    0.723940 0.639496 0.883617 0.262091
H261  H     H_    0.709749 0.703588 0.854953 0.251774
H262  H     H_    0.753499 0.738815 0.911049 0.224861
H263  H     H_    0.804539 0.755641 0.875089 0.221480
H264  H     H_    0.866968 0.662636 0.888932 0.199587
H265  H     H_    0.815663 0.643249 0.923753 0.207498
C286  C     C_3   0.682373 0.163251 0.908928 -0.442386
C287  C     C_3   0.718405 0.215149 0.890996 -0.349039
C288  C     C_3   0.676364 0.253481 0.867742 -0.880770
H266  H     H_    0.654731 0.224089 0.847590 0.257062
H267  H     H_    0.639658 0.275780 0.883392 0.262097
H268  H     H_    0.703752 0.289952 0.854721 0.251790
H269  H     H_    0.738996 0.246138 0.910794 0.224941
H270  H     H_    0.755752 0.195112 0.874819 0.221406
H271  H     H_    0.662740 0.132722 0.888686 0.199666
H272  H     H_    0.643350 0.184052 0.923491 0.207520
H273  H     H_    0.428534 0.139713 0.446608 0.147477
H274  H     H_    0.860584 0.430661 0.445991 0.147287
H275  H     H_    0.571467 0.860283 0.446608 0.147475
H276  H     H_    0.139418 0.569340 0.445992 0.147289
H277  H     H_    0.430505 0.860556 0.553885 0.147618
H278  H     H_    0.860588 0.569354 0.554001 0.147316
H279  H     H_    0.569493 0.139447 0.553885 0.147619
H280  H     H_    0.139411 0.430662 0.554006 0.147301
H281  H     H_    0.928472 0.639726 0.946701 0.147730
H282  H     H_    0.360295 0.928524 0.946611 0.147508
H283  H     H_    0.071520 0.360270 0.946698 0.147724
H284  H     H_    0.639708 0.071466 0.946608 0.147497
H285  H     H_    0.928446 0.360274 0.053290 0.147758
H286  H     H_    0.360561 0.069493 0.053886 0.147633
H287  H     H_    0.071535 0.639729 0.053295 0.147742
H288  H     H_    0.639437 0.930502 0.053883 0.147638

loop_
_geom_bond_atom_site_label_1
_geom_bond_atom_site_label_2
_ccdc_geom_bond_type
C193  H55   S    
C134  C232  S    
C255  H191  S    
C163  H275  S    
C279  H245  S    
C205  C206  S    
O40   Zn10  S    
C235  C236  S    
O24   Zn2   S    
C183  C241  S    
C53   C69   A    
C42   C58   A    
O36   Zn9   S    
C124  C202  S    
C70   C174  A    
C276  H238  S    
C154  N13   A    
C164  H276  S    
O39   Zn10  S    
C287  H270  S    
C194  H52   S    
C46   C62   A    
C265  C266  S    
C177  C259  S    
C11   H3    S    
C278  H248  S    
C58   C82   A    
C9    H1    S    
C240  H156  S    
C284  C285  S    
C156  N11   A    
C215  H102  S    
C22   C38   A    
C269  C270  S    
N5    N10   A    
C64   C84   A    
C75   C90   S    
C72   C88   A    
C229  H138  S    
C100  O24   A    
C257  C258  S    
C56   C72   A    
C203  H73   S    
C8    O16   A    
C187  C277  S    
N7    N12   A    
C52   C80   A    
C92   O36   A    
O29   Zn5   S    
C94   O42   A    
C210  H86   S    
C98   O18   A    
C117  C133  A    
C236  H151  S    
C281  H255  S    
C89   O33   A    
C114  C130  A    
C263  H213  S    
C69   C173  A    
C108  C124  A    
C209  C210  S    
C14   C182  A    
C251  H185  S    
C199  C200  S    
C108  C146  A    
C96   O44   A    
O3    Zn3   S    
C34   C50   A    
O47   Zn12  S    
C6    O10   A    
C251  H186  S    
C218  H109  S    
C182  C244  S    
C225  H121  S    
O41   Zn11  S    
C261  H203  S    
C25   C41   A    
C130  C220  S    
C252  H183  S    
C278  C279  S    
C270  H226  S    
O5    Zn1   S    
C240  H154  S    
C28   C44   A    
C113  H41   S    
C47   C63   A    
C29   C45   A    
C226  C227  S    
C115  H43   S    
C197  H59   S    
C100  C148  S    
C250  H188  S    
C252  H184  S    
C29   H21   S    
C272  H234  S    
C4    C84   S    
C11   C27   A    
C112  H40   S    
C19   H11   S    
C248  C249  S    
O48   Zn12  S    
C105  H33   S    
C232  H146  S    
C17   H9    S    
C253  H195  S    
C107  H35   S    
C126  C208  S    
C108  H36   S    
C192  C274  S    
C95   O43   A    
C3    C83   S    
C216  H98   S    
C269  H228  S    
C226  H132  S    
C11   C179  A    
C114  C150  A    
C161  C177  A    
C214  C215  S    
C58   C162  A    
C235  H153  S    
C9    C177  A    
C276  H240  S    
C13   C29   A    
C219  H106  S    
C99   C147  S    
C266  C267  S    
C188  C286  S    
C257  H200  S    
C137  C160  S    
C23   H15   S    
C97   C145  S    
C247  H181  S    
C35   H27   S    
C158  N7    A    
C16   C184  A    
C141  C156  S    
C254  C255  S    
C132  C226  S    
C33   H25   S    
C132  C142  A    
C283  C284  S    
O44   Zn11  S    
C160  N3    A    
C67   C171  A    
C233  C234  S    
C104  C152  S    
C288  H267  S    
C259  C260  S    
C37   H29   S    
C264  H211  S    
C19   C35   A    
C220  H118  S    
C209  H88   S    
C274  H243  S    
O38   Zn10  S    
C239  H158  S    
N3    N16   A    
C154  N15   A    
C173  H285  S    
C245  C246  S    
C92   O38   A    
C248  H179  S    
O2    Zn2   S    
O30   Zn8   S    
C224  H122  S    
O43   Zn11  S    
C57   C161  A    
C99   O21   A    
C136  C144  A    
C279  H247  S    
C207  H77   S    
O27   Zn7   S    
C222  H112  S    
C205  H82   S    
C55   C71   A    
O35   Zn9   S    
C195  H50   S    
C260  H207  S    
C204  H70   S    
C48   C76   A    
C20   H12   S    
C280  C281  S    
C166  C182  A    
C282  H252  S    
C217  H110  S    
C117  H45   S    
C277  C278  S    
C160  N1    A    
C111  H39   S    
C238  H160  S    
C237  H148  S    
O6    Zn4   S    
C194  C195  S    
C13   H5    S    
O8    Zn2   S    
C120  H48   S    
C232  H145  S    
C231  H134  S    
C31   H23   S    
C286  C287  S    
C266  H221  S    
C287  C288  S    
C22   H14   S    
C244  H173  S    
C121  C137  A    
C44   C76   A    
C203  C204  S    
C101  C149  S    
C277  H250  S    
C98   O20   A    
C267  H217  S    
C71   C175  A    
C215  C216  S    
C127  C211  S    
C243  H161  S    
C172  H284  S    
C216  H100  S    
C206  H81   S    
C233  H144  S    
C202  H76   S    
C262  H215  S    
C36   C52   A    
C43   C59   A    
C93   O41   A    
C162  H274  S    
C37   C53   A    
C63   C167  A    
N2    N13   A    
C268  H230  S    
C261  H205  S    
C245  H172  S    
C179  C253  S    
C106  C122  A    
C109  C147  A    
C110  C148  A    
C158  N5    A    
O25   Zn5   S    
O42   Zn11  S    
C267  H219  S    
C284  H262  S    
C18   C34   A    
C39   C55   A    
C236  C237  S    
C283  H265  S    
C79   C94   S    
C117  C151  A    
C1    O7    A    
O34   Zn9   S    
C275  H242  S    
C213  H93   S    
C3    O3    A    
C249  H176  S    
O1    Zn1   S    
C271  H237  S    
C7    O11   A    
C208  H90   S    
C8    C88   S    
C103  O31   A    
O28   Zn8   S    
C118  C152  A    
C20   C188  A    
C2    O2    A    
C21   C189  A    
C116  C132  A    
C174  H286  S    
C281  C282  S    
C115  C149  A    
C89   O37   A    
C258  H196  S    
C90   O34   A    
C51   C67   A    
C159  N4    A    
C80   C95   S    
C91   O39   A    
C246  H169  S    
O31   Zn7   S    
C110  C126  A    
C199  H69   S    
C123  C199  S    
C256  H202  S    
C12   C180  A    
C265  H223  S    
C204  H72   S    
C13   C181  A    
O45   Zn12  S    
C163  C179  A    
C171  H283  S    
C22   C190  A    
C282  H254  S    
C280  H258  S    
C26   C42   A    
C228  H128  S    
C193  H54   S    
C255  H190  S    
C221  H115  S    
C8    O12   A    
C173  C189  A    
C62   C166  A    
C190  C268  S    
C114  H42   S    
C30   C46   A    
C73   C92   S    
C100  O22   A    
C197  C198  S    
C164  C180  A    
C66   C86   A    
C185  C283  S    
C15   C31   A    
C222  H114  S    
C16   C32   A    
O9    Zn5   S    
C123  C137  A    
C77   C96   S    
C248  H178  S    
C56   C80   A    
C194  H53   S    
C273  H233  S    
C5    O15   A    
C128  C140  A    
C278  H249  S    
C288  H266  S    
C93   O45   A    
C155  N12   A    
C95   O47   A    
C60   C164  A    
C49   C77   A    
C207  H79   S    
C61   C165  A    
C230  H136  S    
C62   C82   A    
C242  C243  S    
C130  C142  A    
O33   Zn9   S    
C162  C178  A    
C59   C163  A    
C76   C91   S    
C41   C73   A    
O37   Zn10  S    
C32   H24   S    
C201  H65   S    
C239  C240  S    
C234  H140  S    
O7    Zn3   S    
C244  C245  S    
C135  C143  A    
C4    O4    A    
C229  C230  S    
O32   Zn6   S    
C251  C252  S    
C210  H85   S    
C227  H129  S    
C107  C145  A    
C281  H256  S    
C136  C238  S    
C285  H260  S    
C263  H214  S    
C262  C263  S    
C207  H78   S    
C107  C123  A    
C211  H97   S    
C99   O23   A    
C39   H31   S    
C196  H61   S    
C243  H163  S    
C9    C25   A    
C213  H91   S    
C227  C228  S    
C260  C261  S    
C167  H279  S    
C153  N14   A    
C12   C28   A    
C103  O29   A    
C124  C138  A    
C225  H120  S    
C59   C83   A    
C224  C225  S    
C10   H2    S    
C254  H193  S    
C252  H182  S    
C270  H225  S    
C129  C141  A    
C33   C49   A    
C181  C247  S    
C166  H278  S    
C258  H198  S    
C90   O40   A    
C159  N2    A    
C175  H287  S    
C212  H94   S    
C230  C231  S    
C196  H62   S    
C197  H60   S    
C214  H104  S    
C250  H187  S    
C7    C87   S    
C225  H119  S    
C17   C185  A    
C40   C56   A    
C15   C183  A    
C241  H167  S    
C96   O46   A    
C186  C280  S    
C253  H194  S    
C69   C87   A    
C103  C151  S    
C259  H209  S    
C223  H124  S    
O18   Zn2   S    
C169  H281  S    
C118  H46   S    
C31   C47   A    
C43   C75   A    
N1    N14   A    
C32   C48   A    
C226  H131  S    
C17   C33   A    
C50   C78   A    
C235  H152  S    
C240  H155  S    
C42   C74   A    
C287  H269  S    
C110  H38   S    
O17   Zn1   S    
C273  H231  S    
C5    O9    A    
C250  C251  S    
C253  C254  S    
C247  H180  S    
C122  C138  A    
O15   Zn7   S    
C61   C83   A    
C288  H268  S    
C202  C203  S    
C94   O48   A    
C155  N10   A    
C215  H101  S    
C228  H126  S    
C24   H16   S    
C119  C135  A    
C232  C233  S    
C65   C169  A    
C120  C136  A    
C220  H117  S    
O13   Zn5   S    
C274  C275  S    
C104  O32   A    
C241  C242  S    
C111  C147  A    
C122  C196  S    
C30   H22   S    
C229  H139  S    
C201  H63   S    
C38   C54   A    
C249  H177  S    
C105  C145  A    
C170  C186  A    
C168  H280  S    
C1    C81   S    
C18   H10   S    
C51   C79   A    
C47   C73   A    
C113  C129  A    
C102  C150  S    
C224  H123  S    
C40   H32   S    
C236  H150  S    
C279  H246  S    
C285  H261  S    
C119  H47   S    
C2    C82   S    
C176  H288  S    
C254  H192  S    
C283  H264  S    
C101  O25   A    
C286  H272  S    
C153  N16   A    
C218  H108  S    
C165  H277  S    
C143  C154  S    
C6    C86   S    
C276  H239  S    
C34   H26   S    
O23   Zn3   S    
C28   H20   S    
C238  H159  S    
C16   H8    S    
C2    O6    A    
O26   Zn6   S    
O11   Zn7   S    
C38   H30   S    
C91   O35   A    
C205  H83   S    
C41   C57   A    
C196  C197  S    
C64   C168  A    
C68   C172  A    
C242  H164  S    
C44   C60   A    
C200  H67   S    
C45   C61   A    
O22   Zn4   S    
C72   C176  A    
C106  H34   S    
C112  C128  A    
C176  C192  A    
C180  C262  S    
C169  C185  A    
C195  H49   S    
C20   C36   A    
C27   C43   A    
C116  C150  A    
C21   C37   A    
C221  C222  S    
C216  H99   S    
C269  H227  S    
C3    O5    A    
C202  H75   S    
C217  C218  S    
C219  H105  S    
C54   C78   A    
C219  H107  S    
O16   Zn6   S    
C257  H199  S    
O10   Zn6   S    
C109  H37   S    
C261  H204  S    
C198  H56   S    
C208  C209  S    
C231  H133  S    
C36   H28   S    
C23   C191  A    
C223  C224  S    
C97   O17   A    
C255  H189  S    
C267  H218  S    
C115  C131  A    
C125  C139  A    
C14   H6    S    
C126  C140  A    
C264  H210  S    
C49   C65   A    
C63   C81   A    
C74   C89   S    
C133  C229  S    
C263  C264  S    
C53   C79   A    
C172  C188  A    
C247  C248  S    
C264  H212  S    
O14   Zn8   S    
C175  C191  A    
C209  H87   S    
C55   C77   A    
O21   Zn1   S    
C274  H244  S    
C213  H92   S    
C239  H157  S    
C78   C93   S    
C249  H175  S    
C128  C214  S    
C271  H236  S    
C178  C256  S    
C6    O14   A    
N6    N9    A    
C208  H89   S    
C170  H282  S    
C21   H13   S    
C144  C153  S    
C4    O8    A    
C48   C64   A    
C24   C40   A    
C71   C85   A    
C138  C159  S    
O4    Zn4   S    
C167  C183  A    
C139  C158  S    
C168  C184  A    
C54   C70   A    
C220  C221  S    
C203  H74   S    
C242  H165  S    
C142  C155  S    
C222  H113  S    
C246  H168  S    
C52   C68   A    
C199  H68   S    
C234  H142  S    
C121  C193  S    
C256  H201  S    
C272  C273  S    
C101  O27   A    
C195  H51   S    
C265  H222  S    
C260  H206  S    
C204  H71   S    
C102  O28   A    
C7    O13   A    
O20   Zn4   S    
O46   Zn12  S    
C193  C194  S    
C127  C139  A    
C14   C30   A    
C282  H253  S    
C280  H257  S    
C157  N6    A    
C125  C205  S    
C228  H127  S    
C119  C151  A    
C237  H149  S    
C221  H116  S    
C120  C152  A    
C10   C178  A    
C113  C149  A    
C272  H235  S    
C275  C276  S    
N4    N15   A    
C231  H135  S    
C98   C146  S    
C234  H141  S    
C200  H66   S    
C134  C144  A    
C266  H220  S    
C18   C186  A    
N8    N11   A    
C104  O30   A    
C112  C148  A    
C268  H229  S    
C244  H174  S    
C273  H232  S    
C133  C143  A    
C26   H18   S    
C140  C157  S    
C15   H7    S    
C277  H251  S    
C12   H4    S    
C238  C239  S    
O19   Zn3   S    
C156  N9    A    
C285  H259  S    
C27   H19   S    
C198  H57   S    
C105  C121  A    
C206  H80   S    
C135  C235  S    
C230  H137  S    
C233  H143  S    
C25   H17   S    
C262  H216  S    
C50   C66   A    
C211  C212  S    
C1    O1    A    
C24   C192  A    
C116  H44   S    
C109  C125  A    
C201  H64   S    
C174  C190  A    
C271  C272  S    
C111  C127  A    
C245  H171  S    
C68   C88   A    
C198  H58   S    
C57   C81   A    
C223  H125  S    
C70   C86   A    
C189  C271  S    
C46   C74   A    
C97   O19   A    
C210  H84   S    
C227  H130  S    
O12   Zn8   S    
C66   C170  A    
C211  H96   S    
C268  C269  S    
C118  C134  A    
C275  H241  S    
C243  H162  S    
C65   C85   A    
C284  H263  S    
C286  H271  S    
C256  C257  S    
C67   C87   A    
C106  C146  A    
C171  C187  A    
C45   C75   A    
C165  C181  A    
C5    C85   S    
C35   C51   A    
C60   C84   A    
C10   C26   A    
C270  H224  S    
C212  C213  S    
C23   C39   A    
C161  H273  S    
C217  H111  S    
C258  H197  S    
C237  H147  S    
C191  C265  S    
C212  H95   S    
C206  C207  S    
C246  H170  S    
C214  H103  S    
C131  C141  A    
C184  C250  S    
C129  C217  S    
C200  C201  S    
C102  O26   A    
C241  H166  S    
C131  C223  S    
C218  C219  S    
C19   C187  A    
C157  N8    A    
C259  H208  S    
