data_mof_unit_18349.cif
_audit_creation_date              2012-12-10T18:03:18-0500
_audit_creation_method            fapswitch 2.2
_symmetry_space_group_name_H-M    P1
_symmetry_Int_Tables_number       1
_space_group_crystal_system       triclinic
_cell_length_a                    10.834289
_cell_length_b                    9.516692
_cell_length_c                    15.092287
_cell_angle_alpha                 90.0
_cell_angle_beta                  90.166772
_cell_angle_gamma                 89.99987
_cell_volume                      1556.10767786

loop_
_atom_site_label
_atom_site_type_symbol
_atom_type_description
_atom_site_fract_x
_atom_site_fract_y
_atom_site_fract_z
_atom_type_partial_charge
C1    C     C_R   0.262050 0.500000 0.499930 0.794108
C2    C     C_R   0.737950 0.500000 0.500070 0.794108
C3    C     C_R   0.499914 0.500005 0.329956 0.848295
C4    C     C_R   0.500087 0.500005 0.670043 0.848275
C5    C     C_R   0.422273 0.074421 0.445595 -0.004825
C6    C     C_R   0.577715 0.925571 0.554416 -0.002085
C7    C     C_R   0.577727 0.074420 0.554405 -0.004813
C8    C     C_R   0.422285 0.925571 0.445584 -0.002099
C9    C     C_R   0.063848 0.372304 0.499952 -0.160093
C10   C     C_R   0.936152 0.627695 0.500054 -0.159729
C11   C     C_R   0.936152 0.372304 0.500049 -0.160091
C12   C     C_R   0.063848 0.627696 0.499946 -0.159727
C13   C     C_R   0.432473 0.602806 0.095004 0.426435
C14   C     C_R   0.432416 0.397677 0.904749 0.424151
C15   C     C_R   0.567629 0.602716 0.904993 0.426454
C16   C     C_R   0.567479 0.397585 0.095245 0.424148
C17   C     C_R   0.434337 0.603422 0.187213 -0.206745
C18   C     C_R   0.434402 0.396860 0.812556 -0.205129
C19   C     C_R   0.565765 0.603336 0.812784 -0.206757
C20   C     C_R   0.565495 0.396773 0.187439 -0.205136
C21   C     C_R   0.499889 0.500044 0.233511 -0.166059
C22   C     C_R   0.500111 0.500044 0.766486 -0.166030
C23   C     C_R   0.500003 0.500240 0.048540 -0.023984
C24   C     C_R   0.499994 0.500241 0.951455 -0.023986
C25   C     C_R   0.871790 0.500000 0.500079 -0.021252
C26   C     C_R   0.128210 0.500000 0.499921 -0.021253
Cu1   Cu    Cu3+1 0.500000 0.640660 0.500000 0.967715
Cu2   Cu    Cu3+1 0.500000 0.359340 0.500000 0.964766
H1    H     H_    0.360013 0.130535 0.402017 0.134174
H2    H     H_    0.639947 0.869447 0.598017 0.126856
H3    H     H_    0.639987 0.130535 0.597983 0.134175
H4    H     H_    0.360053 0.869448 0.401983 0.126852
H5    H     H_    0.382492 0.682721 0.222767 0.182155
H6    H     H_    0.382492 0.317583 0.776826 0.190968
H7    H     H_    0.617693 0.682563 0.777229 0.182128
H8    H     H_    0.617331 0.317427 0.223167 0.190993
H9    H     H_    0.111875 0.272466 0.499908 0.154599
H10   H     H_    0.888125 0.727534 0.500107 0.154809
H11   H     H_    0.888125 0.272466 0.500093 0.154598
H12   H     H_    0.111874 0.727534 0.499893 0.154810
N1    N     N_R   0.500000 0.852070 0.500000 -0.165856
N2    N     N_R   0.500000 0.147930 0.500000 -0.168598
O1    O     O_R   0.319640 0.618740 0.499990 -0.590202
O2    O     O_R   0.680360 0.381260 0.500010 -0.590799
O3    O     O_R   0.680360 0.618740 0.500010 -0.590205
O4    O     O_R   0.319640 0.381260 0.499990 -0.590800
O5    O     O_R   0.499990 0.618780 0.371460 -0.576430
O6    O     O_R   0.500010 0.381220 0.628540 -0.578588
O7    O     O_R   0.500010 0.618780 0.628540 -0.576414
O8    O     O_R   0.499990 0.381220 0.371460 -0.578604
Cl1   Cl    Cl    0.342881 0.730295 0.039714 -0.475045
Cl2   Cl    Cl    0.342612 0.270424 0.959709 -0.474600
Cl3   Cl    Cl    0.657365 0.730073 0.960283 -0.475076
Cl4   Cl    Cl    0.657160 0.270216 0.040284 -0.474559

loop_
_geom_bond_atom_site_label_1
_geom_bond_atom_site_label_2
_ccdc_geom_bond_type
C12   H12   S    
C5    C8    A    
C11   H11   S    
C23   C24   S    
C14   Cl2   S    
C6    C7    A    
C2    C25   S    
C4    C22   S    
C14   C18   A    
C13   C17   A    
C4    O7    A    
C10   H10   S    
Cu1   O3    S    
C9    H9    S    
C2    O2    A    
Cu2   O6    S    
C19   H7    S    
C8    N1    A    
C15   C19   A    
C9    C11   A    
Cu2   O4    S    
C17   H5    S    
C15   Cl3   S    
C10   C25   A    
C3    O5    A    
C16   C20   A    
C6    H2    S    
C3    O8    A    
C1    O1    A    
C9    C26   A    
C16   C23   A    
C5    H1    S    
C18   H6    S    
C2    O3    A    
C13   Cl1   S    
C1    C26   S    
C10   C12   A    
C16   Cl4   S    
C1    O4    A    
C3    C21   S    
C7    H3    S    
C11   C25   A    
Cu1   O5    S    
C20   H8    S    
Cu1   O1    S    
C19   C22   A    
C20   C21   A    
C13   C23   A    
C5    N2    A    
C4    O6    A    
C7    N2    A    
C14   C24   A    
Cu1   Cu2   S    
Cu1   N1    S    
C15   C24   A    
Cu2   N2    S    
C18   C22   A    
Cu2   O8    S    
Cu2   O2    S    
C17   C21   A    
Cu1   O7    S    
C12   C26   A    
C6    N1    A    
C8    H4    S    
