data_mof_unit_33999.cif
_audit_creation_date              2012-12-11T16:16:26-0500
_audit_creation_method            fapswitch 2.2
_symmetry_space_group_name_H-M    P1
_symmetry_Int_Tables_number       1
_space_group_crystal_system       triclinic
_cell_length_a                    7.234428
_cell_length_b                    26.939822
_cell_length_c                    27.902172
_cell_angle_alpha                 90.0
_cell_angle_beta                  90.000029
_cell_angle_gamma                 89.999985
_cell_volume                      5437.97156252

loop_
_atom_site_label
_atom_site_type_symbol
_atom_type_description
_atom_site_fract_x
_atom_site_fract_y
_atom_site_fract_z
_atom_type_partial_charge
O1    O     O_R   0.600980 0.796780 0.202430 -0.505879
O2    O     O_R   0.399020 0.203220 0.797570 -0.517121
O3    O     O_R   0.399020 0.203220 0.702430 -0.505879
O4    O     O_R   0.600980 0.796780 0.297570 -0.517121
O5    O     O_R   0.100980 0.703220 0.297570 -0.505879
O6    O     O_R   0.899020 0.296780 0.702430 -0.517121
O7    O     O_R   0.899020 0.296780 0.797570 -0.505879
O8    O     O_R   0.100980 0.703220 0.202430 -0.517121
O9    O     O_R   0.271240 0.802920 0.297240 -0.518672
O10   O     O_R   0.728760 0.197080 0.702760 -0.525649
O11   O     O_R   0.728760 0.197080 0.797240 -0.518672
O12   O     O_R   0.271240 0.802920 0.202760 -0.525649
O13   O     O_R   0.771240 0.697080 0.202760 -0.518672
O14   O     O_R   0.228760 0.302920 0.797240 -0.525649
O15   O     O_R   0.228760 0.302920 0.702760 -0.518672
O16   O     O_R   0.771240 0.697080 0.297240 -0.525649
C1    C     C_R   0.441280 0.814119 0.313921 0.828536
C2    C     C_R   0.559498 0.185700 0.686176 0.795588
C3    C     C_R   0.558720 0.185881 0.813921 0.828536
C4    C     C_R   0.440501 0.814300 0.186176 0.795588
C5    C     C_R   0.941280 0.685881 0.186079 0.828536
C6    C     C_R   0.059499 0.314300 0.813824 0.795588
C7    C     C_R   0.058720 0.314119 0.686079 0.828536
C8    C     C_R   0.940501 0.685700 0.313824 0.795587
O17   O     O_3   0.434470 0.717290 0.250000 -0.360305
O18   O     O_3   0.565530 0.282710 0.750000 -0.360305
O19   O     O_3   0.934470 0.782710 0.250000 -0.360305
O20   O     O_3   0.065530 0.217290 0.750000 -0.360305
V1    V     V_3+5 0.159620 0.756070 0.250000 1.736930
V2    V     V_3+5 0.840380 0.243930 0.750000 1.736931
V3    V     V_3+5 0.659620 0.743930 0.250000 1.736930
V4    V     V_3+5 0.340380 0.256070 0.750000 1.736931
C9    C     C_R   0.082946 0.651501 0.392232 0.293284
C10   C     C_R   0.895281 0.350365 0.611731 0.368976
C11   C     C_R   0.917055 0.348498 0.892232 0.293284
C12   C     C_R   0.104719 0.649634 0.111732 0.368975
C13   C     C_R   0.582945 0.848499 0.107768 0.293283
C14   C     C_R   0.395281 0.149635 0.888268 0.368976
C15   C     C_R   0.417054 0.151501 0.607768 0.293283
C16   C     C_R   0.604719 0.850365 0.388268 0.368976
C17   C     C_R   0.075520 0.616953 0.430483 0.326253
C18   C     C_R   0.872860 0.390233 0.578938 0.300133
C19   C     C_R   0.924481 0.383047 0.930484 0.326253
C20   C     C_R   0.127140 0.609767 0.078938 0.300129
C21   C     C_R   0.575520 0.883047 0.069516 0.326252
C22   C     C_R   0.372860 0.109767 0.921062 0.300129
C23   C     C_R   0.424480 0.116953 0.569517 0.326253
C24   C     C_R   0.627140 0.890233 0.421062 0.300127
C25   C     C_R   0.953778 0.576156 0.428943 -0.220985
C26   C     C_R   0.001701 0.429624 0.577346 -0.214746
C27   C     C_R   0.046223 0.423843 0.928943 -0.220984
C28   C     C_R   0.998299 0.570375 0.077347 -0.214740
C29   C     C_R   0.453777 0.923843 0.071057 -0.220984
C30   C     C_R   0.501701 0.070375 0.922654 -0.214741
C31   C     C_R   0.546223 0.076157 0.571057 -0.220984
C32   C     C_R   0.498299 0.929624 0.422653 -0.214739
C33   C     C_R   0.825051 0.573027 0.391085 0.468601
C34   C     C_R   0.142053 0.431326 0.612521 0.394920
C35   C     C_R   0.174950 0.426973 0.891086 0.468600
C36   C     C_R   0.857948 0.568674 0.112521 0.394922
C37   C     C_R   0.325050 0.926973 0.108914 0.468601
C38   C     C_R   0.642053 0.068674 0.887479 0.394921
C39   C     C_R   0.674949 0.073027 0.608914 0.468601
C40   C     C_R   0.357948 0.931326 0.387479 0.394921
C41   C     C_R   0.821126 0.609827 0.355287 -0.304649
C42   C     C_R   0.162274 0.392424 0.645804 -0.316816
C43   C     C_R   0.178874 0.390173 0.855288 -0.304647
C44   C     C_R   0.837726 0.607576 0.145804 -0.316829
C45   C     C_R   0.321125 0.890173 0.144712 -0.304648
C46   C     C_R   0.662274 0.107576 0.854196 -0.316826
C47   C     C_R   0.678874 0.109827 0.644712 -0.304648
C48   C     C_R   0.337726 0.892424 0.354196 -0.316828
H1    H     H_    0.719471 0.606734 0.326955 0.152065
H2    H     H_    0.271767 0.394875 0.672198 0.162775
H3    H     H_    0.280529 0.393266 0.826955 0.152066
H4    H     H_    0.728230 0.605125 0.172198 0.162771
H5    H     H_    0.219470 0.893266 0.173045 0.152065
H6    H     H_    0.771769 0.105125 0.827802 0.162771
H7    H     H_    0.780530 0.106734 0.673045 0.152065
H8    H     H_    0.228231 0.894874 0.327802 0.162771
C49   C     C_R   0.950798 0.648679 0.354216 -0.296315
C50   C     C_R   0.040519 0.351875 0.646593 -0.235300
C51   C     C_R   0.049202 0.351320 0.854216 -0.296316
C52   C     C_R   0.959480 0.648125 0.146593 -0.235294
C53   C     C_R   0.450798 0.851320 0.145784 -0.296316
C54   C     C_R   0.540520 0.148125 0.853407 -0.235295
C55   C     C_R   0.549202 0.148679 0.645784 -0.296316
C56   C     C_R   0.459481 0.851875 0.353407 -0.235295
N1    N     N_R   0.812511 0.513595 0.483086 -0.213425
N2    N     N_R   0.142892 0.491841 0.522344 -0.235866
N3    N     N_R   0.187490 0.486404 0.983087 -0.213425
N4    N     N_R   0.857109 0.508159 0.022345 -0.235860
N5    N     N_R   0.312510 0.986404 0.016914 -0.213425
N6    N     N_R   0.642891 0.008159 0.977655 -0.235861
N7    N     N_R   0.687490 0.013596 0.516914 -0.213425
N8    N     N_R   0.357109 0.991841 0.477655 -0.235861
N9    N     N_R   0.824375 0.480136 0.518138 -0.256614
N10   N     N_R   0.131378 0.525314 0.487226 -0.218388
N11   N     N_R   0.175625 0.519863 0.018139 -0.256616
N12   N     N_R   0.868623 0.474686 0.987227 -0.218387
N13   N     N_R   0.324375 0.019864 0.981861 -0.256615
N14   N     N_R   0.631377 0.974686 0.012774 -0.218387
N15   N     N_R   0.675626 0.980137 0.481861 -0.256616
N16   N     N_R   0.368622 0.025314 0.512774 -0.218387
C57   C     C_R   0.989140 0.468506 0.538829 0.571378
C58   C     C_R   0.965979 0.537024 0.466833 0.559219
C59   C     C_R   0.010860 0.531493 0.038830 0.571391
C60   C     C_R   0.034022 0.462975 0.966834 0.559218
C61   C     C_R   0.489140 0.031494 0.961171 0.571390
C62   C     C_R   0.465978 0.962975 0.033166 0.559219
C63   C     C_R   0.510860 0.968506 0.461171 0.571391
C64   C     C_R   0.534022 0.037024 0.533166 0.559218
S1    S     S_3+6 0.266881 0.695243 0.391617 0.090374
O21   O     O_2   0.192179 0.746524 0.383900 -0.268655
O22   O     O_2   0.377900 0.695311 0.437132 -0.279209
O23   O     O_3   0.407853 0.680083 0.346083 -0.475830
H9    H     H_    0.425061 0.643747 0.348923 0.308506
S2    S     S_3+6 0.738565 0.299419 0.607695 0.063162
O24   O     O_2   0.591283 0.306177 0.645043 -0.340701
O25   O     O_2   0.648918 0.296537 0.559128 -0.289626
O26   O     O_3   0.848690 0.245821 0.617640 -0.441466
H10   H     H_    0.778166 0.220568 0.599452 0.375055
S3    S     S_3+6 0.733119 0.304757 0.891617 0.090374
O27   O     O_2   0.807821 0.253476 0.883900 -0.268655
O28   O     O_2   0.622100 0.304688 0.937131 -0.279209
O29   O     O_3   0.592147 0.319917 0.846083 -0.475830
H11   H     H_    0.574940 0.356252 0.848923 0.308506
S4    S     S_3+6 0.261435 0.700581 0.107696 0.063162
O30   O     O_2   0.408717 0.693823 0.145043 -0.340701
O31   O     O_2   0.351081 0.703463 0.059128 -0.289625
O32   O     O_3   0.151310 0.754178 0.117640 -0.441466
H12   H     H_    0.221834 0.779431 0.099452 0.375055
S5    S     S_3+6 0.766881 0.804757 0.108383 0.090375
O33   O     O_2   0.692179 0.753476 0.116100 -0.268656
O34   O     O_2   0.877900 0.804689 0.062868 -0.279209
O35   O     O_3   0.907853 0.819917 0.153917 -0.475829
H13   H     H_    0.925060 0.856252 0.151077 0.308505
S6    S     S_3+6 0.238565 0.200580 0.892304 0.063162
O36   O     O_2   0.091283 0.193823 0.854957 -0.340701
O37   O     O_2   0.148918 0.203463 0.940872 -0.289625
O38   O     O_3   0.348690 0.254178 0.882360 -0.441466
H14   H     H_    0.278166 0.279431 0.900548 0.375055
S7    S     S_3+6 0.233119 0.195243 0.608383 0.090374
O39   O     O_2   0.307820 0.246524 0.616100 -0.268656
O40   O     O_2   0.122099 0.195311 0.562868 -0.279210
O41   O     O_3   0.092147 0.180083 0.653917 -0.475830
H15   H     H_    0.074940 0.143747 0.651077 0.308506
S8    S     S_3+6 0.761435 0.799419 0.392305 0.063162
O42   O     O_2   0.908717 0.806177 0.354957 -0.340701
O43   O     O_2   0.851082 0.796537 0.440872 -0.289625
O44   O     O_3   0.651310 0.745822 0.382360 -0.441466
H16   H     H_    0.721834 0.720568 0.400548 0.375055
O45   O     O_3   0.191931 0.622324 0.469451 -0.503469
C65   C     C_3   0.096417 0.648671 0.505514 -0.026174
H17   H     H_    0.975374 0.627338 0.518961 0.092197
H18   H     H_    0.051379 0.685904 0.492668 0.164605
H19   H     H_    0.191497 0.654512 0.536183 0.158610
O46   O     O_3   0.730320 0.389213 0.545905 -0.510747
C66   C     C_3   0.571075 0.410052 0.567168 0.037263
H20   H     H_    0.464908 0.415349 0.538944 0.183467
H21   H     H_    0.599115 0.446964 0.583596 0.121972
H22   H     H_    0.511836 0.384959 0.594618 0.166855
O47   O     O_3   0.808069 0.377676 0.969451 -0.503469
C67   C     C_3   0.903584 0.351328 0.005514 -0.026170
H23   H     H_    0.024627 0.372661 0.018962 0.092199
H24   H     H_    0.948621 0.314095 0.992668 0.164604
H25   H     H_    0.808504 0.345487 0.036183 0.158611
O48   O     O_3   0.269680 0.610786 0.045905 -0.510748
C68   C     C_3   0.428926 0.589948 0.067169 0.037264
H26   H     H_    0.535092 0.584650 0.038944 0.183468
H27   H     H_    0.400886 0.553035 0.083597 0.121973
H28   H     H_    0.488165 0.615041 0.094618 0.166855
O49   O     O_3   0.691931 0.877676 0.030549 -0.503469
C69   C     C_3   0.596417 0.851328 0.994486 -0.026170
H29   H     H_    0.475374 0.872661 0.981038 0.092198
H30   H     H_    0.551379 0.814095 0.007332 0.164604
H31   H     H_    0.691496 0.845487 0.963817 0.158611
O50   O     O_3   0.230320 0.110786 0.954095 -0.510748
C70   C     C_3   0.071074 0.089948 0.932831 0.037263
H32   H     H_    0.964908 0.084650 0.961056 0.183468
H33   H     H_    0.099114 0.053035 0.916404 0.121973
H34   H     H_    0.011835 0.115041 0.905382 0.166855
O51   O     O_3   0.308069 0.122324 0.530549 -0.503469
C71   C     C_3   0.403583 0.148672 0.494486 -0.026170
H35   H     H_    0.524626 0.127339 0.481038 0.092198
H36   H     H_    0.448620 0.185904 0.507332 0.164604
H37   H     H_    0.308503 0.154512 0.463817 0.158611
O52   O     O_3   0.769680 0.889214 0.454095 -0.510748
C72   C     C_3   0.928926 0.910052 0.432831 0.037264
H38   H     H_    0.035092 0.915350 0.461056 0.183468
H39   H     H_    0.900886 0.946965 0.416403 0.121973
H40   H     H_    0.988165 0.884959 0.405381 0.166855
O53   O     O_3   0.697331 0.534905 0.389821 -0.521903
C73   C     C_3   0.759372 0.498727 0.357052 -0.186033
H41   H     H_    0.897686 0.484024 0.367357 0.132051
H42   H     H_    0.762816 0.513552 0.319835 0.103443
H43   H     H_    0.660958 0.467158 0.357549 0.176606
O54   O     O_3   0.262623 0.471036 0.614392 -0.548721
C74   C     C_3   0.194780 0.505533 0.648048 -0.219135
H44   H     H_    0.191883 0.489455 0.684792 0.116953
H45   H     H_    0.055035 0.519261 0.637806 0.132199
H46   H     H_    0.289077 0.537991 0.648760 0.170417
O55   O     O_3   0.302671 0.465095 0.889822 -0.521903
C75   C     C_3   0.240629 0.501273 0.857053 -0.186033
H47   H     H_    0.102315 0.515976 0.867359 0.132050
H48   H     H_    0.237183 0.486448 0.819836 0.103446
H49   H     H_    0.339043 0.532842 0.857550 0.176606
O56   O     O_3   0.737376 0.528963 0.114391 -0.548718
C76   C     C_3   0.805182 0.494473 0.148058 -0.219157
H50   H     H_    0.808019 0.510558 0.184800 0.116959
H51   H     H_    0.944948 0.480748 0.137832 0.132197
H52   H     H_    0.710899 0.462012 0.148765 0.170422
O57   O     O_3   0.197329 0.965095 0.110179 -0.521903
C77   C     C_3   0.259368 0.001272 0.142948 -0.186034
H53   H     H_    0.397683 0.015975 0.132644 0.132050
H54   H     H_    0.262809 0.986447 0.180165 0.103444
H55   H     H_    0.160954 0.032841 0.142450 0.176606
O58   O     O_3   0.762623 0.028963 0.885609 -0.548718
C78   C     C_3   0.694813 0.994472 0.851943 -0.219154
H56   H     H_    0.691967 0.010556 0.815201 0.116958
H57   H     H_    0.555050 0.980747 0.862172 0.132197
H58   H     H_    0.789098 0.962011 0.851236 0.170421
O59   O     O_3   0.802671 0.034905 0.610179 -0.521903
C79   C     C_3   0.740630 0.998727 0.642948 -0.186032
H59   H     H_    0.602316 0.984024 0.632642 0.132050
H60   H     H_    0.737186 0.013552 0.680164 0.103443
H61   H     H_    0.839044 0.967158 0.642450 0.176605
O60   O     O_3   0.237376 0.971037 0.385609 -0.548718
C80   C     C_3   0.305184 0.005528 0.351943 -0.219159
H62   H     H_    0.308027 0.989443 0.315201 0.116960
H63   H     H_    0.444947 0.019253 0.362171 0.132198
H64   H     H_    0.210899 0.037988 0.351235 0.170422

loop_
_geom_bond_atom_site_label_1
_geom_bond_atom_site_label_2
_ccdc_geom_bond_type
C29   C62   S    
O17   V3    S    
S7    O41   S    
C73   H42   S    
O55   C75   S    
C79   H61   S    
C10   S2    S    
O29   H11   S    
C7    C50   S    
C31   C64   S    
O19   V1    S    
C1    C56   S    
C68   H26   S    
C22   O50   S    
C45   H5    S    
O47   C67   S    
C10   C18   A    
S8    O44   S    
C15   C55   A    
O51   C71   S    
C3    C54   S    
S4    O30   D    
S2    O25   D    
C47   H7    S    
O50   C70   S    
C15   S7    S    
C43   H3    S    
C25   C33   A    
S3    O27   D    
C12   S4    S    
O57   C77   S    
O23   H9    S    
O16   V3    S    
C43   C51   A    
O11   C3    A    
C14   C54   A    
O8    V1    S    
C38   O58   S    
C13   C53   A    
C67   H23   S    
S8    O43   D    
C24   O52   S    
C80   H64   S    
N7    C64   A    
O12   V1    S    
C77   H54   S    
S3    O28   D    
C73   H43   S    
C46   H6    S    
N13   C61   A    
S7    O39   D    
C42   H2    S    
O1    V3    S    
C76   H52   S    
C41   H1    S    
C71   H35   S    
C38   C46   A    
O3    C2    A    
O2    V4    S    
C20   O48   S    
C72   H39   S    
C16   C24   A    
S2    O24   D    
S1    O21   D    
C28   C36   A    
C35   C43   A    
C69   H29   S    
C29   C37   A    
C34   C42   A    
C70   H34   S    
O59   C79   S    
C28   C59   S    
C27   C60   S    
C31   C39   A    
N1    C58   A    
C74   H46   S    
O44   H16   S    
C66   H21   S    
O54   C74   S    
C11   C19   A    
C32   C63   S    
C65   H18   S    
C24   C32   A    
O9    V1    S    
N5    C62   A    
S1    O23   S    
N9    C57   A    
C20   C28   A    
O15   C7    A    
C73   H41   S    
C21   C29   A    
C74   H44   S    
O16   C8    A    
O7    V2    S    
C79   H59   S    
S5    O34   D    
C68   H27   S    
O12   C4    A    
C18   O46   S    
C37   O57   S    
C17   O45   S    
C17   C25   A    
O60   C80   S    
C48   C56   A    
N7    N15   A    
O8    C5    A    
O5    V1    S    
N8    C63   A    
N12   C60   A    
C16   S8    S    
C26   C34   A    
C39   O59   S    
O15   V4    S    
S8    O42   D    
O11   V2    S    
C65   H19   S    
C23   O51   S    
N5    N13   A    
C78   H56   S    
N16   C64   A    
C11   C51   A    
O18   V4    S    
O56   C76   S    
S3    O29   S    
C30   C38   A    
O49   C69   S    
C15   C23   A    
S6    O38   S    
C30   C61   S    
N1    N9    A    
O52   C72   S    
S2    O26   S    
C44   C52   A    
C72   H40   S    
C8    C49   S    
C80   H62   S    
C21   O49   S    
C78   H57   S    
O10   V2    S    
N4    C59   A    
C41   C49   A    
C66   H20   S    
C5    C52   S    
C4    C53   S    
C22   C30   A    
C32   C40   A    
C76   H50   S    
C14   S6    S    
C66   H22   S    
O13   C5    A    
C69   H31   S    
C65   H17   S    
O26   H10   S    
C39   C47   A    
S6    O37   D    
C18   C26   A    
S5    O35   S    
C47   C55   A    
O4    C1    A    
O9    C1    A    
O48   C68   S    
O6    V2    S    
C75   H48   S    
N8    N16   A    
O46   C66   S    
C68   H28   S    
C13   S5    S    
N14   C62   A    
C27   C35   A    
C13   C21   A    
O32   H12   S    
C46   C54   A    
S4    O32   S    
C40   O60   S    
C45   C53   A    
N4    N12   A    
C23   C31   A    
O41   H15   S    
C37   C45   A    
C72   H38   S    
S7    O40   D    
C34   O54   S    
O1    C4    A    
O2    C3    A    
C77   H53   S    
N3    C60   A    
O13   V3    S    
C67   H25   S    
C36   O56   S    
C12   C52   A    
N2    C57   A    
C33   C41   A    
O35   H13   S    
C26   C57   S    
C77   H55   S    
C79   H60   S    
C11   S3    S    
C25   C58   S    
N15   C63   A    
S4    O31   D    
C44   H4    S    
O7    C6    A    
N11   C59   A    
N6    C61   A    
C9    S1    S    
C2    C55   S    
N10   C58   A    
C71   H37   S    
C9    C17   A    
C6    C51   S    
O14   C6    A    
C67   H24   S    
C80   H63   S    
O38   H14   S    
C78   H58   S    
C19   C27   A    
O58   C78   S    
S5    O33   D    
O5    C8    A    
O10   C2    A    
O6    C7    A    
O20   V2    S    
C76   H51   S    
C71   H36   S    
C75   H49   S    
C40   C48   A    
O3    V4    S    
C69   H30   S    
C14   C22   A    
O4    V3    S    
C12   C20   A    
S6    O36   D    
C70   H32   S    
C35   O55   S    
O14   V4    S    
C75   H47   S    
C36   C44   A    
C48   H8    S    
O53   C73   S    
C33   O53   S    
C74   H45   S    
C70   H33   S    
C10   C50   A    
N3    N11   A    
O45   C65   S    
C9    C49   A    
N2    N10   A    
C16   C56   A    
C42   C50   A    
N6    N14   A    
S1    O22   D    
C19   O47   S    
