data_mof_unit_13763.cif
_audit_creation_date              2012-12-10T17:15:12-0500
_audit_creation_method            fapswitch 2.2
_symmetry_space_group_name_H-M    P1
_symmetry_Int_Tables_number       1
_space_group_crystal_system       triclinic
_cell_length_a                    15.864453
_cell_length_b                    13.089388
_cell_length_c                    11.83623
_cell_angle_alpha                 98.267623
_cell_angle_beta                  92.739895
_cell_angle_gamma                 93.611851
_cell_volume                      2423.46223122

loop_
_atom_site_label
_atom_site_type_symbol
_atom_type_description
_atom_site_fract_x
_atom_site_fract_y
_atom_site_fract_z
_atom_type_partial_charge
C1    C     C_R   0.502531 0.300170 0.480394 0.830761
C2    C     C_R   0.495694 0.699853 0.519758 0.808536
C3    C     C_R   0.564834 0.029238 0.374560 0.014376
C4    C     C_R   0.488937 0.977707 0.654990 0.017771
C5    C     C_R   0.562515 0.138015 0.386161 0.078820
C6    C     C_R   0.472100 0.869979 0.636418 0.120750
C7    C     C_R   0.488051 0.134583 0.561968 -0.078554
C8    C     C_R   0.507266 0.866686 0.436527 -0.089727
C9    C     C_R   0.504210 0.030109 0.560302 0.052175
C10   C     C_R   0.526427 0.974582 0.456618 0.067864
C11   C     C_R   0.418729 0.399385 0.027388 -0.167451
C12   C     C_R   0.581326 0.602432 0.972075 -0.136959
C13   C     C_R   0.425147 0.411284 0.148287 0.124802
C14   C     C_R   0.577575 0.585481 0.851105 0.088482
C15   C     C_R   0.541366 0.536354 0.153670 0.115929
C16   C     C_R   0.456224 0.469519 0.848882 0.095803
C17   C     C_R   0.531444 0.535979 0.032421 0.045374
C18   C     C_R   0.468863 0.466870 0.968890 -0.113420
C19   C     C_R   0.340311 0.499709 0.500859 0.833413
C20   C     C_R   0.659682 0.500271 0.499120 0.797532
C21   C     C_3   0.966621 0.401329 0.481780 -0.067738
C22   C     C_3   0.033249 0.597339 0.517740 -0.072388
C23   C     C_3   0.022524 0.452010 0.398855 -0.069688
C24   C     C_3   0.977380 0.546660 0.600674 -0.064735
C25   C     C_1   0.250962 0.499823 0.502562 -0.098114
C26   C     C_1   0.748990 0.499651 0.497304 -0.096933
C27   C     C_3   0.028385 0.449323 0.583308 0.036494
C28   C     C_3   0.971507 0.549339 0.416217 0.039311
C29   C     C_3   0.083941 0.500020 0.500408 0.099534
C30   C     C_3   0.915950 0.498669 0.499132 0.099802
C31   C     C_1   0.175566 0.499912 0.502239 0.107467
C32   C     C_1   0.824352 0.499113 0.497462 0.115725
C33   C     C_R   0.489443 0.813132 0.529756 -0.116986
C34   C     C_R   0.515845 0.188884 0.473954 -0.093618
Cu1   Cu    Cu3+1 0.506200 0.507730 0.615930 0.996956
Cu2   Cu    Cu3+1 0.493800 0.492270 0.384070 0.961870
N1    N     N_R   0.515540 0.519350 0.790140 -0.218693
N2    N     N_R   0.484460 0.480650 0.209860 -0.268462
O1    O     O_R   0.504400 0.354460 0.582000 -0.581480
O2    O     O_R   0.495600 0.645540 0.418000 -0.644443
O3    O     O_R   0.493920 0.341410 0.386200 -0.559600
O4    O     O_R   0.506080 0.658590 0.613800 -0.541261
O5    O     O_R   0.384320 0.506520 0.597880 -0.562226
O6    O     O_R   0.615680 0.493480 0.402120 -0.593381
O7    O     O_R   0.373840 0.493460 0.402080 -0.609483
O8    O     O_R   0.626160 0.506540 0.597920 -0.593497
C35   C     C_2   0.045044 0.398890 0.284610 0.388298
H1    H     H_    0.995168 0.368603 0.220480 0.090971
O9    O     O_2   0.118835 0.389446 0.263102 -0.523452
C36   C     C_2   0.954974 0.599797 0.714963 0.376209
H2    H     H_    0.004907 0.630025 0.779031 0.087627
O10   O     O_2   0.881217 0.609321 0.736578 -0.545884
C37   C     C_2   0.931882 0.290656 0.461784 0.383633
H3    H     H_    0.974936 0.229277 0.451419 0.094767
O11   O     O_2   0.855741 0.269012 0.457021 -0.528605
C38   C     C_2   0.067846 0.708059 0.537649 0.384322
H4    H     H_    0.024715 0.769347 0.548220 0.092779
O12   O     O_2   0.143953 0.729846 0.542074 -0.522764
C39   C     C_3   0.938679 0.605997 0.321280 -0.789605
H5    H     H_    0.992591 0.634340 0.275080 0.249249
H6    H     H_    0.895157 0.552531 0.260443 0.254698
H7    H     H_    0.904100 0.672737 0.358564 0.244312
C40   C     C_3   0.061239 0.392640 0.678209 -0.785952
H8    H     H_    0.007346 0.364347 0.724477 0.251763
H9    H     H_    0.095757 0.325864 0.640873 0.252597
H10   H     H_    0.104830 0.446067 0.738994 0.236139
C41   C     C_2   0.483331 0.817853 0.316964 0.473072
H11   H     H_    0.512017 0.750255 0.277835 0.113443
O13   O     O_2   0.431333 0.856092 0.259412 -0.508515
C42   C     C_2   0.430220 0.180829 0.645868 0.468206
H12   H     H_    0.455152 0.239750 0.714992 0.127794
O14   O     O_2   0.355815 0.149442 0.640656 -0.498168
C43   C     C_3   0.426118 0.819243 0.725868 -0.744569
H13   H     H_    0.378042 0.869849 0.763787 0.214776
H14   H     H_    0.388862 0.746795 0.688081 0.237673
H15   H     H_    0.471478 0.803972 0.794707 0.268575
C44   C     C_3   0.612434 0.199789 0.309189 -0.732989
H16   H     H_    0.669120 0.161366 0.278606 0.219778
H17   H     H_    0.571384 0.212059 0.234409 0.261648
H18   H     H_    0.638099 0.275536 0.356619 0.240482
C45   C     C_2   0.613915 0.974776 0.283129 0.431302
H19   H     H_    0.612553 0.997762 0.198591 0.113162
O15   O     O_2   0.658266 0.905732 0.302894 -0.525007
C46   C     C_2   0.501599 0.032366 0.775029 0.368343
H20   H     H_    0.469240 0.004215 0.844242 0.105752
O16   O     O_2   0.552505 0.107267 0.798859 -0.549000
C47   C     C_2   0.369372 0.444717 0.797842 0.410544
H21   H     H_    0.319246 0.491706 0.829855 0.066187
O17   O     O_2   0.351628 0.369577 0.725345 -0.534405
C48   C     C_2   0.619241 0.584846 0.217671 0.464321
H22   H     H_    0.616497 0.641012 0.293581 0.102052
O18   O     O_2   0.688410 0.560076 0.186772 -0.568802
C49   C     C_2   0.637682 0.646994 0.791733 0.420944
H23   H     H_    0.695739 0.614837 0.763518 0.115634
O19   O     O_2   0.626083 0.736745 0.782336 -0.540063
C50   C     C_2   0.371715 0.341604 0.207221 0.556896
H24   H     H_    0.315064 0.368142 0.246057 0.105739
O20   O     O_2   0.387571 0.251308 0.205327 -0.526882
C51   C     C_2   0.365944 0.309655 0.963045 0.431746
H25   H     H_    0.391651 0.261983 0.892243 0.106787
O21   O     O_2   0.293217 0.289986 0.986853 -0.499384
C52   C     C_2   0.631044 0.696780 0.030706 0.440736
H26   H     H_    0.696107 0.712949 0.010521 0.106392
O22   O     O_2   0.597808 0.759816 0.097250 -0.546013

loop_
_geom_bond_atom_site_label_1
_geom_bond_atom_site_label_2
_ccdc_geom_bond_type
C25   C31   T    
C21   C37   S    
C47   H21   S    
C40   H9    S    
C11   C18   A    
C26   C32   T    
C49   H23   S    
C22   C29   S    
C27   C29   S    
C43   H13   S    
Cu1   Cu2   S    
C24   C27   S    
C7    C42   S    
C45   H19   S    
C35   O9    D    
C37   H3    S    
C23   C29   S    
Cu1   N1    S    
C46   O16   D    
C28   C39   S    
C38   H4    S    
C11   C51   S    
Cu1   O4    S    
C20   O6    A    
C51   H25   S    
C50   O20   D    
C12   C17   A    
C3    C45   S    
C16   C47   S    
C36   O10   D    
C42   H12   S    
Cu1   O5    S    
C9    C10   A    
C14   C49   S    
C16   N1    A    
C37   O11   D    
C21   C27   S    
C40   H10   S    
C39   H5    S    
C49   O19   D    
C22   C28   S    
C50   H24   S    
C43   H14   S    
Cu2   O3    S    
C45   O15   D    
C19   O5    A    
C1    C34   S    
C36   H2    S    
C44   H17   S    
C24   C36   S    
C39   H6    S    
C23   C35   S    
C13   C50   S    
C41   H11   S    
Cu2   O2    S    
C46   H20   S    
C4    C6    A    
C22   C38   S    
C44   H16   S    
C41   O13   D    
Cu1   O1    S    
C15   N2    A    
C12   C52   S    
C48   O18   D    
C35   H1    S    
C4    C46   S    
C5    C34   A    
C17   C18   A    
Cu2   O7    S    
C16   C18   A    
C23   C28   S    
C52   O22   D    
C13   N2    A    
C27   C40   S    
C2    C33   S    
C1    O3    A    
C51   O21   D    
C12   C14   A    
C21   C23   S    
C7    C34   A    
C22   C24   S    
Cu2   O6    S    
C5    C44   S    
C6    C43   S    
C44   H18   S    
C7    C9    A    
C39   H7    S    
C3    C5    A    
C19   O7    A    
C15   C17   A    
C21   C30   S    
C6    C33   A    
C47   O17   D    
C28   C30   S    
C29   C31   S    
C3    C10   A    
C15   C48   S    
C30   C32   S    
C11   C13   A    
C48   H22   S    
C20   C26   S    
C2    O4    A    
Cu2   N2    S    
C43   H15   S    
C38   O12   D    
C8    C33   A    
C52   H26   S    
C19   C25   S    
C24   C30   S    
C1    O1    A    
C40   H8    S    
C2    O2    A    
C8    C41   S    
C8    C10   A    
C42   O14   D    
C4    C9    A    
Cu1   O8    S    
C20   O8    A    
C14   N1    A    
