data_mof_unit_20402.cif
_audit_creation_date              2012-12-10T16:54:55-0500
_audit_creation_method            fapswitch 2.2
_symmetry_space_group_name_H-M    P1
_symmetry_Int_Tables_number       1
_space_group_crystal_system       triclinic
_cell_length_a                    7.81113
_cell_length_b                    8.568358
_cell_length_c                    15.705073
_cell_angle_alpha                 91.296118
_cell_angle_beta                  85.428234
_cell_angle_gamma                 93.663603
_cell_volume                      1045.47001076

loop_
_atom_site_label
_atom_site_type_symbol
_atom_type_description
_atom_site_fract_x
_atom_site_fract_y
_atom_site_fract_z
_atom_type_partial_charge
C1    C     C_R   0.545627 0.794554 0.497798 0.947576
C2    C     C_3   0.333301 0.561558 0.055252 -0.511087
C3    C     C_3   0.497565 0.491256 0.082822 0.297613
C4    C     C_3   0.502739 0.319227 0.048912 0.392422
C5    C     C_3   0.506773 0.317573 0.949912 -0.450540
C6    C     C_1   0.495383 0.495920 0.174395 -0.086616
C7    C     C_1   0.502582 0.486675 0.825798 -0.097098
C8    C     C_1   0.502693 0.491182 0.750412 -0.209340
C9    C     C_2   0.569526 0.958120 0.496388 -0.381086
C10   C     C_2   0.430398 0.041802 0.503236 -0.395935
C11   C     C_R   0.501013 0.498211 0.661562 0.888277
C12   C     C_R   0.454351 0.205414 0.502046 0.956854
C13   C     C_R   0.498693 0.500180 0.338520 0.894692
C14   C     C_3   0.334869 0.557438 0.957079 -0.416462
C15   C     C_3   0.659526 0.585640 0.945924 -0.408591
C16   C     C_3   0.656873 0.589923 0.044146 -0.375599
C17   C     C_1   0.495663 0.498671 0.249759 -0.180812
C18   C     C_3   0.500969 0.486411 0.917449 0.313595
H1    H     H_    0.326521 0.684562 0.078970 0.188983
H2    H     H_    0.219962 0.485846 0.937791 0.178734
H3    H     H_    0.216252 0.494367 0.083185 0.179147
H4    H     H_    0.700945 0.009120 0.489736 0.186602
H5    H     H_    0.298972 0.990776 0.509852 0.181155
H6    H     H_    0.010502 0.371337 0.442326 0.143275
H7    H     H_    0.326794 0.678253 0.933700 0.185792
H8    H     H_    0.779449 0.534092 0.918716 0.178307
H9    H     H_    0.660301 0.707018 0.921931 0.170044
H10   H     H_    0.652899 0.713288 0.067629 0.157642
H11   H     H_    0.777513 0.544375 0.064185 0.202606
H12   H     H_    0.394733 0.243614 0.929110 0.129212
H13   H     H_    0.625026 0.264405 0.921371 0.189661
H14   H     H_    0.380593 0.255581 0.074561 0.043662
N1    N     N_2   0.950340 0.457950 0.477370 -0.084079
N2    N     N_2   0.049660 0.542050 0.522630 0.103290
O1    O     O_R   0.389240 0.738570 0.505550 -0.641139
O2    O     O_R   0.678400 0.711630 0.491050 -0.557514
O3    O     O_R   0.355360 0.513470 0.630110 -0.645473
O4    O     O_R   0.644510 0.486530 0.615610 -0.591426
O5    O     O_R   0.321600 0.288370 0.508950 -0.647701
O6    O     O_R   0.610760 0.261430 0.494450 -0.621647
O7    O     O_R   0.355490 0.513470 0.384390 -0.626588
O8    O     O_R   0.644640 0.486530 0.369890 -0.615780
Zn1   Zn    Zn3+2 0.306930 0.517990 0.509680 0.950317
Zn2   Zn    Zn3+2 0.693070 0.482010 0.490320 0.996966
O9    O     O_3   0.652032 0.252317 0.074741 -0.645936
C19   C     C_3   0.617143 0.095291 0.100267 0.058141
H15   H     H_    0.738174 0.034256 0.087937 0.164693
H16   H     H_    0.519887 0.030585 0.062223 0.114824
C20   C     C_3   0.562459 0.089268 0.196213 -0.347367
H17   H     H_    0.661618 0.154891 0.232238 0.238863
H18   H     H_    0.438692 0.145479 0.209709 0.207502
C21   C     C_3   0.540398 0.921406 0.227562 -0.953869
H19   H     H_    0.438491 0.854782 0.194052 0.260105
H20   H     H_    0.502102 0.921633 0.297197 0.271702
H21   H     H_    0.663110 0.862717 0.216179 0.262044
O10   O     O_3   0.966963 0.662085 0.560594 -0.525032
C22   C     C_3   0.049714 0.718946 0.632357 0.176780
H22   H     H_    0.007273 0.838757 0.646503 0.113611
H23   H     H_    0.190002 0.733342 0.620951 0.181812
C23   C     C_3   0.996110 0.618902 0.710667 -0.332275
H24   H     H_    0.854284 0.615633 0.723622 0.228355
H25   H     H_    0.034640 0.497323 0.698625 0.234497
C24   C     C_3   0.078408 0.686926 0.789336 -1.019632
H26   H     H_    0.220603 0.698056 0.777550 0.277000
H27   H     H_    0.044369 0.608582 0.844020 0.260981
H28   H     H_    0.030646 0.803930 0.806116 0.261290

loop_
_geom_bond_atom_site_label_1
_geom_bond_atom_site_label_2
_ccdc_geom_bond_type
O3    Zn1   S    
C15   C18   S    
C24   H27   S    
C20   H18   S    
O4    Zn2   S    
C10   H5    S    
C11   O4    A    
O1    Zn1   S    
C9    C10   D    
C14   C18   S    
C15   H9    S    
H6    N1    S    
C21   H21   S    
C13   C17   S    
C7    C18   S    
C20   C21   S    
C12   O5    A    
C13   O7    A    
C2    C3    S    
C2    H1    S    
C24   H28   S    
C7    C8    T    
O9    C19   S    
C21   H19   S    
N2    O10   S    
O7    Zn1   S    
C19   C20   S    
C22   H22   S    
C4    H14   S    
O8    Zn2   S    
C2    H3    S    
C23   C24   S    
C10   C12   S    
C13   O8    A    
C21   H20   S    
N1    N2    D    
C4    O9    S    
C8    C11   S    
C14   H7    S    
C2    C14   S    
C19   H16   S    
C9    H4    S    
C22   H23   S    
O2    Zn2   S    
N2    Zn1   S    
C15   C16   S    
C14   H2    S    
O6    Zn2   S    
C1    C9    S    
O10   C22   S    
C1    O1    A    
C23   H25   S    
C20   H17   S    
C5    H12   S    
C3    C6    S    
C11   O3    A    
C6    C17   T    
C16   H10   S    
C23   H24   S    
C22   C23   S    
O5    Zn1   S    
C5    C18   S    
C5    H13   S    
C16   H11   S    
C19   H15   S    
N1    Zn2   S    
C3    C16   S    
C24   H26   S    
C1    O2    A    
C4    C5    S    
C15   H8    S    
C3    C4    S    
C12   O6    A    
