data_mof_unit_14369.cif
_audit_creation_date              2012-10-26T21:21:07-0400
_audit_creation_method            fapswitch 2.2
_symmetry_space_group_name_H-M    P1
_symmetry_Int_Tables_number       1
_space_group_crystal_system       triclinic
_cell_length_a                    10.826774
_cell_length_b                    10.929372
_cell_length_c                    9.722317
_cell_angle_alpha                 90.117585
_cell_angle_beta                  89.984939
_cell_angle_gamma                 91.087382
_cell_volume                      1150.23059358

loop_
_atom_site_label
_atom_site_type_symbol
_atom_type_description
_atom_site_fract_x
_atom_site_fract_y
_atom_site_fract_z
_atom_type_partial_charge
C1    C     C_R   0.498188 0.265363 0.499361 0.548874
C2    C     C_2   0.487018 0.133184 0.497681 -0.029044
C3    C     C_2   0.417690 0.438399 0.921054 0.489699
C4    C     C_R   0.262884 0.511400 0.500823 0.568524
C5    C     C_2   0.433295 0.424001 0.077340 0.134127
C6    C     C_R   0.505901 0.734353 0.500401 0.548602
C7    C     C_R   0.737686 0.491930 0.500516 0.522141
C8    C     C_R   0.110944 0.569419 0.757086 0.259120
C9    C     C_R   0.052834 0.534284 0.880860 -0.066448
C10   C     C_R   0.947386 0.459116 0.879520 0.228839
C11   C     C_R   0.888483 0.436318 0.752706 -0.135371
C12   C     C_R   0.061882 0.526099 0.630117 0.049513
C13   C     C_R   0.939343 0.481820 0.628643 -0.069384
C14   C     C_3   0.276609 0.276111 0.901951 -0.042694
C15   C     C_3   0.196896 0.213802 0.792554 -0.353139
C16   C     C_3   0.641168 0.649605 0.124039 0.085879
C17   C     C_3   0.670503 0.764310 0.040532 -0.403380
C18   C     C_3   0.858009 0.299050 0.002569 -0.017744
C19   C     C_3   0.844423 0.253271 0.149565 -0.357143
C20   C     C_3   0.705169 0.896004 0.624500 -0.004897
C21   C     C_3   0.765873 0.979209 0.731563 -0.380091
C22   C     C_R   0.128481 0.524701 0.503993 0.018797
C23   C     C_R   0.064050 0.515941 0.379336 -0.171271
C24   C     C_R   0.936788 0.503962 0.379183 -0.169092
C25   C     C_R   0.872761 0.486292 0.502947 -0.009310
C26   C     C_2   0.498170 0.932054 0.391311 -0.153812
C27   C     C_2   0.527043 0.865868 0.502547 0.220021
C28   C     C_2   0.514873 0.065669 0.386235 0.215735
Cu1   Cu    Cu3+1 0.500020 0.500020 0.638630 1.047683
Cu2   Cu    Cu3+1 0.499980 0.499980 0.361370 0.979995
H1    H     H_    0.111793 0.518932 0.281406 0.148179
H2    H     H_    0.250586 0.203502 0.696022 0.156476
H3    H     H_    0.166281 0.121851 0.828796 0.098775
H4    H     H_    0.114230 0.269096 0.771034 0.149720
H5    H     H_    0.662571 0.553038 0.843624 0.353600
H6    H     H_    0.708533 0.577661 0.097891 0.190859
H7    H     H_    0.657652 0.674395 0.232032 0.164389
H8    H     H_    0.612137 0.840586 0.076219 0.138536
H9    H     H_    0.769181 0.791261 0.054069 0.084817
H10   H     H_    0.652286 0.748442 0.929649 0.173897
H11   H     H_    0.229385 0.674704 0.854157 0.323792
H12   H     H_    0.450179 0.091006 0.590320 0.116397
H13   H     H_    0.926022 0.240138 0.948912 0.112348
H14   H     H_    0.766130 0.289360 0.952310 0.167342
H15   H     H_    0.773409 0.306742 0.204650 0.202005
H16   H     H_    0.815308 0.155273 0.148975 0.111321
H17   H     H_    0.934031 0.262918 0.204607 0.147666
H18   H     H_    0.751325 0.914296 0.523744 0.120522
H19   H     H_    0.719999 0.799181 0.654654 0.141898
H20   H     H_    0.722174 0.964300 0.833633 0.154594
H21   H     H_    0.865807 0.959140 0.739183 0.097887
H22   H     H_    0.755375 0.076546 0.701692 0.150690
H23   H     H_    0.388122 0.347571 0.128736 0.062581
H24   H     H_    0.572440 0.056372 0.197340 0.306487
H25   H     H_    0.091094 0.563299 0.978848 0.111933
H26   H     H_    0.804583 0.381676 0.751249 0.159533
H27   H     H_    0.888886 0.506702 0.281539 0.167789
H28   H     H_    0.465124 0.886995 0.298204 0.111775
H29   H     H_    0.220417 0.284380 0.997168 0.123352
H30   H     H_    0.357703 0.216986 0.921057 0.123772
N1    N     N_2   0.498640 0.498660 0.846910 -0.026042
N2    N     N_2   0.498610 0.498630 0.153040 -0.051223
O1    O     O_R   0.500020 0.321960 0.617040 -0.505794
O2    O     O_3   0.613567 0.492823 0.896955 -0.647844
O3    O     O_3   0.517498 0.611089 0.097655 -0.455535
O4    O     O_3   0.207413 0.654107 0.757707 -0.667014
O5    O     O_3   0.897022 0.423269 0.004939 -0.576019
O6    O     O_3   0.577598 0.920326 0.619259 -0.573752
O7    O     O_3   0.555146 0.121050 0.266015 -0.703709
O8    O     O_R   0.499980 0.321920 0.382900 -0.453611
O9    O     O_R   0.319670 0.500020 0.617100 -0.403607
O10   O     O_R   0.319630 0.499980 0.382950 -0.532365
O11   O     O_R   0.500020 0.678080 0.617100 -0.464639
O12   O     O_R   0.499980 0.678040 0.382960 -0.531262
O13   O     O_R   0.680370 0.500020 0.617050 -0.535750
O14   O     O_R   0.680330 0.499980 0.382900 -0.541704
O15   O     O_3   0.312458 0.393534 0.854866 -0.557790

loop_
_geom_bond_atom_site_label_1
_geom_bond_atom_site_label_2
_ccdc_geom_bond_type
C8    C9    A    
N1    O2    S    
Cu2   O10   S    
C23   C24   A    
Cu1   O1    S    
C24   C25   A    
C8    O4    S    
Cu1   Cu2   S    
Cu1   O13   S    
C18   H14   S    
C7    O14   A    
C14   H30   S    
C9    C10   A    
C15   H4    S    
C26   C28   S    
C28   O7    S    
C7    C25   S    
C6    C27   S    
C4    O10   A    
C16   H7    S    
C8    C12   A    
C21   H22   S    
C3    N1    D    
C4    C22   S    
C19   H16   S    
C15   H2    S    
C20   H18   S    
C18   H13   S    
C12   C13   A    
H5    O2    S    
C14   H29   S    
C11   C13   A    
C22   C23   A    
C13   C25   A    
C26   C27   D    
C20   H19   S    
H24   O7    S    
C2    H12   S    
C9    H25   S    
C1    O1    A    
C5    H23   S    
C21   H20   S    
Cu2   O8    S    
C15   H3    S    
C5    N2    D    
C6    O12   A    
Cu1   N1    S    
C17   H8    S    
Cu2   N2    S    
Cu2   O12   S    
C19   H17   S    
Cu1   O11   S    
C10   C11   A    
C11   H26   S    
H11   O4    S    
C3    O15   S    
C12   C22   A    
C21   H21   S    
Cu2   O14   S    
C20   C21   S    
C6    O11   A    
C1    C2    S    
C17   H9    S    
C14   O15   S    
C26   H28   S    
N2    O3    S    
C2    C28   D    
C14   C15   S    
C18   C19   S    
C7    O13   A    
C16   O3    S    
C27   O6    S    
Cu1   O9    S    
C18   O5    S    
C10   O5    S    
C20   O6    S    
C4    O9    A    
C16   H6    S    
C19   H15   S    
C1    O8    A    
C16   C17   S    
C24   H27   S    
C3    C5    S    
C17   H10   S    
C23   H1    S    
