data_mof_unit_15804.cif
_audit_creation_date              2012-12-11T16:14:58-0500
_audit_creation_method            fapswitch 2.2
_symmetry_space_group_name_H-M    P1
_symmetry_Int_Tables_number       1
_space_group_crystal_system       triclinic
_cell_length_a                    13.530795
_cell_length_b                    13.516008
_cell_length_c                    28.425791
_cell_angle_alpha                 90.219848
_cell_angle_beta                  90.216085
_cell_angle_gamma                 60.378323
_cell_volume                      4519.11900526

loop_
_atom_site_label
_atom_site_type_symbol
_atom_type_description
_atom_site_fract_x
_atom_site_fract_y
_atom_site_fract_z
_atom_type_partial_charge
C1    C     C_R   0.278791 0.620772 0.566336 0.545200
C2    C     C_1   0.639984 0.634447 0.612007 -0.011493
C3    C     C_3   0.705272 0.749084 0.757882 -0.106803
C4    C     C_3   0.672386 0.686094 0.794064 0.044696
C5    C     C_3   0.769824 0.637173 0.729356 -0.102415
C6    C     C_3   0.659495 0.668872 0.702620 0.053209
C7    C     C_3   0.737225 0.574493 0.766337 -0.100924
C8    C     C_3   0.626710 0.605953 0.738860 -0.089563
C9    C     C_1   0.683793 0.694813 0.844631 -0.066825
C10   C     C_1   0.650656 0.654103 0.652318 -0.053865
C11   C     C_1   0.633490 0.229153 0.611487 -0.008366
C12   C     C_R   0.621975 0.601064 0.566626 0.544052
C13   C     C_R   0.762843 0.165901 0.724846 -0.086461
C14   C     C_R   0.771182 0.153805 0.773690 0.368009
C15   C     C_R   0.585637 0.164772 0.775857 -0.043704
C16   C     C_R   0.578628 0.176824 0.726794 -0.123088
C17   C     C_R   0.666871 0.176969 0.701422 -0.035837
C18   C     C_R   0.682899 0.153679 0.799387 0.049129
C19   C     C_1   0.696806 0.131765 0.849095 0.000424
C20   C     C_1   0.652749 0.200032 0.651933 -0.055560
C21   C     C_1   0.707332 0.103915 0.889691 -0.003583
C22   C     C_1   0.217480 0.642521 0.609624 -0.013897
C23   C     C_R   0.600755 0.278825 0.565854 0.543940
C24   C     C_R   0.149370 0.583554 0.722672 -0.100213
C25   C     C_R   0.120553 0.597940 0.770647 0.017159
C26   C     C_R   0.050603 0.801459 0.762344 -0.121829
C27   C     C_R   0.079200 0.785992 0.714729 -0.113725
C28   C     C_R   0.130105 0.676933 0.694990 0.021093
C29   C     C_R   0.072946 0.708021 0.790671 0.036354
C30   C     C_1   0.050389 0.726322 0.840374 -0.061869
C31   C     C_1   0.173764 0.659015 0.647820 -0.058567
C32   C     C_1   0.031092 0.741532 0.881881 -0.012495
C33   C     C_1   0.634877 0.632794 0.387925 -0.014328
C34   C     C_R   0.276338 0.621173 0.434471 0.544954
C35   C     C_R   0.737198 0.580302 0.272506 -0.119188
C36   C     C_R   0.742955 0.585812 0.223836 -0.115309
C37   C     C_R   0.565595 0.764863 0.223712 -0.079245
C38   C     C_R   0.557990 0.760632 0.273151 0.024078
C39   C     C_R   0.646455 0.667096 0.297335 0.039346
C40   C     C_R   0.657411 0.677881 0.199432 0.025006
C41   C     C_1   0.671039 0.688802 0.150077 -0.060400
C42   C     C_1   0.641579 0.652273 0.347193 -0.068161
C43   C     C_1   0.690581 0.700012 0.109851 -0.012262
C44   C     C_1   0.633856 0.225566 0.389052 -0.008406
C45   C     C_R   0.620138 0.600475 0.433996 0.545777
C46   C     C_R   0.568126 0.230898 0.271164 -0.111189
C47   C     C_R   0.578422 0.220007 0.222612 -0.118593
C48   C     C_R   0.784369 0.100764 0.230640 0.015213
C49   C     C_R   0.772558 0.112654 0.279613 -0.097604
C50   C     C_R   0.664892 0.176670 0.299515 0.023456
C51   C     C_R   0.685570 0.155336 0.202239 0.045553
C52   C     C_1   0.690662 0.134344 0.152890 -0.066537
C53   C     C_1   0.652632 0.196591 0.348822 -0.058506
C54   C     C_1   0.698100 0.106067 0.112605 -0.017036
C55   C     C_1   0.224142 0.638725 0.389707 0.007062
C56   C     C_R   0.600478 0.276883 0.433941 0.546748
C57   C     C_R   0.198630 0.725729 0.273811 0.370932
C58   C     C_R   0.191005 0.726744 0.225166 -0.085958
C59   C     C_R   0.131017 0.584810 0.228447 -0.110908
C60   C     C_R   0.139443 0.581465 0.277883 -0.041044
C61   C     C_R   0.172938 0.654018 0.300163 0.043409
C62   C     C_R   0.157283 0.656639 0.202627 -0.036397
C63   C     C_1   0.134627 0.670401 0.153492 -0.063752
C64   C     C_1   0.194216 0.647777 0.349595 -0.008362
C65   C     C_1   0.104768 0.691247 0.113414 -0.013874
C66   C     C_R   0.720695 0.055641 0.935377 0.532433
C67   C     C_3   0.594615 0.780535 0.730245 -0.103709
C68   C     C_R   0.731016 0.718074 0.931986 0.537767
C69   C     C_R   0.003774 0.761072 0.930863 0.562429
C70   C     C_R   0.714804 0.056106 0.067411 0.549439
C71   C     C_R   0.725439 0.716925 0.064692 0.548399
C72   C     C_R   0.054067 0.727345 0.068537 0.556602
C73   C     C_3   0.562036 0.717857 0.767340 -0.098602
C74   C     C_1   0.700461 0.703532 0.885517 -0.019261
Cr1   Cr    Cr6+3 0.413560 0.417690 0.499580 1.026970
Cr2   Cr    Cr6+3 0.418030 0.668340 0.500400 1.038174
Cr3   Cr    Cr6+3 0.668390 0.413960 0.499990 1.032679
Cr4   Cr    Cr6+3 0.919710 0.916540 0.003080 1.032444
Cr5   Cr    Cr6+3 0.665300 0.919470 0.999630 1.019159
Cr6   Cr    Cr6+3 0.916060 0.665490 0.000390 1.024322
H1    H     H_    0.477007 0.750855 0.783634 0.113057
H2    H     H_    0.504059 0.186590 0.708318 0.121404
H3    H     H_    0.189132 0.499269 0.707084 0.105189
H4    H     H_    0.013573 0.886141 0.777383 0.164066
H5    H     H_    0.064840 0.858585 0.693665 0.123908
H6    H     H_    0.803470 0.507580 0.290901 0.113344
H7    H     H_    0.815018 0.518958 0.205281 0.107786
H8    H     H_    0.501973 0.835604 0.203600 0.102196
H9    H     H_    0.484700 0.282011 0.286632 0.116361
H10   H     H_    0.536359 0.864553 0.714334 0.104848
H11   H     H_    0.502545 0.260423 0.200951 0.114787
H12   H     H_    0.846901 0.073163 0.302190 0.114945
H13   H     H_    0.209726 0.783437 0.205095 0.121419
H14   H     H_    0.102914 0.533554 0.209534 0.121290
H15   H     H_    0.594485 0.546716 0.730302 0.117600
H16   H     H_    0.795348 0.489885 0.781833 0.125055
H17   H     H_    0.854656 0.604787 0.712953 0.110671
H18   H     H_    0.737816 0.808015 0.766543 0.109462
H19   H     H_    0.830648 0.167657 0.705375 0.134903
O1    O     O_R   0.503010 0.303330 0.550820 -0.508323
O2    O     O_R   0.522480 0.657560 0.452870 -0.492758
O3    O     O_R   0.693670 0.502790 0.448900 -0.507806
O4    O     O_R   0.656970 0.319650 0.452000 -0.493792
O5    O     O_3   0.499990 0.499990 0.499990 -0.250434
O6    O     O_R   0.035380 0.825870 0.952240 -0.494559
O7    O     O_R   0.818010 0.012400 0.954990 -0.500930
O8    O     O_R   0.644810 0.033340 0.949080 -0.516216
O9    O     O_R   0.674910 0.816000 0.950960 -0.498835
O10   O     O_R   0.827060 0.642880 0.947470 -0.515255
O11   O     O_R   0.013800 0.673690 0.954100 -0.497552
O12   O     O_R   0.320040 0.522690 0.547470 -0.496230
O13   O     O_R   0.031250 0.825430 0.055080 -0.509728
O14   O     O_R   0.814180 0.011990 0.050320 -0.497120
O15   O     O_R   0.640680 0.032900 0.051920 -0.504265
O16   O     O_R   0.671090 0.815590 0.046300 -0.491062
O17   O     O_R   0.822940 0.642440 0.050310 -0.505786
O18   O     O_R   0.009970 0.673280 0.049430 -0.489031
O19   O     O_3   0.833690 0.833830 0.001040 -0.273185
O20   O     O_R   0.303930 0.694040 0.551750 -0.506446
O21   O     O_R   0.523510 0.657900 0.548240 -0.495698
O22   O     O_R   0.694770 0.503160 0.551780 -0.506752
O23   O     O_R   0.657990 0.319990 0.547370 -0.494436
O24   O     O_R   0.501900 0.302960 0.447930 -0.510502
O25   O     O_R   0.319020 0.522350 0.452090 -0.503632
O26   O     O_R   0.302820 0.693680 0.448870 -0.495038
C75   C     C_3   0.143390 0.495278 0.799806 -0.256536
C76   C     C_3   0.033100 0.492368 0.808640 -0.296139
C77   C     C_3   0.053868 0.393429 0.840558 -0.430185
H20   H     H_    0.116668 0.311228 0.824352 0.155174
H21   H     H_    0.086059 0.402587 0.875382 0.162882
H22   H     H_    0.972842 0.392933 0.845857 0.165313
H23   H     H_    0.968459 0.573042 0.825331 0.177823
H24   H     H_    0.998523 0.482621 0.774510 0.158976
H25   H     H_    0.204639 0.415489 0.781437 0.126226
H26   H     H_    0.183791 0.496906 0.833712 0.154017
C78   C     C_3   0.458612 0.852704 0.300885 -0.235783
C79   C     C_3   0.364754 0.948415 0.271386 -0.288620
C80   C     C_3   0.268518 0.034330 0.302426 -0.429526
H27   H     H_    0.229891 0.991876 0.322621 0.214017
H28   H     H_    0.300920 0.075305 0.327308 0.142829
H29   H     H_    0.201743 0.101191 0.279988 0.136110
H30   H     H_    0.400687 0.994256 0.251696 0.148972
H31   H     H_    0.328780 0.911703 0.246020 0.191875
H32   H     H_    0.419426 0.811294 0.321513 0.210326
H33   H     H_    0.492773 0.891297 0.326202 0.138059
C81   C     C_3   0.901914 0.029383 0.209882 -0.253032
C82   C     C_3   0.944315 0.105057 0.187945 -0.291785
C83   C     C_3   0.066637 0.034457 0.170857 -0.451338
H34   H     H_    0.124383 0.992424 0.201123 0.158715
H35   H     H_    0.073980 0.968830 0.145260 0.170300
H36   H     H_    0.093229 0.090811 0.153341 0.143559
H37   H     H_    0.889432 0.152763 0.157663 0.174217
H38   H     H_    0.940409 0.167596 0.214469 0.161835
H39   H     H_    0.962915 0.975946 0.237704 0.154676
H40   H     H_    0.900710 0.969811 0.183104 0.154870
F1    F     F_    0.232295 0.794020 0.295333 -0.677295
C84   C     C_3   0.114232 0.503022 0.307672 -0.250967
C85   C     C_3   0.076400 0.428864 0.280491 -0.308674
C86   C     C_3   0.052770 0.354916 0.313931 -0.455465
H41   H     H_    0.131247 0.295983 0.333479 0.155614
H42   H     H_    0.985361 0.408879 0.339463 0.158869
H43   H     H_    0.023602 0.303902 0.293482 0.138140
H44   H     H_    0.997418 0.484075 0.260419 0.160856
H45   H     H_    0.144287 0.372144 0.255614 0.158848
H46   H     H_    0.192134 0.445901 0.328053 0.148778
H47   H     H_    0.046246 0.556503 0.333156 0.150360
F2    F     F_    0.865707 0.141350 0.795874 -0.650449
C87   C     C_3   0.489918 0.161720 0.802033 -0.258521
C88   C     C_3   0.518439 0.038527 0.810802 -0.290553
C89   C     C_3   0.424479 0.033591 0.838338 -0.435086
H48   H     H_    0.413923 0.074373 0.873355 0.166036
H49   H     H_    0.342812 0.077679 0.818719 0.150578
H50   H     H_    0.447309 0.943354 0.843559 0.153256
H51   H     H_    0.529100 0.995036 0.776483 0.160236
H52   H     H_    0.599362 0.991914 0.830797 0.172897
H53   H     H_    0.473602 0.208652 0.835891 0.149976
H54   H     H_    0.409788 0.205966 0.781281 0.131908

loop_
_geom_bond_atom_site_label_1
_geom_bond_atom_site_label_2
_ccdc_geom_bond_type
C58   C62   A    
C15   C18   A    
C59   C60   A    
C79   H30   S    
C63   C65   T    
Cr2   O5    S    
C84   C85   S    
Cr5   O16   S    
C21   C66   S    
C33   C45   S    
C88   C89   S    
C14   C18   A    
C37   H8    S    
C35   C36   A    
C83   H36   S    
C66   O8    A    
C2    C12   S    
C77   H20   S    
C72   O13   A    
Cr4   O13   S    
C7    C8    S    
C46   H9    S    
C70   O15   A    
C7    H16   S    
C26   C27   A    
Cr2   O21   S    
C75   C76   S    
Cr4   O6    S    
Cr1   O24   S    
C33   C42   T    
C19   C21   T    
C37   C38   A    
C83   H35   S    
C37   C40   A    
C5    C6    S    
C35   H6    S    
C89   H48   S    
C68   C74   S    
C87   H54   S    
Cr5   O19   S    
C17   C20   S    
C18   C19   S    
C1    O20   A    
C27   H5    S    
C76   H23   S    
C8    C73   S    
Cr3   O23   S    
C12   O21   A    
C44   C53   T    
C48   C51   A    
C12   O22   A    
C82   C83   S    
C16   C17   A    
C48   C81   S    
Cr6   O10   S    
C71   O17   A    
C43   C71   S    
C88   H51   S    
C86   H42   S    
C67   C73   S    
C59   H14   S    
C38   C78   S    
C23   O23   A    
C78   H33   S    
C85   H45   S    
C68   O10   A    
C23   O1    A    
C79   H31   S    
C1    C22   S    
C70   O14   A    
C13   C14   A    
Cr2   O26   S    
C41   C43   T    
Cr3   O3    S    
C8    H15   S    
C66   O7    A    
C4    C7    S    
C72   O18   A    
C73   H1    S    
C52   C54   T    
C39   C42   S    
C36   H7    S    
C25   C29   A    
C57   F1    S    
Cr6   O19   S    
C11   C20   T    
C50   C53   S    
C22   C31   T    
C81   H40   S    
C71   O16   A    
C51   C52   S    
Cr2   O20   S    
C56   O24   A    
Cr6   O17   S    
C36   C40   A    
C24   C25   A    
C76   H24   S    
C80   H27   S    
C84   H46   S    
C5    C7    S    
C69   O6    A    
C47   C51   A    
C67   H10   S    
Cr1   O25   S    
C60   C61   A    
C85   C86   S    
C13   H19   S    
C61   C64   S    
C35   C39   A    
C25   C75   S    
C29   C30   S    
C69   O11   A    
C44   C56   S    
C86   H41   S    
C54   C70   S    
C55   C64   T    
C62   C63   S    
C16   H2    S    
C88   H52   S    
C86   H43   S    
Cr5   O8    S    
C46   C47   A    
C60   C84   S    
C4    C73   S    
C45   O2    A    
C85   H44   S    
C87   C88   S    
C5    H17   S    
C75   H26   S    
Cr1   O5    S    
C81   H39   S    
C15   C87   S    
Cr3   O4    S    
Cr4   O14   S    
C9    C74   T    
C49   H12   S    
C3    C4    S    
C2    C10   T    
C77   H22   S    
C34   O25   A    
C81   C82   S    
Cr2   O2    S    
C87   H53   S    
Cr6   O18   S    
C40   C41   S    
C59   C62   A    
C26   H4    S    
Cr4   O19   S    
C47   H11   S    
C24   H3    S    
C28   C31   S    
C3    C67   S    
C24   C28   A    
C56   O4    A    
C78   C79   S    
C3    C5    S    
C80   H29   S    
C77   H21   S    
C84   H47   S    
C6    C10   S    
C6    C8    S    
C57   C61   A    
C32   C69   S    
C80   H28   S    
C65   C72   S    
C79   C80   S    
C46   C50   A    
Cr1   O12   S    
C13   C17   A    
Cr4   O7    S    
C82   H37   S    
C14   F2    S    
C78   H32   S    
C6    C67   S    
C1    O12   A    
C30   C32   T    
C3    H18   S    
C57   C58   A    
C38   C39   A    
C89   H49   S    
C34   O26   A    
C48   C49   A    
C15   C16   A    
C11   C23   S    
Cr1   O1    S    
Cr5   O9    S    
C83   H34   S    
C82   H38   S    
Cr3   O22   S    
C45   O3    A    
C34   C55   S    
C75   H25   S    
C26   C29   A    
C49   C50   A    
Cr5   O15   S    
Cr6   O11   S    
C27   C28   A    
Cr3   O5    S    
C58   H13   S    
C68   O9    A    
C4    C9    S    
C76   C77   S    
C89   H50   S    
