data_mof_unit_54247.cif
_audit_creation_date              2012-12-10T18:23:09-0500
_audit_creation_method            fapswitch 2.2
_symmetry_space_group_name_H-M    P1
_symmetry_Int_Tables_number       1
_space_group_crystal_system       triclinic
_cell_length_a                    14.908767
_cell_length_b                    14.047611
_cell_length_c                    10.479731
_cell_angle_alpha                 89.240478
_cell_angle_beta                  90.37269
_cell_angle_gamma                 90.020844
_cell_volume                      2194.55753379

loop_
_atom_site_label
_atom_site_type_symbol
_atom_type_description
_atom_site_fract_x
_atom_site_fract_y
_atom_site_fract_z
_atom_type_partial_charge
C1    C     C_R   0.326999 0.499849 0.497409 0.962205
C2    C     C_R   0.949543 0.445135 0.278510 -0.192167
C3    C     C_R   0.534967 0.798814 0.399141 -0.010321
C4    C     C_R   0.467442 0.201268 0.602510 -0.040383
C5    C     C_R   0.465018 0.796802 0.600799 0.000469
C6    C     C_R   0.532971 0.203281 0.397823 -0.024835
C7    C     C_R   0.466798 0.897629 0.606667 -0.000905
C8    C     C_R   0.535917 0.102462 0.395187 -0.005472
C9    C     C_R   0.533602 0.899801 0.393591 0.001342
C10   C     C_R   0.464710 0.100337 0.605352 0.007659
C11   C     C_R   0.500195 0.949510 0.500147 0.026392
C12   C     C_R   0.673010 0.499869 0.501569 0.955772
C13   C     C_R   0.500270 0.050612 0.500231 0.024403
C14   C     C_R   0.434081 0.947363 0.714132 -0.078987
C15   C     C_R   0.570694 0.052786 0.289104 -0.063947
C16   C     C_R   0.566893 0.951795 0.286572 -0.079174
C17   C     C_R   0.430159 0.048439 0.711585 -0.060879
C18   C     C_R   0.498811 0.500587 0.257221 0.891857
C19   C     C_R   0.499611 0.499425 0.742792 0.875660
C20   C     C_3   0.492909 0.590925 0.037918 -0.084924
C21   C     C_3   0.504042 0.409016 0.962185 -0.136583
C22   C     C_3   0.569666 0.549673 0.957690 -0.153889
C23   C     C_R   0.953214 0.504270 0.496292 0.022434
C24   C     C_3   0.427269 0.450388 0.042439 -0.158363
C25   C     C_3   0.422347 0.539680 0.955209 -0.164595
C26   C     C_3   0.574635 0.460372 0.044782 -0.206617
C27   C     C_3   0.499104 0.498441 0.877735 0.008185
C28   C     C_3   0.497937 0.501563 0.122307 -0.006692
C29   C     C_R   0.811988 0.474251 0.391016 -0.339198
C30   C     C_R   0.187423 0.539973 0.596627 -0.342744
C31   C     C_R   0.768356 0.499427 0.502469 -0.160949
C32   C     C_R   0.231648 0.499435 0.494507 -0.140762
C33   C     C_R   0.815029 0.522562 0.614124 0.435457
C34   C     C_R   0.046746 0.504141 0.493758 0.028798
C35   C     C_R   0.185814 0.458641 0.391552 0.415504
C36   C     C_R   0.908230 0.533081 0.607848 -0.001494
C37   C     C_R   0.092023 0.467626 0.386505 -0.004072
C38   C     C_3   0.784890 0.458823 0.813088 0.015232
C39   C     C_3   0.729049 0.370712 0.779790 -0.368317
C40   C     C_3   0.743272 0.290338 0.877211 -0.896964
C41   C     C_3   0.216736 0.319949 0.281884 0.047704
C42   C     C_3   0.301630 0.262048 0.310663 -0.297853
C43   C     C_3   0.291061 0.158721 0.269831 -0.957883
C44   C     C_2   0.402429 0.895239 0.830139 0.347713
C45   C     C_R   0.904724 0.473963 0.388143 0.138985
C46   C     C_2   0.609217 0.105012 0.177595 0.321989
C47   C     C_2   0.599672 0.902178 0.171215 0.345918
C48   C     C_2   0.391794 0.098385 0.823196 0.310048
C49   C     C_R   0.094906 0.539712 0.599217 0.139199
C50   C     C_R   0.957139 0.571017 0.710126 -0.207286
C51   C     C_R   0.042647 0.441750 0.277673 -0.210072
C52   C     C_R   0.050030 0.574833 0.705386 -0.199965
H1    H     H_    0.360509 0.571756 0.913580 0.142231
H2    H     H_    0.075408 0.419224 0.191425 0.167568
H3    H     H_    0.086853 0.603454 0.785746 0.149049
H4    H     H_    0.912566 0.423868 0.194146 0.144859
H5    H     H_    0.564317 0.757593 0.324050 0.178573
H6    H     H_    0.444429 0.242529 0.681848 0.188610
H7    H     H_    0.435215 0.754127 0.675537 0.180719
H8    H     H_    0.555971 0.246013 0.318406 0.191015
H9    H     H_    0.765756 0.482468 0.909869 0.166338
H10   H     H_    0.857009 0.438834 0.819649 0.146102
H11   H     H_    0.657167 0.389969 0.777476 0.244036
H12   H     H_    0.636343 0.428974 0.087534 0.142062
H13   H     H_    0.748223 0.344425 0.684300 0.232363
H14   H     H_    0.814538 0.267307 0.877855 0.266509
H15   H     H_    0.700493 0.228641 0.851628 0.267948
H16   H     H_    0.724777 0.313810 0.974224 0.273424
H17   H     H_    0.195884 0.306889 0.181626 0.168250
H18   H     H_    0.161823 0.292773 0.344610 0.135649
H19   H     H_    0.359729 0.293955 0.259889 0.238192
H20   H     H_    0.315393 0.262775 0.414804 0.246582
H21   H     H_    0.233363 0.125059 0.319567 0.273253
H22   H     H_    0.352759 0.118231 0.294839 0.269254
H23   H     H_    0.487860 0.664814 0.073192 0.219807
H24   H     H_    0.280330 0.155072 0.164993 0.274967
H25   H     H_    0.341379 0.917362 0.877125 0.077095
H26   H     H_    0.589817 0.085524 0.081400 0.069480
H27   H     H_    0.661717 0.924645 0.126367 0.083548
H28   H     H_    0.411442 0.077132 0.919340 0.072691
H29   H     H_    0.508799 0.334927 0.927160 0.156422
H30   H     H_    0.627304 0.590203 0.918174 0.182783
H31   H     H_    0.368992 0.410579 0.081238 0.169657
H32   H     H_    0.773416 0.454155 0.307334 0.158198
H33   H     H_    0.225523 0.569141 0.675688 0.155578
H34   H     H_    0.923805 0.597473 0.794053 0.179271
N1    N     N_R   0.500000 0.750030 0.500000 -0.132581
N2    N     N_R   0.500000 0.249970 0.500000 -0.139778
O1    O     O_R   0.367850 0.580280 0.500030 -0.625902
O2    O     O_3   0.234642 0.418907 0.292875 -0.663640
O3    O     O_2   0.446536 0.830622 0.877838 -0.538629
O4    O     O_2   0.666195 0.166453 0.192067 -0.581282
O5    O     O_2   0.555384 0.839540 0.121515 -0.552801
O6    O     O_2   0.334674 0.159932 0.808872 -0.578584
O7    O     O_R   0.632150 0.419720 0.499970 -0.628310
O8    O     O_R   0.632150 0.580280 0.499970 -0.599410
O9    O     O_R   0.367850 0.419720 0.500030 -0.618721
O10   O     O_R   0.499970 0.580260 0.313950 -0.633884
O11   O     O_R   0.500030 0.419740 0.686050 -0.651437
O12   O     O_R   0.500030 0.580260 0.686050 -0.611281
O13   O     O_R   0.499970 0.419740 0.313950 -0.640166
O14   O     O_3   0.768231 0.535861 0.726747 -0.654671
Zn1   Zn    Zn3+2 0.500000 0.607200 0.500000 0.974907
Zn2   Zn    Zn3+2 0.500000 0.392800 0.500000 0.937458

loop_
_geom_bond_atom_site_label_1
_geom_bond_atom_site_label_2
_ccdc_geom_bond_type
C43   H21   S    
C21   C26   S    
C8    C13   A    
C23   C45   A    
C34   C37   A    
C41   C42   S    
C17   C48   S    
C47   H27   S    
C7    C11   A    
C48   O6    D    
C22   H30   S    
C41   H17   S    
C44   H25   S    
C35   C37   A    
C24   H31   S    
C25   H1    S    
C38   C39   S    
C37   C51   A    
C46   O4    D    
C20   C25   S    
C10   C17   A    
C15   C16   A    
C33   C36   A    
C6    N2    A    
C26   H12   S    
C7    C14   A    
C40   H15   S    
C50   C52   A    
C31   C33   A    
C12   O7    A    
C19   C27   S    
C52   H3    S    
C38   H9    S    
C49   C52   A    
C43   H22   S    
O11   Zn2   S    
C21   C27   S    
C40   H14   S    
O1    Zn1   S    
C39   H13   S    
C14   C17   A    
C16   C47   S    
N2    Zn2   S    
C5    C7    A    
C2    C45   A    
C5    H7    S    
C3    N1    A    
C33   O14   S    
C32   C35   A    
C6    H8    S    
C18   C28   S    
C24   C25   S    
C29   H32   S    
C1    O9    A    
C39   C40   S    
C46   H26   S    
C19   O11   A    
C6    C8    A    
C20   C28   S    
O12   Zn1   S    
C20   H23   S    
C29   C45   A    
C18   O13   A    
C3    C9    A    
C23   C34   A    
C42   H20   S    
C47   O5    D    
C30   H33   S    
C9    C11   A    
C44   O3    D    
N1    Zn1   S    
C3    H5    S    
C30   C49   A    
C21   H29   S    
C8    C15   A    
C22   C27   S    
C12   C31   S    
C22   C26   S    
C21   C24   S    
C42   C43   S    
C4    C10   A    
C36   C50   A    
O7    Zn2   S    
C14   C44   S    
C43   H24   S    
C34   C49   A    
C1    O1    A    
C9    C16   A    
C24   C28   S    
C20   C22   S    
C10   C13   A    
C19   O12   A    
C4    N2    A    
C25   C27   S    
C39   H11   S    
C26   C28   S    
C51   H2    S    
C48   H28   S    
C38   O14   S    
C2    H4    S    
C30   C32   A    
C11   C13   A    
C42   H19   S    
C41   O2    S    
C1    C32   S    
O9    Zn2   S    
C2    C51   A    
C50   H34   S    
C5    N1    A    
C35   O2    S    
C29   C31   A    
C23   C36   A    
C40   H16   S    
O8    Zn1   S    
C4    H6    S    
C12   O8    A    
O13   Zn2   S    
C18   O10   A    
C15   C46   S    
O10   Zn1   S    
C41   H18   S    
C38   H10   S    
