data_mof_unit_67366.cif
_audit_creation_date              2013-03-05T16:08:14-0500
_audit_creation_method            fapswitch 2.2
_symmetry_space_group_name_H-M    P1
_symmetry_Int_Tables_number       1
_space_group_crystal_system       triclinic
_cell_length_a                    19.325478
_cell_length_b                    23.229445
_cell_length_c                    8.810643
_cell_angle_alpha                 90.143006
_cell_angle_beta                  104.519931
_cell_angle_gamma                 89.9337
_cell_volume                      3828.93291481

loop_
_atom_site_label
_atom_site_type_symbol
_atom_site_description
_atom_site_fract_x
_atom_site_fract_y
_atom_site_fract_z
_atom_type_partial_charge
P1    P     P_3+3 0.853370 0.434890 0.996520 0.585409
P2    P     P_3+3 0.853370 0.565110 0.496520 0.581722
P3    P     P_3+3 0.353370 0.934890 0.996520 0.582691
P4    P     P_3+3 0.353370 0.065110 0.496520 0.584495
O1    O     O_2   0.860260 0.414960 0.826400 -0.285517
O2    O     O_2   0.860260 0.585040 0.326400 -0.284452
O3    O     O_2   0.360260 0.914960 0.826400 -0.290306
O4    O     O_2   0.360260 0.085040 0.326400 -0.286263
O5    O     O_3   0.918600 0.470180 0.098890 -0.310703
O6    O     O_3   0.918600 0.529820 0.598890 -0.307775
O7    O     O_3   0.418600 0.970180 0.098890 -0.307372
O8    O     O_3   0.418600 0.029820 0.598890 -0.307311
O9    O     O_3   0.975750 0.362410 0.628650 -0.259515
O10   O     O_3   0.975750 0.637590 0.128650 -0.266741
O11   O     O_3   0.475750 0.862410 0.628650 -0.286148
O12   O     O_3   0.475750 0.137590 0.128650 -0.267702
O13   O     O_2   0.860176 0.312757 0.665338 -0.340830
O14   O     O_2   0.860850 0.688161 0.170245 -0.351236
O15   O     O_2   0.365573 0.805037 0.670769 -0.377679
O16   O     O_2   0.360459 0.187929 0.169189 -0.351069
O17   O     O_3   0.766549 0.467386 0.950774 -0.533899
O18   O     O_3   0.766915 0.532014 0.451080 -0.539619
O19   O     O_3   0.266519 0.967212 0.950618 -0.532074
O20   O     O_3   0.267456 0.031098 0.451827 -0.530136
O21   O     O_3   0.960539 0.242856 0.650867 -0.529214
O22   O     O_3   0.960487 0.757332 0.143573 -0.552662
O23   O     O_3   0.468573 0.741395 0.621748 -0.528525
O24   O     O_3   0.459813 0.257420 0.143168 -0.556866
H1    H     H_    0.038982 0.256211 0.530331 0.088071
H2    H     H_    0.038431 0.741532 0.023044 0.107966
H3    H     H_    0.567015 0.778781 0.633900 0.080360
H4    H     H_    0.539984 0.240853 0.029419 0.111147
C1    C     C_3   0.047487 0.172565 0.639044 -0.124421
C2    C     C_3   0.044003 0.828065 0.114398 -0.113974
C3    C     C_3   0.570589 0.687623 0.595927 -0.070209
C4    C     C_3   0.544057 0.327898 0.116851 -0.118841
H5    H     H_    0.086421 0.188927 0.745411 0.177721
H6    H     H_    0.084005 0.815389 0.223353 0.169101
H7    H     H_    0.621209 0.690680 0.558627 0.113557
H8    H     H_    0.582635 0.315836 0.228463 0.169597
H9    H     H_    0.012405 0.140077 0.674382 0.175972
H10   H     H_    0.007913 0.861274 0.143466 0.173714
H11   H     H_    0.583461 0.676697 0.722595 0.154980
H12   H     H_    0.507157 0.361364 0.141355 0.172997
P5    P     P_3+3 0.146350 0.434230 0.693140 0.506794
P6    P     P_3+3 0.146350 0.565770 0.193140 0.508627
P7    P     P_3+3 0.646350 0.934230 0.693140 0.505441
P8    P     P_3+3 0.646350 0.065770 0.193140 0.511780
P9    P     P_3+3 0.096284 0.316161 0.121162 0.483348
P10   P     P_3+3 0.097256 0.683217 0.623068 0.469096
P11   P     P_3+3 0.597388 0.816677 0.122737 0.452906
P12   P     P_3+3 0.597535 0.183037 0.623166 0.468584
O25   O     O_2   0.139400 0.414340 0.863230 -0.336633
O26   O     O_2   0.139400 0.585660 0.363230 -0.337114
O27   O     O_2   0.639400 0.914340 0.863230 -0.339297
O28   O     O_2   0.639400 0.085660 0.363230 -0.337799
O29   O     O_3   0.023740 0.362300 0.060930 -0.327136
O30   O     O_3   0.023740 0.637700 0.560930 -0.360656
O31   O     O_3   0.523740 0.862300 0.060930 -0.360937
O32   O     O_3   0.523740 0.137700 0.560930 -0.361787
O33   O     O_2   0.146567 0.326211 0.013217 -0.377925
O34   O     O_2   0.145316 0.675633 0.508838 -0.385063
O35   O     O_2   0.645005 0.823899 0.007589 -0.391101
O36   O     O_2   0.644062 0.176788 0.505298 -0.385752
O37   O     O_3   0.214174 0.485294 0.755909 -0.595412
O38   O     O_3   0.213962 0.514528 0.256835 -0.593940
O39   O     O_3   0.712888 0.986340 0.758617 -0.590021
O40   O     O_3   0.712956 0.013760 0.257611 -0.591577
O41   O     O_3   0.062369 0.248113 0.057865 -0.498912
O42   O     O_3   0.067278 0.753991 0.580352 -0.540682
O43   O     O_3   0.567598 0.745754 0.081034 -0.554818
O44   O     O_3   0.567403 0.254097 0.586486 -0.540942
C5    C     C_3   0.010848 0.232753 0.137913 0.397162
C6    C     C_3   0.993461 0.756928 0.565500 0.423180
C7    C     C_3   0.492930 0.743580 0.050591 0.386020
C8    C     C_3   0.492968 0.256204 0.562695 0.421008
H13   H     H_    0.973319 0.268675 0.142486 0.029296
H14   H     H_    0.964312 0.728431 0.468842 0.145023
H15   H     H_    0.467802 0.771340 0.948949 0.150792
H16   H     H_    0.466240 0.228434 0.461999 0.148435
H17   H     H_    0.038118 0.219616 0.258908 0.073737
H18   H     H_    0.980952 0.744753 0.677775 0.020843
H19   H     H_    0.475323 0.757161 0.156152 0.046278
H20   H     H_    0.477671 0.242622 0.670870 0.023333
C9    C     C_3   0.966205 0.182680 0.052120 -0.459864
C10   C     C_3   0.969150 0.818614 0.523333 -0.316500
C11   C     C_3   0.469410 0.681700 0.008232 -0.298498
C12   C     C_3   0.468564 0.317999 0.522502 -0.311747
H21   H     H_    0.926099 0.170003 0.116913 0.164467
H22   H     H_    0.982306 0.830745 0.411893 0.228212
H23   H     H_    0.483763 0.669283 0.898031 0.239818
H24   H     H_    0.483478 0.331258 0.413827 0.227135
H25   H     H_    0.936865 0.196929 0.932962 0.238140
H26   H     H_    0.997788 0.848460 0.616848 0.256174
H27   H     H_    0.497660 0.652257 0.102972 0.255550
H28   H     H_    0.495781 0.347237 0.619070 0.253010
C13   C     C_3   0.257273 0.507566 0.151097 0.588602
C14   C     C_3   0.257606 0.491024 0.650082 0.608044
C15   C     C_3   0.758469 0.007824 0.156214 0.610110
C16   C     C_3   0.758864 0.992467 0.658315 0.620600
H29   H     H_    0.228930 0.519575 0.029417 0.107561
H30   H     H_    0.229292 0.478345 0.528738 0.102226
H31   H     H_    0.732691 0.021886 0.034730 0.101924
H32   H     H_    0.733674 0.978003 0.536660 0.099560
C17   C     C_3   0.325527 0.544817 0.205722 -0.442590
C18   C     C_3   0.325385 0.453273 0.706265 -0.490218
C19   C     C_3   0.827168 0.043372 0.221722 -0.447382
C20   C     C_3   0.827947 0.957470 0.725093 -0.467797
H33   H     H_    0.345407 0.543042 0.334827 0.230230
H34   H     H_    0.343223 0.453610 0.835809 0.218872
H35   H     H_    0.847230 0.035953 0.349048 0.218442
H36   H     H_    0.847027 0.964793 0.852847 0.220998
H37   H     H_    0.311751 0.590094 0.174196 0.178694
H38   H     H_    0.311525 0.408326 0.670164 0.178520
H39   H     H_    0.814255 0.089504 0.205782 0.172720
H40   H     H_    0.815654 0.911197 0.707104 0.181955
Ba1   Ba    Ba6+2 0.999900 0.457470 0.844900 1.681632
Ba2   Ba    Ba6+2 0.999900 0.542530 0.344900 1.673264
Ba3   Ba    Ba6+2 0.499900 0.957470 0.844900 1.664949
Ba4   Ba    Ba6+2 0.499900 0.042530 0.344900 1.671435
C21   C     C_3   0.756513 0.523997 0.893857 0.653550
C22   C     C_3   0.757319 0.475316 0.394462 0.657599
C23   C     C_3   0.256486 0.023875 0.894555 0.659813
C24   C     C_3   0.258738 0.974271 0.395430 0.655882
C25   C     C_3   0.678248 0.544930 0.878217 -0.013993
C26   C     C_3   0.679785 0.453398 0.383209 -0.039099
C27   C     C_3   0.178563 0.044836 0.882606 -0.028306
C28   C     C_3   0.181152 0.951896 0.381450 -0.022207
H41   H     H_    0.670987 0.589202 0.829001 0.111811
H42   H     H_    0.673247 0.408732 0.336103 0.135663
H43   H     H_    0.171779 0.089946 0.839672 0.135388
H44   H     H_    0.175793 0.906799 0.337402 0.131142
H45   H     H_    0.664028 0.547593 0.990914 0.189976
H46   H     H_    0.666543 0.451461 0.496726 0.193766
H47   H     H_    0.164600 0.045003 0.995566 0.190504
H48   H     H_    0.166349 0.951005 0.493409 0.196094
O45   O     O_3   0.081330 0.529680 0.090830 -0.315858
O46   O     O_3   0.081330 0.470320 0.590830 -0.315974
O47   O     O_3   0.581330 0.029680 0.090830 -0.311733
O48   O     O_3   0.581330 0.970320 0.590830 -0.311369
P13   P     P_3+3 0.915530 0.694253 0.069226 0.519728
P14   P     P_3+3 0.916421 0.305297 0.568757 0.534844
P15   P     P_3+3 0.415339 0.194172 0.068684 0.518398
P16   P     P_3+3 0.418815 0.804117 0.565129 0.515170
C29   C     C_3   0.002521 0.222172 0.554167 0.200198
C30   C     C_3   0.000881 0.775792 0.041243 0.183776
C31   C     C_3   0.531068 0.744903 0.567887 0.274641
C32   C     C_3   0.501810 0.275247 0.043484 0.189095
H49   H     H_    0.967355 0.205868 0.442513 0.053839
H50   H     H_    0.964890 0.788645 0.926895 0.077667
H51   H     H_    0.518643 0.754578 0.440234 0.051805
H52   H     H_    0.467111 0.287435 0.927069 0.076658
C33   C     C_R   0.152662 0.677269 0.829060 0.207755
C34   C     C_R   0.149058 0.320190 0.330329 0.154682
C35   C     C_R   0.654473 0.176152 0.827832 0.209236
C36   C     C_R   0.653419 0.822821 0.328583 0.214042
C37   C     C_R   0.200803 0.721297 0.896908 -0.065945
C38   C     C_R   0.196695 0.276031 0.398652 -0.067446
C39   C     C_R   0.703321 0.219847 0.895456 -0.077437
C40   C     C_R   0.701025 0.778478 0.397004 -0.090537
C41   C     C_R   0.792911 0.315774 0.029245 -0.189715
C42   C     C_R   0.790174 0.682610 0.531515 -0.208088
C43   C     C_R   0.291421 0.816728 0.029770 -0.187832
C44   C     C_R   0.288978 0.181769 0.531573 -0.178875
C45   C     C_R   0.752770 0.313976 0.870021 0.491490
C46   C     C_R   0.749582 0.683832 0.372779 0.445707
C47   C     C_R   0.251208 0.814965 0.870642 0.487852
C48   C     C_R   0.247466 0.182381 0.373265 0.496632
C49   C     C_R   0.216179 0.765583 0.805336 -0.214267
C50   C     C_R   0.210703 0.230927 0.307751 -0.248259
C51   C     C_R   0.718489 0.264325 0.804107 -0.204940
C52   C     C_R   0.715666 0.733429 0.306176 -0.219445
C53   C     C_R   0.844037 0.360730 0.096452 0.173380
C54   C     C_R   0.842705 0.638603 0.597489 0.165472
C55   C     C_R   0.343705 0.860992 0.095995 0.159334
C56   C     C_R   0.342298 0.138352 0.597292 0.154680
H53   H     H_    0.195935 0.764781 0.679728 0.218268
H54   H     H_    0.188405 0.230591 0.182769 0.215619
H55   H     H_    0.697800 0.263732 0.678551 0.216336
H56   H     H_    0.695314 0.733693 0.180566 0.223785
C57   C     C_R   0.886059 0.350688 0.252421 -0.007980
C58   C     C_R   0.884792 0.648821 0.753136 -0.009799
C59   C     C_R   0.386050 0.850842 0.251369 -0.021107
C60   C     C_R   0.384687 0.148837 0.752548 -0.009533
C61   C     C_R   0.170069 0.630570 0.084802 0.123482
C62   C     C_R   0.168809 0.368681 0.585015 0.122221
C63   C     C_R   0.671117 0.129960 0.084151 0.114758
C64   C     C_R   0.670942 0.869863 0.584450 0.101775
C65   C     C_R   0.217893 0.676144 0.153768 -0.026066
C66   C     C_R   0.216038 0.322933 0.654448 -0.021339
C67   C     C_R   0.719175 0.175383 0.153001 -0.020329
C68   C     C_R   0.717961 0.824029 0.654028 -0.028505
C69   C     C_R   0.232615 0.722170 0.058986 0.071682
C70   C     C_R   0.229748 0.276159 0.560353 0.083043
C71   C     C_R   0.735082 0.220738 0.057661 0.066206
C72   C     C_R   0.732518 0.777774 0.559464 0.042002
C73   C     C_R   0.254399 0.675826 0.312000 -0.156201
C74   C     C_R   0.252804 0.323708 0.812562 -0.149912
C75   C     C_R   0.754012 0.175972 0.312324 -0.153633
C76   C     C_R   0.753058 0.823829 0.813238 -0.154397
C77   C     C_R   0.802810 0.218925 0.376406 -0.150375
C78   C     C_R   0.800781 0.780278 0.878150 -0.151928
C79   C     C_R   0.303322 0.718791 0.375757 -0.094016
C80   C     C_R   0.300887 0.280369 0.877248 -0.149545
C81   C     C_R   0.818813 0.264410 0.284815 -0.028588
C82   C     C_R   0.816079 0.734217 0.786968 -0.030977
C83   C     C_R   0.317950 0.765091 0.284811 -0.039297
C84   C     C_R   0.315509 0.233897 0.786542 -0.034854
C85   C     C_R   0.783236 0.266890 0.123625 -0.005616
C86   C     C_R   0.780139 0.731410 0.625980 -0.016765
C87   C     C_R   0.281117 0.768183 0.124583 -0.012813
C88   C     C_R   0.278539 0.230441 0.626178 -0.000541
C89   C     C_R   0.870787 0.306100 0.350423 0.087478
C90   C     C_R   0.868575 0.692803 0.851923 0.113589
C91   C     C_R   0.370439 0.806571 0.349394 0.147761
C92   C     C_R   0.368386 0.192750 0.851315 0.116602
C93   C     C_R   0.141558 0.631239 0.921895 -0.416807
C94   C     C_R   0.139692 0.367273 0.422313 -0.398597
C95   C     C_R   0.642802 0.130430 0.921103 -0.413751
C96   C     C_R   0.642728 0.869168 0.421413 -0.413262
H57   H     H_    0.828445 0.214936 0.499625 0.168391
H58   H     H_    0.826680 0.784523 0.001240 0.175143
H59   H     H_    0.330483 0.713915 0.497867 0.181900
H60   H     H_    0.327797 0.285218 0.999595 0.175609
H61   H     H_    0.248328 0.640884 0.387377 0.171142
H62   H     H_    0.247481 0.359167 0.887294 0.171319
H63   H     H_    0.746866 0.141664 0.388586 0.170691
H64   H     H_    0.746946 0.858810 0.888787 0.173370
H65   H     H_    0.110811 0.594919 0.865626 0.201787
H66   H     H_    0.110277 0.404035 0.365403 0.199171
H67   H     H_    0.611307 0.094401 0.865236 0.203406
H68   H     H_    0.612019 0.905490 0.365256 0.204622
C97   C     C_3   0.387021 0.528534 0.133501 -0.779451
H69   H     H_    0.408948 0.485489 0.174089 0.276104
H70   H     H_    0.368804 0.529095 0.004253 0.233007
H71   H     H_    0.430916 0.560296 0.170174 0.308457
C98   C     C_3   0.388934 0.470086 0.641552 -0.763046
H72   H     H_    0.410104 0.513033 0.685469 0.289495
H73   H     H_    0.432669 0.438340 0.681321 0.290278
H74   H     H_    0.373256 0.469997 0.511963 0.238504
C99   C     C_3   0.887992 0.031813 0.143848 -0.853520
H75   H     H_    0.906021 0.986345 0.158240 0.283660
H76   H     H_    0.871251 0.043230 0.018125 0.240873
H77   H     H_    0.934266 0.059104 0.201127 0.294503
C100  C     C_3   0.889528 0.970556 0.650578 -0.810230
H78   H     H_    0.909595 0.015103 0.677955 0.275008
H79   H     H_    0.934460 0.940564 0.698312 0.300712
H80   H     H_    0.872145 0.964350 0.522316 0.238433
C101  C     C_3   0.771111 0.526476 0.741526 -0.674498
H81   H     H_    0.740872 0.491731 0.674056 0.262164
H82   H     H_    0.753788 0.569022 0.687940 0.191097
H83   H     H_    0.828594 0.518652 0.753783 0.257216
C102  C     C_3   0.769264 0.473047 0.239695 -0.657484
H84   H     H_    0.735859 0.506212 0.171836 0.263374
H85   H     H_    0.825845 0.483074 0.247881 0.255082
H86   H     H_    0.753927 0.429764 0.188308 0.203185
C103  C     C_3   0.269370 0.026486 0.740525 -0.656055
H87   H     H_    0.237892 0.992371 0.672837 0.263366
H88   H     H_    0.252453 0.069283 0.688067 0.210580
H89   H     H_    0.326455 0.017843 0.750004 0.252020
C104  C     C_3   0.272124 0.972220 0.242076 -0.658836
H90   H     H_    0.240297 0.006216 0.174721 0.265479
H91   H     H_    0.329143 0.981393 0.252925 0.254280
H92   H     H_    0.255789 0.929385 0.188988 0.202490
Br1   Br    Br    0.820189 0.576954 0.012087 -0.463771
Br2   Br    Br    0.824072 0.423861 0.510009 -0.452397
Br3   Br    Br    0.321961 0.076174 0.011057 -0.456532
Br4   Br    Br    0.324924 0.922398 0.512333 -0.457420
Br5   Br    Br    0.604876 0.496784 0.747111 -0.377685
Br6   Br    Br    0.604007 0.499918 0.253568 -0.404064
Br7   Br    Br    0.104234 0.998594 0.747088 -0.401945
Br8   Br    Br    0.105714 0.996583 0.245231 -0.438251
Br9   Br    Br    0.099191 0.135101 0.505655 -0.542369
Br10  Br    Br    0.092790 0.861233 0.969963 -0.491147
Br11  Br    Br    0.512817 0.626769 0.476479 -0.469686
Br12  Br    Br    0.595630 0.360042 0.976303 -0.491635
C105  C     C_3   0.012432 0.130567 0.037436 -0.654520
H93   H     H_    0.038958 0.113890 0.155439 0.309300
H94   H     H_    0.978564 0.096128 0.969158 0.231102
H95   H     H_    0.053966 0.142049 0.975784 0.268464
C106  C     C_3   0.889087 0.824800 0.503346 -1.036315
H96   H     H_    0.859589 0.792084 0.419753 0.285945
H97   H     H_    0.876593 0.820264 0.618832 0.274394
H98   H     H_    0.871522 0.867813 0.456009 0.278877
C107  C     C_3   0.389247 0.675037 0.985665 -1.022094
H99   H     H_    0.359731 0.706702 0.898994 0.281284
H100  H     H_    0.372892 0.631285 0.941953 0.278029
H101  H     H_    0.375690 0.680857 0.099731 0.279380
C108  C     C_3   0.388094 0.323667 0.497219 -1.053355
H102  H     H_    0.359625 0.291514 0.410296 0.287390
H103  H     H_    0.373930 0.317817 0.610499 0.271031
H104  H     H_    0.370923 0.367119 0.452372 0.282128
Br13  Br    Br    0.716023 0.375753 0.734395 -0.435044
Br14  Br    Br    0.710473 0.621453 0.241418 -0.464300
Br15  Br    Br    0.215827 0.876474 0.733266 -0.438830
Br16  Br    Br    0.213197 0.120173 0.236978 -0.478866
Br17  Br    Br    0.969358 0.395629 0.332393 -0.438203
Br18  Br    Br    0.969520 0.605253 0.831327 -0.437179
Br19  Br    Br    0.470306 0.895004 0.331039 -0.437767
Br20  Br    Br    0.469843 0.105683 0.830634 -0.435450
C109  C     C_3   0.275178 0.443383 0.151381 -0.857327
H105  H     H_    0.311200 0.430923 0.265135 0.216863
H106  H     H_    0.225723 0.417480 0.134733 0.263857
H107  H     H_    0.301065 0.432839 0.056108 0.207492
C110  C     C_3   0.275730 0.555057 0.647363 -0.845047
H108  H     H_    0.311842 0.568199 0.760268 0.216664
H109  H     H_    0.301520 0.564582 0.551418 0.215843
H110  H     H_    0.226427 0.581266 0.630008 0.257843
C111  C     C_3   0.775141 0.943520 0.151384 -0.858986
H111  H     H_    0.810675 0.929563 0.264289 0.215721
H112  H     H_    0.725187 0.918104 0.132063 0.263728
H113  H     H_    0.800999 0.933701 0.055682 0.205977
C112  C     C_3   0.774848 0.056943 0.653151 -0.877160
H114  H     H_    0.809239 0.071938 0.766757 0.217008
H115  H     H_    0.801656 0.066477 0.558810 0.208173
H116  H     H_    0.724428 0.081898 0.630811 0.263167

loop_
_geom_bond_atom_site_label_1
_geom_bond_atom_site_label_2
_geom_bond_distance
_ccdc_geom_bond_type
C15   H31   1.111091 S    
C11   H23   1.111896 S    
C2    H10   1.111073 S    
C16   C112  1.532699 S    
P8    Ba4   3.463253 S    
O27   Ba3   2.841478 S    
C109  H105  1.106354 S    
C106  H98   1.103547 S    
C50   H54   1.077199 S    
C37   C69   1.406143 A    
O38   C13   1.408750 S    
C71   C85   1.442632 A    
C69   C87   1.443148 A    
C16   H32   1.111611 S    
C103  H89   1.103482 S    
C37   C49   1.386593 A    
C30   H50   1.112462 S    
C4    C32   1.521182 S    
C80   C84   1.411426 A    
O42   C6    1.401069 S    
P4    O8    1.582974 S    
C40   C72   1.408117 A    
H3    C31   1.112016 S    
C82   C90   1.411228 A    
P9    O41   1.747557 S    
C100  H78   1.110033 S    
P11   O43   1.753229 S    
C5    H17   1.107628 S    
O18   C22   1.403133 S    
C59   C91   1.424894 A    
C101  H82   1.110874 S    
O3    Ba3   2.840597 S    
C44   C48   1.424162 A    
C10   H22   1.111233 S    
C21   Br1   1.861992 S    
C42   C86   1.446059 A    
C14   H30   1.111138 S    
C24   Br4   1.868403 S    
O13   P14   1.548621 D    
C62   C66   1.434437 A    
P12   O44   1.753386 S    
C84   C88   1.416540 A    
C40   C52   1.387154 A    
C36   C96   1.396633 A    
O9    P14   1.746377 S    
O39   C16   1.409017 S    
C74   C80   1.391743 A    
C9    C105  1.528066 S    
C4    H12   1.111105 S    
C55   C59   1.427833 A    
C109  H107  1.106418 S    
C65   C73   1.395790 A    
C56   C60   1.427744 A    
C13   C17   1.549999 S    
C26   Br6   1.944415 S    
C11   C107  1.519690 S    
P14   C89   1.904738 S    
C45   Br13  1.890051 S    
C34   C38   1.408948 A    
C14   C18   1.550527 S    
C57   Br17  1.899783 S    
P10   O42   1.752624 S    
Ba3   O47   2.874595 S    
C107  H100  1.104038 S    
P2    O18   1.791330 S    
C2    C30   1.521013 S    
C44   C88   1.446663 A    
C68   C76   1.396675 A    
C27   H43   1.111367 S    
P3    O7    1.582153 S    
C70   C88   1.442180 A    
C25   H41   1.112091 S    
C26   H46   1.093813 S    
C76   C78   1.391902 A    
C100  H80   1.104365 S    
C25   Br5   1.942077 S    
C5    H13   1.112217 S    
C19   C99   1.525544 S    
C103  H88   1.111141 S    
Ba2   O46   2.878779 S    
C7    H15   1.112529 S    
C4    Br12  1.926024 S    
C41   C45   1.423251 A    
C74   H62   1.074092 S    
C45   C51   1.382725 A    
C46   C52   1.382062 A    
O21   P14   1.745643 S    
C77   H57   1.078577 S    
C43   C55   1.456846 A    
C54   C58   1.427589 A    
C22   C102  1.439756 S    
C47   C49   1.381431 A    
C23   C103  1.441282 S    
C39   C71   1.406981 A    
C62   C94   1.402845 A    
P1    C53   1.965536 S    
C101  H81   1.082032 S    
Ba3   O48   3.057344 S    
C17   H37   1.103621 S    
O12   Ba4   2.880422 S    
C102  H84   1.084133 S    
C112  H115  1.107004 S    
P9    O29   1.738410 S    
C99   H75   1.109365 S    
O22   C30   1.400631 S    
P12   O32   1.747021 S    
C9    H25   1.111788 S    
C110  H109  1.106531 S    
C18   C98   1.529449 S    
C11   H27   1.111789 S    
P7    O48   1.589860 S    
O32   Ba4   2.874735 S    
Ba4   O48   2.878779 S    
C3    H11   1.110795 S    
C97   H69   1.109989 S    
C33   C93   1.396874 A    
P5    O25   1.606816 D    
C27   Br7   1.944231 S    
C98   H72   1.109964 S    
C14   C110  1.530150 S    
C83   C87   1.414667 A    
O5    Ba2   2.876024 S    
C28   Br8   1.941317 S    
C51   H55   1.077931 S    
O7    Ba4   2.876024 S    
C49   H53   1.077479 S    
C111  H112  1.108122 S    
C16   C20   1.547740 S    
C35   C39   1.411936 A    
C36   C40   1.411955 A    
C38   C50   1.384332 A    
O19   C23   1.403115 S    
C31   H51   1.113032 S    
C21   C25   1.561178 S    
O8    Ba3   2.880219 S    
C82   C86   1.415695 A    
C23   C27   1.560422 S    
C108  H102  1.110795 S    
P1    Ba1   3.461550 S    
C35   C95   1.397164 A    
C5    C9    1.529587 S    
P3    Ba3   3.461550 S    
P6    O45   1.589022 S    
C7    C11   1.525089 S    
P5    O37   1.751502 S    
C22   Br2   1.863660 S    
P5    Ba1   3.461193 S    
C17   H33   1.106470 S    
C98   H74   1.105417 S    
C101  H83   1.103736 S    
C19   H35   1.105089 S    
O14   P13   1.549657 D    
C32   H52   1.112646 S    
C95   H67   1.078010 S    
P13   C90   1.902300 S    
C102  H86   1.111236 S    
C61   C65   1.435848 A    
C106  H97   1.108381 S    
C64   C68   1.434130 A    
C99   H77   1.108932 S    
C105  H94   1.109801 S    
C72   C86   1.442493 A    
O6    Ba1   2.880219 S    
Ba1   Ba2   4.832646 S    
C60   Br20  1.902212 S    
C1    Br9   1.928392 S    
C24   C104  1.438651 S    
C48   C50   1.380346 A    
P5    O46   1.589860 S    
O11   Ba3   2.873951 S    
C97   H71   1.109586 S    
C67   C71   1.429957 A    
C81   C89   1.410401 A    
C65   C69   1.430279 A    
C13   C109  1.530049 S    
C105  H95   1.109188 S    
C77   C81   1.411865 A    
C3    Br11  1.938905 S    
C12   H28   1.111477 S    
O15   P16   1.550974 D    
C58   Br18  1.901051 S    
Ba1   O46   3.057344 S    
C8    H20   1.112793 S    
P2    Ba2   3.459547 S    
P12   C35   1.869261 S    
C38   C70   1.407629 A    
C39   C51   1.387211 A    
P1    O1    1.604721 D    
C68   C72   1.428345 A    
C27   H47   1.094540 S    
O37   C14   1.408871 S    
P6    O38   1.752466 S    
P3    O3    1.604721 D    
C28   H48   1.094046 S    
H1    C29   1.114514 S    
P4    O20   1.791534 S    
C60   C92   1.424554 A    
C26   H42   1.112028 S    
P10   C33   1.867083 S    
C108  H104  1.104784 S    
P6    Ba2   3.463253 S    
C76   H64   1.074161 S    
C94   H66   1.077906 S    
C42   C46   1.422044 A    
O41   C5    1.403662 S    
O22   P13   1.744649 S    
O44   C8    1.401536 S    
C24   C28   1.562788 S    
C52   H56   1.077635 S    
C64   C96   1.402911 A    
C53   C57   1.429644 A    
O16   P15   1.549815 D    
C6    H18   1.112848 S    
C59   Br19  1.903573 S    
C109  H106  1.107965 S    
O24   C32   1.400581 S    
P9    O33   1.538957 D    
C12   C108  1.520298 S    
P10   O30   1.745485 S    
C8    H16   1.112733 S    
P9    C34   1.871381 S    
O12   P15   1.749374 S    
P1    O5    1.582153 S    
P8    C63   1.901014 S    
P12   O36   1.541173 D    
C9    H21   1.112005 S    
C41   C85   1.448815 A    
C20   C100  1.527519 S    
C1    H5    1.110936 S    
C20   H36   1.105868 S    
C3    H7    1.109734 S    
C107  H99   1.110384 S    
C104  H92   1.110346 S    
C41   C53   1.457165 A    
P6    O26   1.604572 D    
C83   C91   1.411127 A    
O23   P16   1.748199 S    
P11   O35   1.540634 D    
O24   P15   1.744491 S    
P8    O40   1.752830 S    
P3    C55   1.959618 S    
C100  H79   1.110490 S    
C66   C74   1.396216 A    
O29   Ba1   2.881214 S    
C46   Br14  1.888372 S    
O31   Ba3   2.881214 S    
O9    Ba1   2.873951 S    
Ba3   Ba4   4.832646 S    
H4    C32   1.114415 S    
C15   C19   1.547120 S    
C6    H14   1.112795 S    
C1    H9    1.111012 S    
C20   H40   1.103551 S    
C7    H19   1.112330 S    
C112  H114  1.109120 S    
C104  H90   1.082743 S    
C44   C56   1.454507 A    
P6    C61   1.901370 S    
C33   C37   1.410392 A    
C23   Br3   1.864582 S    
C110  H108  1.104838 S    
P4    C56   1.953363 S    
C75   C77   1.391430 A    
C75   H63   1.074783 S    
C29   H49   1.112002 S    
P15   C92   1.902799 S    
C73   H61   1.074998 S    
P1    O17   1.790804 S    
C78   H58   1.078786 S    
P3    O19   1.789596 S    
O20   C24   1.404688 S    
P4    O4    1.606968 D    
C63   C95   1.403262 A    
C111  H111  1.106714 S    
C2    Br10  1.926175 S    
C61   C93   1.402675 A    
C18   H38   1.104231 S    
C67   C75   1.396409 A    
C103  H87   1.081928 S    
C107  H101  1.108236 S    
O25   Ba1   2.841478 S    
P5    C62   1.900797 S    
O30   Ba2   2.874735 S    
C10   H26   1.111399 S    
C93   H65   1.077973 S    
C12   H24   1.111212 S    
O10   Ba2   2.880422 S    
C34   C94   1.398036 A    
Ba2   O45   3.055895 S    
C8    C12   1.524999 S    
C63   C67   1.435428 A    
P7    Ba3   3.461193 S    
O10   P13   1.747964 S    
C84   C92   1.411210 A    
C80   H60   1.078683 S    
O28   Ba4   2.843393 S    
P2    O2    1.606968 D    
C28   H44   1.112131 S    
P7    O39   1.754912 S    
C104  H91   1.102900 S    
H2    C30   1.114469 S    
C47   Br15  1.888247 S    
P11   C36   1.869887 S    
C48   Br16  1.887721 S    
C96   H68   1.078238 S    
C79   H59   1.078490 S    
C4    H8    1.111141 S    
C102  H85   1.102753 S    
C43   C87   1.448375 A    
C112  H116  1.107845 S    
C106  H96   1.110259 S    
C79   C83   1.413263 A    
O1    Ba1   2.840597 S    
C99   H76   1.106156 S    
C22   C26   1.562447 S    
C43   C47   1.422929 A    
C21   C101  1.440309 S    
C81   C85   1.415510 A    
C110  H110  1.108139 S    
Ba4   O47   3.055895 S    
C3    C31   1.523000 S    
C6    C10   1.524998 S    
C97   H70   1.104497 S    
C19   H39   1.101333 S    
C1    C29   1.522631 S    
C98   H73   1.110089 S    
P10   O34   1.540787 D    
C15   C111  1.530462 S    
P11   O31   1.748188 S    
P2    O6    1.582974 S    
O26   Ba2   2.843393 S    
O4    Ba4   2.838708 S    
P7    O27   1.606816 D    
C18   H34   1.106469 S    
C111  H113  1.105804 S    
C25   H45   1.096229 S    
P8    O28   1.604572 D    
P8    O47   1.589022 S    
C2    H6    1.111134 S    
C17   C97   1.528800 S    
Ba1   O45   2.874595 S    
P16   C91   1.897245 S    
C57   C89   1.427733 A    
C42   C54   1.455372 A    
O40   C15   1.408493 S    
P2    C54   1.957542 S    
O43   C7    1.400992 S    
C108  H103  1.107834 S    
C10   C106  1.519421 S    
C73   C79   1.392349 A    
O17   C21   1.404409 S    
C66   C70   1.429357 A    
O11   P16   1.745974 S    
O23   C31   1.406506 S    
C78   C82   1.411289 A    
C58   C90   1.425203 A    
P4    Ba4   3.459547 S    
O21   C29   1.399505 S    
P7    C64   1.896843 S    
C105  H93   1.108194 S    
O2    Ba2   2.838708 S    
C13   H29   1.110802 S    
