data_mof_unit_31102.cif
_audit_creation_date              2013-03-05T15:42:17-0500
_audit_creation_method            fapswitch 2.2
_symmetry_space_group_name_H-M    P1
_symmetry_Int_Tables_number       1
_space_group_crystal_system       triclinic
_cell_length_a                    18.476829
_cell_length_b                    18.384297
_cell_length_c                    18.315048
_cell_angle_alpha                 90.815621
_cell_angle_beta                  119.829377
_cell_angle_gamma                 119.560037
_cell_volume                      4407.95288173

loop_
_atom_site_label
_atom_site_type_symbol
_atom_site_description
_atom_site_fract_x
_atom_site_fract_y
_atom_site_fract_z
_atom_type_partial_charge
Zn1   Zn    Zn3+2 0.414150 0.543930 0.458110 1.065831
Zn2   Zn    Zn3+2 0.585850 0.541910 0.456060 1.004081
Zn3   Zn    Zn3+2 0.414160 0.370220 0.456060 0.983476
Zn4   Zn    Zn3+2 0.585840 0.543930 0.629770 0.972396
O1    O     O_3   0.500000 0.500000 0.500000 -0.516812
O2    O     O_R   0.729180 0.615300 0.675360 -0.657723
O3    O     O_R   0.270820 0.446200 0.386140 -0.623027
O4    O     O_R   0.560090 0.613880 0.384720 -0.654172
O5    O     O_R   0.439920 0.324620 0.553780 -0.649859
O6    O     O_R   0.560100 0.442800 0.382710 -0.614432
O7    O     O_R   0.560070 0.617290 0.677370 -0.638400
O8    O     O_R   0.439930 0.322630 0.382710 -0.653580
O9    O     O_R   0.439900 0.617290 0.557220 -0.596949
O10   O     O_R   0.439910 0.615300 0.386140 -0.578334
O11   O     O_R   0.560080 0.446200 0.675360 -0.657196
O12   O     O_R   0.729180 0.613880 0.553780 -0.589642
O13   O     O_R   0.270820 0.324620 0.384720 -0.613731
C1    C     C_R   0.777095 0.640803 0.639019 0.876521
C2    C     C_R   0.222929 0.361061 0.361135 0.884916
C3    C     C_R   0.502938 0.641524 0.364718 0.872956
C4    C     C_R   0.497062 0.361855 0.639701 0.702997
C5    C     C_R   0.499204 0.358386 0.358835 0.791420
C6    C     C_R   0.500101 0.641403 0.642030 0.885293
C7    C     C_3   0.559736 0.726913 0.801926 0.274673
C8    C     C_3   0.464950 0.705231 0.794702 0.290917
C9    C     C_3   0.498127 0.800775 0.800340 -0.178511
C10   C     C_3   0.595469 0.823870 0.808778 -0.394126
C11   C     C_3   0.532167 0.793238 0.705255 0.514815
C12   C     C_3   0.435609 0.771742 0.696618 -0.236163
C13   C     C_3   0.402555 0.674638 0.691533 -0.299548
C14   C     C_3   0.499477 0.697469 0.699612 -0.160095
H1    H     H_    0.674016 0.884735 0.856929 0.182920
H2    H     H_    0.384932 0.791335 0.653750 0.175290
H3    H     H_    0.324427 0.612935 0.644463 0.204038
C15   C     C_2   0.943238 0.164062 0.222824 -0.393111
C16   C     C_2   0.887357 0.195818 0.209465 0.147198
H4    H     H_    0.905646 0.096044 0.183911 0.165754
C17   C     C_2   0.055322 0.217709 0.287492 0.544897
C18   C     C_2   0.112255 0.304605 0.298719 -0.314929
H5    H     H_    0.076969 0.335070 0.258328 0.155219
C19   C     C_2   0.445380 0.164658 0.719719 -0.255997
C20   C     C_2   0.523014 0.191083 0.805869 0.272216
H6    H     H_    0.370972 0.103208 0.690404 0.141003
C21   C     C_2   0.453075 0.221953 0.665127 -0.154222
C22   C     C_2   0.488687 0.307146 0.697529 0.401309
H7    H     H_    0.427598 0.192867 0.597886 0.133434
C23   C     C_2   0.056223 0.806906 0.724206 0.273576
C24   C     C_2   0.110325 0.795787 0.801750 0.183692
C25   C     C_2   0.942411 0.748263 0.664233 0.436772
C26   C     C_2   0.887586 0.704969 0.696424 -0.395516
H8    H     H_    0.923839 0.720146 0.767902 0.143897
C27   C     C_2   0.419319 0.163757 0.198982 -0.443798
C28   C     C_2   0.474786 0.195853 0.166251 0.417699
H9    H     H_    0.385007 0.095614 0.198282 0.149840
C29   C     C_2   0.413206 0.223316 0.245016 0.371685
C30   C     C_2   0.502348 0.299215 0.311300 0.360976
C31   C     C_2   0.472328 0.803046 0.244853 -0.382543
C32   C     C_2   0.486664 0.794093 0.180860 0.132961
H10   H     H_    0.469569 0.858375 0.261107 0.178767
C33   C     C_2   0.461782 0.743808 0.297482 0.374602
C34   C     C_2   0.513687 0.706577 0.319278 -0.357192
H11   H     H_    0.567546 0.724473 0.302485 0.170669
Zn5   Zn    Zn3+2 0.585940 0.956110 0.041940 1.041918
Zn6   Zn    Zn3+2 0.585930 0.129820 0.043980 1.051851
Zn7   Zn    Zn3+2 0.414240 0.958130 0.043980 0.947211
Zn8   Zn    Zn3+2 0.414250 0.956110 0.870280 0.964275
O14   O     O_3   0.500090 0.000040 0.000040 -0.504763
O15   O     O_R   0.440010 0.053840 0.824690 -0.685105
O16   O     O_R   0.560180 0.884750 0.113900 -0.583683
O17   O     O_R   0.729260 0.175430 0.115330 -0.572508
O18   O     O_R   0.270900 0.886160 0.946260 -0.670152
O19   O     O_R   0.560160 0.177420 0.117340 -0.602371
O20   O     O_R   0.440020 0.882760 0.822680 -0.660254
O21   O     O_R   0.439990 0.057240 0.117340 -0.681630
O22   O     O_R   0.560190 0.882760 0.942820 -0.597074
O23   O     O_R   0.729270 0.053840 0.113900 -0.664384
O24   O     O_R   0.270910 0.884750 0.824690 -0.631393
O25   O     O_R   0.560170 0.175430 0.946260 -0.587493
O26   O     O_R   0.440000 0.886160 0.115330 -0.661317
C35   C     C_R   0.503330 0.138330 0.861095 0.725847
C36   C     C_R   0.498590 0.860138 0.136894 0.799857
C37   C     C_R   0.777299 0.139045 0.140369 0.775814
C38   C     C_R   0.222458 0.859895 0.860618 0.828702
C39   C     C_R   0.496165 0.141292 0.136551 0.751397
C40   C     C_R   0.499601 0.858429 0.858047 0.901299
N1    N     N_R   0.427296 0.655051 0.843199 0.239373
O27   O     O_R   0.395682 0.572109 0.827464 -0.328475
O28   O     O_R   0.419288 0.690725 0.898159 -0.347944
N2    N     N_R   0.627005 0.264261 0.842017 0.212305
O29   O     O_R   0.695470 0.302447 0.928280 -0.371108
O30   O     O_R   0.657807 0.281701 0.790158 -0.424086
O31   O     O_3   0.505533 0.334242 0.780055 -0.665803
C41   C     C_3   0.564806 0.426799 0.824871 0.144869
H12   H     H_    0.556891 0.435354 0.880093 0.180056
H13   H     H_    0.533356 0.459955 0.782392 0.196958
C42   C     C_3   0.679080 0.470358 0.868565 -0.336538
H14   H     H_    0.709322 0.449158 0.926659 0.262822
H15   H     H_    0.690765 0.448759 0.820827 0.256346
C43   C     C_3   0.740892 0.571708 0.901648 -0.772580
H16   H     H_    0.714127 0.595312 0.844650 0.304297
H17   H     H_    0.822699 0.600245 0.933312 0.238868
H18   H     H_    0.733913 0.595536 0.952321 0.294639
O32   O     O_3   0.106545 0.878324 0.702337 -0.674880
C44   C     C_3   0.112647 0.847728 0.635468 0.148862
H19   H     H_    0.037105 0.808131 0.569739 0.184762
H20   H     H_    0.142635 0.806151 0.653994 0.161614
C45   C     C_3   0.184050 0.927954 0.624149 -0.362285
H21   H     H_    0.153337 0.968527 0.602832 0.222372
H22   H     H_    0.259314 0.969197 0.689659 0.264495
C46   C     C_3   0.197117 0.899882 0.555146 -0.938679
H23   H     H_    0.230403 0.861267 0.576579 0.273601
H24   H     H_    0.249416 0.960004 0.548688 0.263924
H25   H     H_    0.122243 0.858596 0.488665 0.271751
O33   O     O_3   0.063873 0.713110 0.811514 -0.668375
C47   C     C_3   0.088500 0.720152 0.899069 0.059269
H26   H     H_    0.016448 0.672576 0.892209 0.162661
H27   H     H_    0.118276 0.786581 0.939104 0.146336
C48   C     C_3   0.160894 0.692258 0.947937 -0.306518
H28   H     H_    0.121329 0.621001 0.912000 0.237876
H29   H     H_    0.229734 0.731776 0.948023 0.237976
C49   C     C_3   0.194263 0.704720 0.044567 -0.800969
H30   H     H_    0.237044 0.776072 0.082620 0.270362
H31   H     H_    0.244916 0.682380 0.077421 0.294215
H32   H     H_    0.126712 0.664683 0.046280 0.261188
O34   O     O_3   0.893254 0.740631 0.574584 -0.620941
C50   C     C_3   0.872120 0.805469 0.563726 0.088603
H33   H     H_    0.943426 0.873843 0.606575 0.166057
H34   H     H_    0.818331 0.793252 0.581291 0.128025
C51   C     C_3   0.822865 0.800107 0.465856 -0.297156
H35   H     H_    0.876466 0.813526 0.447872 0.221985
H36   H     H_    0.752128 0.731953 0.421957 0.259692
C52   C     C_3   0.796188 0.867420 0.449502 -0.965393
H37   H     H_    0.741588 0.854553 0.465981 0.261442
H38   H     H_    0.760208 0.861520 0.377837 0.279330
H39   H     H_    0.866275 0.936268 0.491260 0.272716
N3    N     N_R   0.624679 0.700530 0.859402 0.237385
O35   O     O_R   0.722024 0.759934 0.918491 -0.396634
O36   O     O_R   0.584294 0.618025 0.855307 -0.397780
O37   O     O_3   0.516529 0.282055 0.163997 -0.578219
C53   C     C_3   0.443745 0.284050 0.085373 0.080009
H40   H     H_    0.461368 0.351756 0.100916 0.197453
H41   H     H_    0.363729 0.236647 0.064268 0.118017
C54   C     C_3   0.451857 0.267343 0.008250 -0.349356
H42   H     H_    0.532913 0.311433 0.031782 0.270291
H43   H     H_    0.424788 0.197007 0.985823 0.195981
C55   C     C_3   0.387572 0.285103 0.928300 -0.896954
H44   H     H_    0.305981 0.241231 0.903124 0.261753
H45   H     H_    0.394278 0.271218 0.873540 0.282984
H46   H     H_    0.414796 0.355838 0.947692 0.285957
O38   O     O_3   0.320423 0.209964 0.216455 -0.658182
C56   C     C_3   0.237133 0.119072 0.176952 0.118613
H47   H     H_    0.183706 0.113488 0.191854 0.150313
H48   H     H_    0.259124 0.074959 0.206878 0.121194
C57   C     C_3   0.179511 0.087313 0.074714 -0.368119
H49   H     H_    0.155516 0.131144 0.047779 0.233545
H50   H     H_    0.229578 0.091029 0.056056 0.216341
C58   C     C_3   0.085126 0.991424 0.031421 -0.924665
H51   H     H_    0.107500 0.946260 0.056746 0.265178
H52   H     H_    0.045234 0.970130 0.957607 0.265898
H53   H     H_    0.031647 0.986032 0.046354 0.269495
O39   O     O_3   0.597107 0.317810 0.341105 -0.605769
C59   C     C_3   0.625004 0.277880 0.406116 0.044537
H54   H     H_    0.667009 0.255731 0.397023 0.188450
H55   H     H_    0.558325 0.217042 0.398258 0.104960
C60   C     C_3   0.695987 0.345691 0.500922 -0.335305
H56   H     H_    0.763587 0.404590 0.508783 0.255419
H57   H     H_    0.655393 0.368325 0.511952 0.198629
C61   C     C_3   0.731859 0.305421 0.571847 -0.896517
H58   H     H_    0.665445 0.247413 0.566273 0.265275
H59   H     H_    0.783095 0.356074 0.639645 0.280766
H60   H     H_    0.774603 0.283632 0.563709 0.267317
N4    N     N_R   0.475411 0.715914 0.145264 0.205199
O40   O     O_R   0.397901 0.637060 0.124749 -0.373600
O41   O     O_R   0.531533 0.722920 0.118913 -0.310975
N5    N     N_R   0.403777 0.735409 0.331541 0.233290
O42   O     O_R   0.316105 0.723493 0.278789 -0.373131
O43   O     O_R   0.448445 0.761359 0.417717 -0.377939
O44   O     O_3   0.566357 0.835422 0.654361 -0.612610
C62   C     C_3   0.592744 0.922958 0.674011 0.103205
H61   H     H_    0.657859 0.963184 0.745653 0.130793
H62   H     H_    0.526439 0.922588 0.659631 0.140255
C63   C     C_3   0.624880 0.966665 0.615461 -0.298036
H63   H     H_    0.690922 0.967481 0.628671 0.225168
H64   H     H_    0.560579 0.927281 0.543669 0.265415
C64   C     C_3   0.654730 0.061944 0.634179 -0.945650
H65   H     H_    0.589154 0.062557 0.619856 0.271281
H66   H     H_    0.677470 0.091681 0.590562 0.267779
H67   H     H_    0.720204 0.103171 0.705291 0.277550
N6    N     N_R   0.930606 0.280230 0.268332 0.204007
O45   O     O_R   0.906906 0.333653 0.235785 -0.325814
O46   O     O_R   0.984628 0.299304 0.354822 -0.366785
O47   O     O_3   0.100327 0.179006 0.339859 -0.599720
C65   C     C_3   0.094453 0.116426 0.287224 0.095318
H68   H     H_    0.173643 0.137143 0.316896 0.177261
H69   H     H_    0.060483 0.112514 0.215690 0.099833
C66   C     C_3   0.034472 0.024271 0.291314 -0.349406
H70   H     H_    0.072067 0.027361 0.362286 0.236843
H71   H     H_    0.955648 0.003189 0.264005 0.237587
C67   C     C_3   0.029144 0.955349 0.237544 -0.919279
H72   H     H_    0.989151 0.949322 0.165801 0.273237
H73   H     H_    0.986288 0.889493 0.242663 0.284732
H74   H     H_    0.107224 0.974742 0.264101 0.252869

loop_
_geom_bond_atom_site_label_1
_geom_bond_atom_site_label_2
_geom_bond_distance
_ccdc_geom_bond_type
O15   C35   1.275733 A    
C54   C55   1.525635 S    
Zn8   O15   1.935504 S    
C29   C30   1.352252 D    
C20   C35   1.463471 S    
C60   H56   1.111541 S    
Zn7   O26   1.933044 S    
C12   H2    1.110135 S    
C19   H6    1.081942 S    
C19   C20   1.349877 D    
C15   C16   1.346934 D    
C53   C54   1.534817 S    
Zn6   O19   1.952391 S    
C48   H29   1.109894 S    
C44   H20   1.115619 S    
O33   C47   1.416087 S    
C31   C32   1.348081 D    
C23   C25   1.490768 S    
O6    C5    1.278254 A    
C9    C10   1.551513 S    
C58   H51   1.110995 S    
C50   H33   1.114013 S    
C28   C39   1.430820 S    
Zn1   O1    1.956515 S    
C11   C12   1.544666 S    
C15   H4    1.085918 S    
C53   H41   1.115929 S    
C55   H44   1.110854 S    
C9    C40   1.467039 S    
C17   C18   1.348448 D    
O25   C35   1.278447 A    
C64   H66   1.110526 S    
Zn5   O23   1.934962 S    
O24   C38   1.278374 A    
C54   H42   1.111706 S    
C55   H46   1.110832 S    
C42   C43   1.524137 S    
O8    C5    1.263743 A    
O9    C6    1.273397 A    
C56   C57   1.533913 S    
C3    C34   1.456284 S    
N6    O46   1.301697 A    
C22   O31   1.409658 S    
C48   H28   1.111578 S    
O31   C41   1.412715 S    
C49   H32   1.110759 S    
Zn3   O8    1.952142 S    
O13   C2    1.277224 A    
C63   H63   1.111718 S    
O22   C40   1.273172 A    
O18   C38   1.284487 A    
Zn5   O16   1.934374 S    
C16   C37   1.460875 S    
C52   H37   1.110971 S    
Zn7   O14   1.959379 S    
C42   H15   1.109593 S    
C67   H74   1.111058 S    
C45   H21   1.111921 S    
C7    C10   1.542382 S    
Zn6   O17   1.938845 S    
N2    O30   1.302005 A    
Zn2   O12   1.930607 S    
C59   H55   1.117565 S    
C34   H11   1.085114 S    
C27   C29   1.453607 S    
C62   C63   1.528178 S    
C7    N3    1.454441 S    
C61   H59   1.110432 S    
Zn8   O14   1.935835 S    
C67   H72   1.110843 S    
C41   H13   1.108045 S    
C28   O37   1.391243 S    
C45   H22   1.105518 S    
C60   H57   1.110325 S    
Zn6   O25   1.929217 S    
C66   C67   1.526440 S    
C44   H19   1.108263 S    
C27   H9    1.085962 S    
O39   C59   1.417720 S    
C55   H45   1.110814 S    
C61   H60   1.110839 S    
O2    C1    1.277560 A    
Zn5   O14   1.956516 S    
C23   O32   1.389155 S    
C13   H3    1.110072 S    
C16   N6    1.442549 S    
Zn6   O14   1.948737 S    
O10   C3    1.283948 A    
C15   C17   1.475023 S    
O16   C36   1.285005 A    
C7    C8    1.524072 S    
C57   C58   1.526081 S    
N5    O43   1.301542 A    
C32   C36   1.453147 S    
O23   C37   1.286504 A    
C18   H5    1.085483 S    
O26   C36   1.283668 A    
N1    O27   1.300215 A    
C66   H70   1.111791 S    
C64   H67   1.110855 S    
C5    C30   1.424915 S    
C21   H7    1.086447 S    
C50   C51   1.527915 S    
C65   H69   1.118174 S    
C8    C9    1.530104 S    
Zn7   O18   1.930714 S    
Zn8   O20   1.954016 S    
C30   O39   1.390543 S    
Zn7   O21   1.946931 S    
C46   H23   1.111230 S    
C33   C34   1.349896 D    
C4    C22   1.482244 S    
C63   C64   1.526933 S    
C6    C14   1.472302 S    
C32   N4    1.441386 S    
C12   C13   1.559323 S    
Zn3   O5    1.929110 S    
C59   C60   1.532596 S    
C43   H16   1.110710 S    
O11   C4    1.272776 A    
C56   H47   1.108316 S    
C47   C48   1.533659 S    
C42   H14   1.109713 S    
C26   H8    1.083123 S    
C49   H30   1.110896 S    
C41   H12   1.111015 S    
O4    C3    1.287468 A    
C27   C28   1.335080 D    
C53   H40   1.110948 S    
Zn4   O7    1.954164 S    
C46   H25   1.111049 S    
O20   C40   1.271330 A    
C57   H49   1.111517 S    
O19   C39   1.268364 A    
C2    C18   1.453352 S    
C52   H38   1.110506 S    
C66   H71   1.111021 S    
C61   H58   1.111123 S    
C43   H17   1.110469 S    
C41   C42   1.540221 S    
C65   H68   1.111065 S    
C58   H53   1.110858 S    
C17   O47   1.388311 S    
O34   C50   1.414809 S    
C19   C21   1.467323 S    
Zn4   O2    1.942485 S    
Zn1   O9    1.943777 S    
Zn2   O6    1.946831 S    
Zn3   O1    1.948737 S    
C10   C11   1.547129 S    
N4    O40   1.301707 A    
C1    C26   1.455325 S    
C29   O38   1.400663 S    
C24   O33   1.397194 S    
C59   H54   1.111032 S    
C8    C13   1.542282 S    
C54   H43   1.110555 S    
Zn8   O24   1.942488 S    
C47   H27   1.114461 S    
C50   H34   1.114240 S    
C63   H64   1.111177 S    
C10   H1    1.110138 S    
Zn1   O3    1.934960 S    
C57   H50   1.109073 S    
C11   C14   1.535838 S    
Zn2   O4    1.932944 S    
C21   C22   1.344034 D    
O21   C39   1.275778 A    
N3    O35   1.300287 A    
C23   C24   1.362207 D    
O37   C53   1.416738 S    
C60   C61   1.526367 S    
C25   O34   1.387321 S    
O3    C2    1.285506 A    
C24   C38   1.475248 S    
C45   C46   1.526349 S    
C20   N2    1.448704 S    
O12   C1    1.279312 A    
C51   C52   1.526325 S    
Zn4   O11   1.935504 S    
C51   H35   1.111736 S    
C7    C14   1.531332 S    
N5    O42   1.300907 A    
O47   C65   1.416294 S    
C65   C66   1.528973 S    
O5    C4    1.289589 A    
C64   H65   1.111021 S    
C13   C14   1.548569 S    
Zn5   O22   1.943820 S    
C52   H39   1.110799 S    
Zn4   O1    1.935985 S    
O7    C6    1.273785 A    
C8    N1    1.459059 S    
N4    O41   1.301028 A    
Zn3   O13   1.939044 S    
N1    O28   1.300155 A    
C56   H48   1.113309 S    
N6    O45   1.301158 A    
O17   C37   1.278751 A    
C46   H24   1.110435 S    
C49   H31   1.110277 S    
C31   H10   1.087891 S    
C62   H61   1.113585 S    
Zn2   O1    1.959378 S    
C31   C33   1.469848 S    
C43   H18   1.110437 S    
C9    C12   1.551690 S    
C58   H52   1.110448 S    
C25   C26   1.348805 D    
N3    O36   1.299021 A    
O32   C44   1.417495 S    
C67   H73   1.110325 S    
C33   N5    1.437410 S    
O38   C56   1.415847 S    
Zn1   O10   1.934629 S    
C62   H62   1.114024 S    
N2    O29   1.301194 A    
C11   O44   1.411507 S    
C48   C49   1.525879 S    
C44   C45   1.523085 S    
C47   H26   1.111179 S    
O44   C62   1.411313 S    
C51   H36   1.111174 S    
