data_mof_unit_23604.cif
_audit_creation_date              2012-12-10T18:49:58-0500
_audit_creation_method            fapswitch 2.2
_symmetry_space_group_name_H-M    P1
_symmetry_Int_Tables_number       1
_space_group_crystal_system       triclinic
_cell_length_a                    10.701218
_cell_length_b                    9.882887
_cell_length_c                    10.70464
_cell_angle_alpha                 90.351521
_cell_angle_beta                  91.436837
_cell_angle_gamma                 90.160775
_cell_volume                      1131.72902897

loop_
_atom_site_label
_atom_site_type_symbol
_atom_type_description
_atom_site_fract_x
_atom_site_fract_y
_atom_site_fract_z
_atom_type_partial_charge
C1    C     C_R   0.259994 0.499870 0.499897 0.861891
C2    C     C_3   0.634542 0.447705 0.932019 0.284505
C3    C     C_R   0.064508 0.382160 0.534228 -0.143141
C4    C     C_R   0.063297 0.617623 0.467035 -0.165209
C5    C     C_R   0.936444 0.382392 0.534712 -0.144577
C6    C     C_R   0.935325 0.617819 0.467324 -0.162300
C7    C     C_R   0.872381 0.500152 0.500920 -0.022944
C8    C     C_R   0.127455 0.499778 0.500261 -0.033893
C9    C     C_R   0.596090 0.072383 0.555111 -0.130046
C10   C     C_R   0.595453 0.928846 0.556318 -0.146947
C11   C     C_R   0.404518 0.927901 0.442780 0.505751
C12   C     C_R   0.403111 0.070330 0.445239 0.492902
C13   C     C_R   0.500827 0.499861 0.257366 0.858704
C14   C     C_R   0.739908 0.500101 0.500373 0.900588
C15   C     C_R   0.502662 0.500525 0.742094 0.904613
C16   C     C_3   0.482265 0.648052 0.069997 0.018811
C17   C     C_3   0.399625 0.403410 0.064953 0.008379
C18   C     C_3   0.481356 0.646918 0.927519 -0.427870
C19   C     C_3   0.394885 0.414057 0.922288 -0.440477
C20   C     C_3   0.633225 0.451453 0.076669 -0.380874
C21   C     C_3   0.504277 0.500264 0.120513 -0.043981
C22   C     C_3   0.505155 0.501391 0.878172 -0.018181
H1    H     H_    0.389396 0.683875 0.101064 0.145859
H2    H     H_    0.307599 0.434755 0.101625 0.126571
H3    H     H_    0.389236 0.684738 0.891830 0.184648
H4    H     H_    0.304349 0.460164 0.891723 0.163873
H5    H     H_    0.552364 0.718132 0.891952 0.244593
H6    H     H_    0.396197 0.312379 0.877612 0.240405
H7    H     H_    0.707970 0.519099 0.114984 0.197500
H8    H     H_    0.654690 0.350386 0.116334 0.218416
H9    H     H_    0.113908 0.290929 0.561278 0.186938
H10   H     H_    0.111527 0.708842 0.439872 0.208940
H11   H     H_    0.887949 0.291304 0.562194 0.168193
H12   H     H_    0.885989 0.709083 0.440216 0.177580
H13   H     H_    0.673645 0.126785 0.598385 0.188818
H14   H     H_    0.671979 0.875349 0.601532 0.186756
N1    N     N_R   0.499970 0.857200 0.499970 -0.170525
N2    N     N_R   0.499970 0.142800 0.499970 -0.171847
O1    O     O_R   0.316750 0.614620 0.499990 -0.625345
O2    O     O_R   0.316750 0.385380 0.499990 -0.631100
O3    O     O_R   0.499970 0.614670 0.314790 -0.626869
O4    O     O_R   0.499970 0.385330 0.314790 -0.613937
O5    O     O_R   0.683220 0.614710 0.500010 -0.615345
O6    O     O_R   0.683220 0.385290 0.500010 -0.622205
O7    O     O_R   0.500010 0.614660 0.685200 -0.615034
O8    O     O_R   0.500010 0.385340 0.685200 -0.598962
Zn1   Zn    Zn3+2 0.499980 0.653120 0.500000 0.977092
Zn2   Zn    Zn3+2 0.499980 0.346880 0.500000 0.982537
I1    I     I_    0.616664 0.802238 0.133913 -0.276535
I2    I     I_    0.418351 0.188898 0.106914 -0.270450
O9    O     O_3   0.309484 0.863629 0.377117 -0.730262
H15   H     H_    0.343242 0.778621 0.343862 0.364300
O10   O     O_3   0.303153 0.132879 0.387579 -0.709118
H16   H     H_    0.333366 0.219753 0.355930 0.380145
I3    I     I_    0.789903 0.567429 0.867529 -0.340355
I4    I     I_    0.681128 0.243947 0.873157 -0.300982

loop_
_geom_bond_atom_site_label_1
_geom_bond_atom_site_label_2
_ccdc_geom_bond_type
C17   I2    S    
C2    C22   S    
O4    Zn2   S    
C11   C12   A    
C6    C7    A    
N1    Zn1   S    
C1    C8    S    
C9    C10   A    
C1    O1    A    
N2    Zn2   S    
C12   O10   S    
C15   O8    A    
C4    C8    A    
C6    H12   S    
C13   O3    A    
O3    Zn1   S    
C13   C21   S    
C20   H8    S    
O10   H16   S    
C16   I1    S    
C3    H9    S    
C19   H6    S    
C16   C21   S    
C18   H3    S    
C2    I4    S    
C10   N1    A    
C14   O6    A    
C13   O4    A    
C17   C19   S    
C2    I3    S    
C16   H1    S    
C5    C7    A    
C20   H7    S    
O7    Zn1   S    
C12   N2    A    
O8    Zn2   S    
C4    C6    A    
C11   O9    S    
C15   O7    A    
C2    C20   S    
C4    H10   S    
C17   H2    S    
O6    Zn2   S    
C19   C22   S    
C20   C21   S    
C16   C18   S    
C3    C8    A    
C11   N1    A    
C19   H4    S    
O2    Zn2   S    
C9    N2    A    
C9    H13   S    
C10   H14   S    
C1    O2    A    
C18   C22   S    
O1    Zn1   S    
O5    Zn1   S    
C15   C22   S    
C7    C14   S    
C18   H5    S    
O9    H15   S    
C5    H11   S    
C14   O5    A    
C3    C5    A    
C17   C21   S    
