data_mof_unit_20394.cif
_audit_creation_date              2012-12-10T17:49:42-0500
_audit_creation_method            fapswitch 2.2
_symmetry_space_group_name_H-M    P1
_symmetry_Int_Tables_number       1
_space_group_crystal_system       triclinic
_cell_length_a                    10.492294
_cell_length_b                    10.720448
_cell_length_c                    9.917096
_cell_angle_alpha                 89.030147
_cell_angle_beta                  90.442277
_cell_angle_gamma                 91.771239
_cell_volume                      1114.77409573

loop_
_atom_site_label
_atom_site_type_symbol
_atom_type_description
_atom_site_fract_x
_atom_site_fract_y
_atom_site_fract_z
_atom_type_partial_charge
C1    C     C_R   0.508803 0.260103 0.502181 0.860815
C2    C     C_R   0.500433 0.057698 0.630817 0.048087
C3    C     C_R   0.516112 0.126161 0.507942 -0.110125
C4    C     C_R   0.257463 0.499254 0.499439 0.841616
C5    C     C_R   0.518331 0.065086 0.384904 -0.231067
C6    C     C_R   0.500890 0.938190 0.381247 -0.224925
C7    C     C_R   0.472631 0.871734 0.499937 -0.114951
C8    C     C_R   0.327647 0.341154 0.141228 -0.169407
C9    C     C_R   0.241268 0.264663 0.071516 -0.221757
C10   C     C_R   0.242748 0.263306 0.931971 -0.179024
C11   C     C_R   0.329690 0.339414 0.861305 -0.141811
C12   C     C_3   0.960573 0.601112 0.432909 -0.178178
C13   C     C_R   0.415765 0.421133 0.928372 0.153402
C14   C     C_R   0.415311 0.421574 0.072932 0.168874
C15   C     C_R   0.580512 0.575543 0.070747 -0.127471
C16   C     C_R   0.487527 0.738948 0.499383 0.875799
C17   C     C_R   0.580356 0.575635 0.927661 -0.124517
C18   C     C_R   0.742589 0.500171 0.500595 0.867205
C19   C     C_3   0.039719 0.397378 0.567269 -0.184685
C20   C     C_3   0.953598 0.395646 0.440287 -0.183762
C21   C     C_3   0.877764 0.499602 0.501762 0.028246
C22   C     C_3   0.961166 0.501293 0.628916 -0.132826
C23   C     C_3   0.039068 0.497171 0.371254 -0.141725
C24   C     C_3   0.046608 0.602832 0.559897 -0.176730
C25   C     C_3   0.524843 0.088176 0.014321 -0.954641
C26   C     C_3   0.122410 0.498949 0.498388 0.038927
C27   C     C_R   0.529149 0.105701 0.760309 -0.177527
C28   C     C_R   0.491203 0.040111 0.877346 0.267901
C29   C     C_R   0.421237 0.928115 0.865742 -0.168645
C30   C     C_R   0.402682 0.875600 0.739514 -0.217488
C31   C     C_R   0.455929 0.934000 0.622943 0.097953
H1    H     H_    0.910853 0.311438 0.391876 0.132476
H2    H     H_    0.645949 0.637568 0.873315 0.151577
H3    H     H_    0.077002 0.314661 0.621746 0.123825
H4    H     H_    0.925446 0.502975 0.733953 0.142017
H5    H     H_    0.089512 0.686990 0.608294 0.126177
H6    H     H_    0.923506 0.683946 0.378502 0.130776
H7    H     H_    0.074952 0.495271 0.266278 0.148261
H8    H     H_    0.535521 0.115600 0.291324 0.184001
H9    H     H_    0.586943 0.189902 0.772592 0.170763
H10   H     H_    0.572738 0.181960 0.008771 0.243343
H11   H     H_    0.436889 0.094427 0.074695 0.255848
H12   H     H_    0.385512 0.879000 0.954744 0.146134
H13   H     H_    0.589901 0.022650 0.065812 0.232148
H14   H     H_    0.348164 0.788441 0.734394 0.168403
H15   H     H_    0.512045 0.892226 0.285758 0.171465
H16   H     H_    0.646277 0.637350 0.123838 0.144090
H17   H     H_    0.323454 0.333658 0.248202 0.208557
H18   H     H_    0.174561 0.204163 0.126367 0.148805
H19   H     H_    0.177266 0.201727 0.878023 0.142585
H20   H     H_    0.327499 0.330589 0.754591 0.202557
N1    N     N_R   0.498800 0.498800 0.142780 -0.120890
N2    N     N_R   0.498760 0.498720 0.857170 -0.126739
O1    O     O_R   0.500000 0.316780 0.614690 -0.652417
O2    O     O_R   0.499990 0.316750 0.385360 -0.637113
O3    O     O_R   0.313960 0.499980 0.614650 -0.643490
O4    O     O_R   0.313940 0.499960 0.385310 -0.643880
O5    O     O_R   0.500010 0.683250 0.614640 -0.619012
O6    O     O_R   0.500000 0.683220 0.385310 -0.620034
O7    O     O_R   0.686060 0.500040 0.614690 -0.625981
O8    O     O_R   0.686040 0.500020 0.385350 -0.616567
Zn1   Zn    Zn3+2 0.500010 0.500020 0.653130 0.918285
Zn2   Zn    Zn3+2 0.499990 0.499980 0.346870 0.926462

loop_
_geom_bond_atom_site_label_1
_geom_bond_atom_site_label_2
_ccdc_geom_bond_type
C25   H11   S    
O5    Zn1   S    
C4    C26   S    
C1    O1    A    
C8    H17   S    
C18   O8    A    
C6    C7    A    
C8    C9    A    
C18   C21   S    
C6    H15   S    
C9    C10   A    
C12   C24   S    
C30   H14   S    
O6    Zn2   S    
C19   C20   S    
C20   C23   S    
C15   H16   S    
C27   H9    S    
O3    Zn1   S    
O8    Zn2   S    
C2    C3    A    
C1    O2    A    
C9    H18   S    
C24   H5    S    
C13   C14   A    
C4    O3    A    
C25   C28   S    
C22   H4    S    
C11   C13   A    
C12   C23   S    
C2    C27   A    
C17   H2    S    
C25   H13   S    
C18   O7    A    
C7    C16   S    
C24   C26   S    
O4    Zn2   S    
C16   O5    A    
C13   N2    A    
C5    H8    S    
C5    C6    A    
C22   C24   S    
C7    C31   A    
C10   C11   A    
C14   N1    A    
C29   C30   A    
C23   H7    S    
C17   N2    A    
C27   C28   A    
C19   C22   S    
C11   H20   S    
C20   C21   S    
N2    Zn1   S    
O7    Zn1   S    
C20   H1    S    
C23   C26   S    
C25   H10   S    
C12   H6    S    
C15   C17   A    
C19   C26   S    
C30   C31   A    
C28   C29   A    
C8    C14   A    
O1    Zn1   S    
C19   H3    S    
C3    C5    A    
C15   N1    A    
C21   C22   S    
C12   C21   S    
N1    Zn2   S    
C29   H12   S    
C4    O4    A    
O2    Zn2   S    
C2    C31   A    
C1    C3    S    
C16   O6    A    
C10   H19   S    
