data_mof_unit_28754.cif
_audit_creation_date              2012-12-10T17:07:10-0500
_audit_creation_method            fapswitch 2.2
_symmetry_space_group_name_H-M    P1
_symmetry_Int_Tables_number       1
_space_group_crystal_system       triclinic
_cell_length_a                    17.413624
_cell_length_b                    10.795802
_cell_length_c                    9.756948
_cell_angle_alpha                 109.642609
_cell_angle_beta                  94.613684
_cell_angle_gamma                 91.762704
_cell_volume                      1718.64446207

loop_
_atom_site_label
_atom_site_type_symbol
_atom_type_description
_atom_site_fract_x
_atom_site_fract_y
_atom_site_fract_z
_atom_type_partial_charge
C1    C     C_R   0.489666 0.253019 0.444385 0.844281
C2    C     C_R   0.502030 0.746990 0.556599 0.790264
C3    C     C_2   0.475897 0.111286 0.421327 0.023058
C4    C     C_2   0.495916 0.888469 0.580519 0.023594
C5    C     C_2   0.437906 0.069987 0.516775 -0.032624
C6    C     C_2   0.438328 0.930312 0.506717 -0.012974
C7    C     C_2   0.506058 0.511728 0.080334 -0.012320
C8    C     C_2   0.493449 0.489296 0.920061 -0.056256
C9    C     C_R   0.351949 0.502698 0.519608 0.916456
C10   C     C_R   0.648123 0.500010 0.480879 0.880770
C11   C     C_R   0.268489 0.506938 0.530993 -0.158227
C12   C     C_R   0.731757 0.499018 0.469796 -0.176874
C13   C     C_R   0.216780 0.431022 0.409964 -0.070192
C14   C     C_R   0.782989 0.579447 0.588969 -0.075884
C15   C     C_R   0.138615 0.452278 0.411864 -0.257212
C16   C     C_R   0.861714 0.562832 0.586580 -0.260508
C17   C     C_R   0.109641 0.539047 0.535272 0.097692
C18   C     C_R   0.891341 0.475104 0.464607 0.091405
C19   C     C_R   0.159464 0.608731 0.660115 0.242282
C20   C     C_R   0.841742 0.400279 0.341693 0.228403
C21   C     C_R   0.239745 0.594838 0.657502 0.158103
C22   C     C_R   0.761238 0.409945 0.345152 0.172537
C23   C     C_2   0.026626 0.558345 0.532472 -0.186255
C24   C     C_2   0.974526 0.457386 0.467831 -0.190699
Cu1   Cu    Cu3+1 0.513640 0.521550 0.643210 0.982761
Cu2   Cu    Cu3+1 0.486360 0.478450 0.356790 1.001360
H1    H     H_    0.993039 0.359053 0.414186 0.186362
H2    H     H_    0.008443 0.656758 0.586743 0.185733
H3    H     H_    0.900272 0.619248 0.681402 0.184644
H4    H     H_    0.099797 0.399479 0.315887 0.183840
H5    H     H_    0.448932 0.416763 0.853518 0.178599
H6    H     H_    0.550205 0.584995 0.147239 0.165968
H7    H     H_    0.575594 0.623319 0.924188 0.200138
H8    H     H_    0.424742 0.376128 0.075574 0.210951
N1    N     N_2   0.465840 0.446060 0.141630 -0.274850
N2    N     N_2   0.534160 0.553940 0.858370 -0.287113
O1    O     O_R   0.507280 0.332200 0.576490 -0.582322
O2    O     O_R   0.492720 0.667800 0.423510 -0.548026
O3    O     O_R   0.484240 0.295800 0.334620 -0.558081
O4    O     O_R   0.515760 0.704200 0.665380 -0.561950
O5    O     O_R   0.399260 0.520290 0.634950 -0.544178
O6    O     O_R   0.600740 0.479710 0.365050 -0.553217
O7    O     O_R   0.376220 0.483890 0.393080 -0.567549
O8    O     O_R   0.623780 0.516110 0.606920 -0.566598
C25   C     C_2   0.241545 0.325388 0.281253 0.893377
O9    O     O_2   0.210095 0.307797 0.158917 -0.604174
O10   O     O_R   0.298881 0.243090 0.300218 -0.726757
H9    H     H_    0.310321 0.174951 0.204653 0.326959
C26   C     C_2   0.756952 0.684491 0.716410 0.877408
O11   O     O_2   0.789656 0.706451 0.838729 -0.607460
O12   O     O_R   0.696909 0.761449 0.696192 -0.779981
H10   H     H_    0.685129 0.829854 0.791273 0.324317
N3    N     N_2   0.709708 0.329520 0.224962 -0.409123
H11   H     H_    0.727303 0.317486 0.123138 0.257410
C27   C     C_3   0.681689 0.207464 0.239496 -0.681093
H12   H     H_    0.729310 0.140371 0.233864 0.215800
H13   H     H_    0.636077 0.158302 0.149602 0.225708
H14   H     H_    0.656528 0.226769 0.345192 0.216027
N4    N     N_2   0.291393 0.666917 0.782086 -0.432698
H15   H     H_    0.272004 0.674232 0.881419 0.257059
C28   C     C_3   0.323736 0.790929 0.779034 -0.566510
H16   H     H_    0.277639 0.859862 0.779560 0.236331
H17   H     H_    0.354746 0.774901 0.680384 0.221951
H18   H     H_    0.365710 0.836392 0.876471 0.214955
N5    N     N_2   0.128301 0.693997 0.786399 -0.446846
H19   H     H_    0.161745 0.778782 0.843833 0.266664
C29   C     C_3   0.098702 0.628070 0.879885 -0.668023
H20   H     H_    0.146226 0.583900 0.927073 0.228258
H21   H     H_    0.053860 0.549580 0.817611 0.245377
H22   H     H_    0.071992 0.700390 0.970560 0.240803
N6    N     N_2   0.873415 0.313462 0.217004 -0.449733
H23   H     H_    0.841443 0.226251 0.163124 0.263248
C30   C     C_3   0.900439 0.376581 0.118913 -0.669486
H24   H     H_    0.851339 0.415909 0.069727 0.227214
H25   H     H_    0.927903 0.303663 0.029920 0.238179
H26   H     H_    0.944072 0.458280 0.178000 0.246991
C31   C     C_2   0.370648 0.843922 0.420870 0.781628
O13   O     O_2   0.306545 0.864639 0.463219 -0.592340
O14   O     O_R   0.379119 0.745172 0.287832 -0.728371
H27   H     H_    0.328472 0.694833 0.239250 0.331153
C32   C     C_2   0.388695 0.154941 0.624140 0.858234
O15   O     O_2   0.376121 0.128974 0.733279 -0.617906
O16   O     O_R   0.352030 0.258003 0.595932 -0.743605
H28   H     H_    0.318069 0.304747 0.674917 0.329805
N7    N     N_2   0.555602 0.980001 0.670149 -0.419373
H29   H     H_    0.610014 0.950986 0.644471 0.276201
C33   C     C_3   0.548964 0.018946 0.825569 -0.674410
H30   H     H_    0.592963 0.099908 0.884471 0.225472
H31   H     H_    0.558769 0.934859 0.864841 0.224223
H32   H     H_    0.491194 0.055072 0.851694 0.267236
N8    N     N_2   0.508381 0.017198 0.303277 -0.424750
H33   H     H_    0.563991 0.044000 0.291258 0.241930
C34   C     C_3   0.459967 0.976262 0.166271 -0.632049
H34   H     H_    0.485443 0.892851 0.085448 0.223549
H35   H     H_    0.455773 0.058771 0.122607 0.220951
H36   H     H_    0.401136 0.943105 0.180861 0.254983

loop_
_geom_bond_atom_site_label_1
_geom_bond_atom_site_label_2
_ccdc_geom_bond_type
C33   H30   S    
C34   H34   S    
C10   O6    A    
C30   H24   S    
C24   H1    S    
C27   H12   S    
C32   O15   D    
C7    C8    S    
C31   O13   D    
C17   C23   S    
C18   C24   S    
C19   C21   A    
C21   N4    S    
Cu1   O4    S    
C5    C6    S    
Cu2   O3    S    
C14   C26   S    
C12   C22   A    
H7    N2    S    
C3    N8    S    
H8    N1    S    
C8    N2    D    
C25   O10   S    
C28   H17   S    
Cu1   O1    S    
C33   H32   S    
O16   H28   S    
C26   O12   S    
C23   C24   D    
C20   N6    S    
C1    O1    A    
C31   O14   S    
N4    H15   S    
C34   H35   S    
C30   H25   S    
Cu1   O8    S    
C32   O16   S    
Cu2   O7    S    
C22   N3    S    
N3    C27   S    
N4    C28   S    
C9    O7    A    
N7    C33   S    
C10   O8    A    
C29   H20   S    
C4    C6    D    
Cu1   O5    S    
N8    H33   S    
N6    C30   S    
Cu2   O2    S    
C6    C31   S    
C4    N7    S    
N5    C29   S    
Cu1   Cu2   S    
N7    H29   S    
C11   C21   A    
O12   H10   S    
C29   H21   S    
C28   H18   S    
C2    C4    S    
N8    C34   S    
C5    C32   S    
C2    O2    A    
O10   H9    S    
C23   H2    S    
C9    C11   S    
C10   C12   S    
C12   C14   A    
N5    H19   S    
C34   H36   S    
C27   H13   S    
C30   H26   S    
C14   C16   A    
C25   O9    D    
Cu2   O6    S    
C15   H4    S    
C15   C17   A    
C7    H6    S    
C8    H5    S    
C7    N1    D    
C20   C22   A    
C3    C5    D    
N3    H11   S    
C9    O5    A    
C29   H22   S    
C13   C15   A    
C16   H3    S    
N6    H23   S    
C13   C25   S    
C11   C13   A    
C17   C19   A    
C19   N5    S    
C18   C20   A    
C28   H16   S    
C1    O3    A    
Cu1   N2    S    
O14   H27   S    
C2    O4    A    
Cu2   N1    S    
C16   C18   A    
C26   O11   D    
C27   H14   S    
C33   H31   S    
C1    C3    S    
