data_mof_unit_18653.cif
_audit_creation_date              2012-12-10T16:44:17-0500
_audit_creation_method            fapswitch 2.2
_symmetry_space_group_name_H-M    P1
_symmetry_Int_Tables_number       1
_space_group_crystal_system       triclinic
_cell_length_a                    7.486624
_cell_length_b                    8.69837
_cell_length_c                    13.462352
_cell_angle_alpha                 94.857166
_cell_angle_beta                  78.559036
_cell_angle_gamma                 103.035187
_cell_volume                      836.393257215

loop_
_atom_site_label
_atom_site_type_symbol
_atom_type_description
_atom_site_fract_x
_atom_site_fract_y
_atom_site_fract_z
_atom_type_partial_charge
C1    C     C_R   0.543053 0.799573 0.506846 0.760252
C2    C     C_R   0.432084 0.454267 0.967494 0.165301
C3    C     C_R   0.471440 0.519938 0.871076 0.093108
C4    C     C_R   0.565569 0.497667 0.031690 -0.006670
C5    C     C_R   0.749121 0.578691 0.992472 -0.031078
C6    C     C_R   0.783587 0.648697 0.899043 -0.164585
C7    C     C_R   0.640973 0.629898 0.843725 -0.205249
C8    C     C_R   0.518750 0.471358 0.135366 -0.324625
C9    C     C_R   0.844822 0.532503 0.147634 0.403765
C10   C     C_R   0.343275 0.470023 0.803599 -0.088081
C11   C     C_2   0.560952 0.966671 0.521665 0.315116
C12   C     C_R   0.401211 0.493716 0.693927 0.737728
C13   C     C_2   0.436957 0.032881 0.491200 -0.494760
C14   C     C_R   0.455694 0.200234 0.496760 0.869940
C15   C     C_R   0.598533 0.501703 0.306226 0.818709
C16   C     C_R   0.891622 0.591371 0.049384 0.416712
C17   C     C_R   0.655831 0.500255 0.195300 -0.239605
C18   C     C_R   0.172136 0.366839 0.836764 -0.139488
C19   C     C_R   0.135731 0.300362 0.930801 -0.147328
C20   C     C_R   0.266796 0.339352 0.994118 -0.120515
Cu1   Cu    Cu3+1 0.321300 0.483160 0.488710 1.006175
Cu2   Cu    Cu3+1 0.678700 0.516840 0.511290 1.006455
H1    H     H_    0.992992 0.389125 0.416022 0.190864
H2    H     H_    0.374580 0.436374 0.170883 0.208892
H3    H     H_    0.241936 0.273037 0.061464 0.101611
H4    H     H_    0.008911 0.212538 0.952667 0.112843
H5    H     H_    0.665534 0.699950 0.778537 0.143620
N1    N     N_2   0.947230 0.542220 0.528320 0.101244
N2    N     N_2   0.052770 0.457780 0.471680 -0.122110
O1    O     O_R   0.383920 0.714220 0.492660 -0.578623
O2    O     O_R   0.685730 0.742660 0.511730 -0.592016
O3    O     O_R   0.275440 0.478800 0.636790 -0.520508
O4    O     O_R   0.577250 0.507240 0.655860 -0.578937
O5    O     O_R   0.314270 0.257340 0.488270 -0.593156
O6    O     O_R   0.616080 0.285780 0.507340 -0.539633
O7    O     O_R   0.422750 0.492760 0.344140 -0.590405
O8    O     O_R   0.724560 0.521200 0.363210 -0.574154
O9    O     O_3   0.983439 0.507367 0.194946 -0.548979
C21   C     C_3   0.955053 0.342962 0.208309 -0.297906
H6    H     H_    0.833323 0.299659 0.268198 0.152630
H7    H     H_    0.077873 0.318406 0.232995 0.158826
H8    H     H_    0.934701 0.271756 0.137308 0.134448
H9    H     H_    0.322544 0.962840 0.457882 0.137738
O10   O     O_3   0.018759 0.618788 0.607428 -0.451625
C22   C     C_3   0.005882 0.777421 0.607816 -0.063452
H10   H     H_    0.867459 0.793527 0.647459 0.142881
H11   H     H_    0.035781 0.822734 0.530093 0.156005
H12   H     H_    0.110322 0.850247 0.650219 0.099425
H13   H     H_    0.917869 0.723269 0.870519 0.177862
O11   O     O_3   0.076222 0.644966 0.004955 -0.554623
C23   C     C_3   0.141275 0.796669 0.046673 -0.320378
H14   H     H_    0.146086 0.792829 0.128435 0.197632
H15   H     H_    0.054959 0.880580 0.035712 0.126128
H16   H     H_    0.285771 0.842566 0.006592 0.183770
H17   H     H_    0.072775 0.326698 0.786586 0.152120
O12   O     O_3   0.709217 0.053531 0.564004 -0.550492
C24   C     C_3   0.652568 0.059633 0.670420 -0.285151
H18   H     H_    0.773071 0.123413 0.704715 0.180631
H19   H     H_    0.607417 0.939353 0.701216 0.109596
H20   H     H_    0.538806 0.125784 0.693722 0.162103

loop_
_geom_bond_atom_site_label_1
_geom_bond_atom_site_label_2
_ccdc_geom_bond_type
C14   O5    A    
C2    C4    A    
C6    C7    A    
Cu1   O1    S    
O12   C24   S    
C19   C20   A    
C1    C11   S    
C13   H9    S    
C4    C8    A    
C23   H16   S    
C2    C3    A    
C21   H7    S    
C3    C10   A    
Cu2   N1    S    
C13   C14   S    
C12   O3    A    
Cu2   O6    S    
C11   C13   D    
C24   H18   S    
O9    C21   S    
C10   C12   S    
C18   H17   S    
C10   C18   A    
H1    N2    S    
C9    C17   A    
N1    N2    D    
C8    H2    S    
C9    C16   A    
C16   O11   S    
O11   C23   S    
C21   H8    S    
C3    C7    A    
C22   H11   S    
C6    H13   S    
C5    C6    A    
Cu1   O3    S    
C24   H19   S    
C20   H3    S    
C2    C20   A    
C23   H14   S    
C22   H10   S    
C15   O7    A    
C1    O2    A    
C7    H5    S    
O10   C22   S    
C19   H4    S    
N1    O10   S    
C15   C17   S    
C18   C19   A    
Cu2   O2    S    
C22   H12   S    
C21   H6    S    
Cu1   O7    S    
Cu2   O4    S    
C1    O1    A    
C5    C16   A    
C9    O9    S    
Cu1   O5    S    
C23   H15   S    
C12   O4    A    
Cu1   Cu2   S    
Cu2   O8    S    
Cu1   N2    S    
C14   O6    A    
C15   O8    A    
C11   O12   S    
C8    C17   A    
C4    C5    A    
C24   H20   S    
