data_mof_unit_9234.cif
_audit_creation_date              2012-12-11T17:44:07-0500
_audit_creation_method            fapswitch 2.2
_symmetry_space_group_name_H-M    P1
_symmetry_Int_Tables_number       1
_space_group_crystal_system       triclinic
_cell_length_a                    20.221123
_cell_length_b                    22.807687
_cell_length_c                    6.934256
_cell_angle_alpha                 90.00881
_cell_angle_beta                  86.463761
_cell_angle_gamma                 89.999872
_cell_volume                      3191.96918549

loop_
_atom_site_label
_atom_site_type_symbol
_atom_type_description
_atom_site_fract_x
_atom_site_fract_y
_atom_site_fract_z
_atom_type_partial_charge
O1    O     O_R   0.751270 0.447300 0.600030 -0.540428
O2    O     O_R   0.248730 0.947300 0.399970 -0.540497
O3    O     O_R   0.613530 0.440160 0.952150 -0.549057
O4    O     O_R   0.386470 0.940160 0.047850 -0.549074
O5    O     O_R   0.613050 0.552700 0.122560 -0.539500
O6    O     O_R   0.386950 0.052700 0.877440 -0.539441
C1    C     C_R   0.591625 0.425359 0.787636 0.681502
C2    C     C_R   0.408373 0.925350 0.212329 0.681298
O7    O     O_R   0.750780 0.440350 0.929820 -0.540203
O8    O     O_R   0.249220 0.940350 0.070180 -0.540182
O9    O     O_R   0.751280 0.552900 0.100070 -0.506014
O10   O     O_R   0.248720 0.052900 0.899930 -0.505969
C3    C     C_R   0.773834 0.426066 0.756866 0.745380
C4    C     C_R   0.226165 0.926067 0.243120 0.745375
O11   O     O_R   0.613040 0.447100 0.622520 -0.539168
O12   O     O_R   0.386960 0.947100 0.377480 -0.539194
O13   O     O_3   0.682160 0.536920 0.777780 -0.350937
O14   O     O_3   0.317840 0.036920 0.222220 -0.350877
V1    V     V_3+5 0.682160 0.493150 0.052630 1.459917
V2    V     V_3+5 0.317840 0.993150 0.947370 1.460022
O15   O     O_R   0.750790 0.559840 0.429870 -0.531855
O16   O     O_R   0.249210 0.059840 0.570130 -0.531870
C5    C     C_R   0.774525 0.573582 0.256661 0.786437
C6    C     C_R   0.225476 0.073584 0.743353 0.786406
O17   O     O_R   0.613540 0.559650 0.452200 -0.540648
O18   O     O_R   0.386460 0.059650 0.547800 -0.540664
C7    C     C_R   0.591536 0.574278 0.287607 0.674323
C8    C     C_R   0.408469 0.074270 0.712427 0.674339
V3    V     V_3+5 0.682160 0.506850 0.552630 1.476266
V4    V     V_3+5 0.317840 0.006850 0.447370 1.476212
O19   O     O_3   0.682150 0.463080 0.277610 -0.382891
O20   O     O_3   0.317850 0.963080 0.722390 -0.382867
C9    C     C_R   0.573777 0.855134 0.099711 -0.157658
C10   C     C_R   0.425941 0.355334 0.897418 -0.157309
H1    H     H_    0.531122 0.939636 0.060055 0.126824
H2    H     H_    0.468538 0.439860 0.937224 0.126747
H3    H     H_    0.665210 0.772370 0.088588 0.144652
H4    H     H_    0.334410 0.272658 0.906857 0.144601
H5    H     H_    0.621496 0.868952 0.035652 0.136901
H6    H     H_    0.378057 0.369255 0.960099 0.136870
C11   C     C_R   0.461411 0.880704 0.206571 -0.096363
C12   C     C_R   0.538606 0.380708 0.793140 -0.096302
C13   C     C_R   0.472522 0.594953 0.337319 -0.163050
C14   C     C_R   0.527576 0.094822 0.664883 -0.163129
C15   C     C_R   0.417982 0.631979 0.338735 -0.136184
C16   C     C_R   0.582139 0.131803 0.664477 -0.136101
C17   C     C_R   0.426125 0.691674 0.302023 -0.130784
C18   C     C_R   0.573958 0.191545 0.700380 -0.130749
C19   C     C_R   0.489869 0.716678 0.269064 0.080487
C20   C     C_R   0.510171 0.216640 0.731420 0.080396
C21   C     C_R   0.545283 0.677420 0.252963 0.057134
C22   C     C_R   0.454681 0.177448 0.746420 0.057070
C23   C     C_R   0.500096 0.778531 0.237618 0.033934
C24   C     C_R   0.499928 0.278531 0.762091 0.033862
C25   C     C_R   0.563463 0.797111 0.160180 0.085695
C26   C     C_R   0.436370 0.297242 0.837726 0.085683
C27   C     C_R   0.616505 0.757746 0.142428 -0.165508
C28   C     C_R   0.383245 0.257941 0.854422 -0.165303
C29   C     C_R   0.608152 0.699333 0.194143 -0.187886
C30   C     C_R   0.391684 0.199472 0.803426 -0.187518
C31   C     C_R   0.450664 0.822942 0.278284 0.209682
C32   C     C_R   0.549518 0.322861 0.722298 0.209888
C33   C     C_R   0.522518 0.895656 0.115246 -0.217739
C34   C     C_R   0.477268 0.395806 0.882780 -0.217741
C35   C     C_R   0.536157 0.616585 0.291139 -0.080306
C36   C     C_R   0.463852 0.116563 0.709134 -0.080154
H7    H     H_    0.464879 0.548711 0.367001 0.108775
H8    H     H_    0.535256 0.048532 0.636033 0.108612
H9    H     H_    0.381292 0.716478 0.290440 0.160752
H10   H     H_    0.618768 0.216317 0.712938 0.160834
H11   H     H_    0.368690 0.614099 0.365796 0.131332
H12   H     H_    0.631474 0.113849 0.638950 0.131328
H13   H     H_    0.651059 0.670900 0.179832 0.115488
H14   H     H_    0.348716 0.171090 0.816874 0.115059
C37   C     C_R   0.171376 0.882318 0.262840 -0.045703
C38   C     C_R   0.828621 0.382315 0.737130 -0.045693
C39   C     C_R   0.140231 0.861948 0.099534 -0.189920
C40   C     C_R   0.859762 0.361954 0.900439 -0.189947
C41   C     C_R   0.088294 0.821227 0.118651 -0.145818
C42   C     C_R   0.911698 0.321232 0.881327 -0.145837
C43   C     C_R   0.066226 0.799660 0.302631 0.433807
C44   C     C_R   0.933772 0.299652 0.697347 0.433817
C45   C     C_R   0.097587 0.819794 0.464694 -0.151805
C46   C     C_R   0.902416 0.319776 0.535278 -0.151810
C47   C     C_R   0.149285 0.860658 0.445709 -0.200532
C48   C     C_R   0.850717 0.360642 0.554260 -0.200464
C49   C     C_R   0.890404 0.697929 0.381559 0.415499
C50   C     C_R   0.109606 0.197928 0.618487 0.415521
C51   C     C_R   0.839924 0.655557 0.392741 -0.263595
C52   C     C_R   0.160090 0.155559 0.607312 -0.263678
C53   C     C_R   0.932947 0.702519 0.211704 0.288557
C54   C     C_R   0.067048 0.202519 0.788314 0.288526
N1    N     N_2   0.013996 0.757589 0.331713 -0.215658
N2    N     N_2   0.986006 0.257581 0.668275 -0.215643
N3    N     N_2   0.984649 0.745050 0.183833 -0.256233
N4    N     N_2   0.015339 0.245047 0.816174 -0.256268
C55   C     C_R   0.829549 0.617470 0.237468 -0.206333
C56   C     C_R   0.170455 0.117476 0.762565 -0.206358
H15   H     H_    0.807637 0.653305 0.523147 0.209407
H16   H     H_    0.192387 0.153306 0.476924 0.209430
H17   H     H_    0.081728 0.803739 0.607088 0.138815
H18   H     H_    0.918280 0.303712 0.392883 0.138806
H19   H     H_    0.172076 0.875108 0.574743 0.133392
H20   H     H_    0.827929 0.375084 0.425225 0.133376
C57   C     C_R   0.871953 0.622728 0.067703 0.368570
C58   C     C_R   0.128040 0.122738 0.932310 0.368654
C59   C     C_R   0.922109 0.665171 0.056671 -0.214608
C60   C     C_R   0.077879 0.165178 0.943336 -0.214589
H21   H     H_    0.065813 0.806666 0.989314 0.149473
H22   H     H_    0.934174 0.306680 0.010668 0.149457
H23   H     H_    0.953979 0.668664 0.925678 0.206486
H24   H     H_    0.045999 0.168673 0.074312 0.206474
H25   H     H_    0.155768 0.877642 0.956489 0.135505
H26   H     H_    0.844221 0.377658 0.043487 0.135510
Cl1   Cl    Cl    0.894735 0.746072 0.579306 -0.602188
Cl2   Cl    Cl    0.105288 0.246066 0.420769 -0.602176
Cl3   Cl    Cl    0.867049 0.576132 0.866004 -0.628686
Cl4   Cl    Cl    0.132938 0.076150 0.133985 -0.628632
N5    N     N_2   0.393461 0.811420 0.402912 -0.552993
H27   H     H_    0.351243 0.833901 0.371353 0.240446
C61   C     C_3   0.405396 0.812287 0.606472 -0.496561
H28   H     H_    0.359345 0.799873 0.692237 0.184444
H29   H     H_    0.420480 0.856942 0.650645 0.202206
H30   H     H_    0.444771 0.780374 0.638471 0.204866
N6    N     N_2   0.607087 0.311171 0.599265 -0.552817
H31   H     H_    0.649192 0.333695 0.631671 0.240135
C62   C     C_3   0.595805 0.311768 0.395224 -0.497287
H32   H     H_    0.642098 0.299215 0.310826 0.184535
H33   H     H_    0.580905 0.356372 0.350022 0.202276
H34   H     H_    0.556524 0.279831 0.362546 0.204877

loop_
_geom_bond_atom_site_label_1
_geom_bond_atom_site_label_2
_ccdc_geom_bond_type
C9    C25   A    
C10   C26   A    
C44   N2    S    
C49   C53   A    
C31   N5    S    
C46   H18   S    
C14   C36   A    
C11   C31   A    
O4    C2    A    
C48   H20   S    
C17   C19   A    
C57   C59   A    
O9    V1    S    
C9    H5    S    
C51   H15   S    
C6    C56   S    
O16   C6    A    
C38   C40   A    
O3    C1    A    
C16   H12   S    
C40   C42   A    
C27   C29   A    
C15   H11   S    
C28   C30   A    
C54   N4    S    
O13   V3    S    
C21   C35   A    
C1    C12   S    
C30   H14   S    
O7    C3    A    
C17   H9    S    
C61   H30   S    
C22   C30   A    
O5    C7    A    
C23   C31   A    
C54   C60   A    
O6    C8    A    
C50   C54   A    
C14   C16   A    
C19   C21   A    
C20   C22   A    
O3    V1    S    
O14   V4    S    
O16   V4    S    
C12   C32   A    
C49   Cl1   S    
C47   H19   S    
C9    C33   A    
C55   C57   A    
C2    O12   A    
C15   C17   A    
V1    O19   S    
N1    N3    D    
H4    C28   S    
C58   Cl4   S    
V3    O19   S    
C57   Cl3   S    
C40   H26   S    
C39   H25   S    
C52   H16   S    
C43   C45   A    
O7    V1    S    
O11   V3    S    
C16   C18   A    
C23   C25   A    
O17   V3    S    
C24   C26   A    
C41   H21   S    
C53   C59   A    
C2    C11   S    
C42   C44   A    
O8    C4    A    
O8    V2    S    
C41   C43   A    
C1    O11   A    
C24   C32   A    
O15   V3    S    
C60   H24   S    
C51   C55   A    
C50   Cl2   S    
C8    C36   S    
C62   H33   S    
C7    C35   S    
C43   N1    S    
C3    C38   S    
C13   C35   A    
O10   V2    S    
C10   C34   A    
C39   C41   A    
C20   C24   A    
N2    N4    D    
C18   C20   A    
C37   C39   A    
C61   H28   S    
N5    C61   S    
C45   C47   A    
C50   C52   A    
O18   V4    S    
C44   C46   A    
C25   C27   A    
N6    H31   S    
C10   H6    S    
C14   H8    S    
O1    C3    A    
C11   C33   A    
C62   H32   S    
C38   C48   A    
C22   C36   A    
C37   C47   A    
V2    O20   S    
C29   H13   S    
C45   H17   S    
C5    C55   S    
C59   H23   S    
C18   H10   S    
C32   N6    S    
N5    H27   S    
C12   C34   A    
O5    V1    S    
O17   C7    A    
O6    V2    S    
O10   C6    A    
O18   C8    A    
C56   C58   A    
O2    V4    S    
C4    C37   S    
O15   C5    A    
C62   H34   S    
C13   C15   A    
V4    O20   S    
O1    V3    S    
C58   C60   A    
C19   C23   A    
O9    C5    A    
O13   V1    S    
C26   C28   A    
O14   V2    S    
O2    C4    A    
C61   H29   S    
C53   N3    S    
O4    V2    S    
C21   C29   A    
C13   H7    S    
C42   H22   S    
N6    C62   S    
C49   C51   A    
C46   C48   A    
H1    C33   S    
H2    C34   S    
O12   V4    S    
C52   C56   A    
H3    C27   S    
