data_mof_unit_47301.cif
_audit_creation_date              2012-12-10T17:12:44-0500
_audit_creation_method            fapswitch 2.2
_symmetry_space_group_name_H-M    P1
_symmetry_Int_Tables_number       1
_space_group_crystal_system       triclinic
_cell_length_a                    23.482068
_cell_length_b                    10.637395
_cell_length_c                    10.031968
_cell_angle_alpha                 87.641638
_cell_angle_beta                  90.422461
_cell_angle_gamma                 90.053105
_cell_volume                      2503.67453194

loop_
_atom_site_label
_atom_site_type_symbol
_atom_type_description
_atom_site_fract_x
_atom_site_fract_y
_atom_site_fract_z
_atom_type_partial_charge
C1    C     C_R   0.493754 0.262572 0.502737 0.919843
C2    C     C_R   0.119252 0.600089 0.480096 0.510120
C3    C     C_R   0.236998 0.521289 0.377407 0.473986
C4    C     C_R   0.389358 0.503168 0.499199 0.906820
C5    C     C_R   0.295805 0.536929 0.379374 0.417815
C6    C     C_R   0.326993 0.505861 0.497538 -0.259290
C7    C     C_R   0.298073 0.471172 0.615073 -0.315715
C8    C     C_R   0.238865 0.466084 0.617279 0.022990
C9    C     C_R   0.208161 0.489772 0.497557 0.056934
C10   C     C_R   0.760731 0.424636 0.402768 0.510416
C11   C     C_R   0.701534 0.420324 0.409522 0.385786
C12   C     C_R   0.969452 0.262863 0.542480 -0.139805
C13   C     C_R   0.672602 0.495396 0.501274 -0.379387
C14   C     C_R   0.704098 0.567263 0.592207 0.412411
C15   C     C_R   0.762986 0.559091 0.593675 -0.112620
C16   C     C_R   0.501225 0.737505 0.496848 0.873039
C17   C     C_R   0.791516 0.491022 0.498784 -0.025942
C18   C     C_2   0.462234 0.931335 0.414390 0.276071
C19   C     C_2   0.503707 0.871153 0.484667 0.248886
C20   C     C_2   0.465054 0.068607 0.400331 0.353739
C21   C     C_2   0.473170 0.133768 0.511884 -0.169193
C22   C     C_2   0.498678 0.600486 0.922465 0.037027
C23   C     C_R   0.028425 0.258679 0.530978 0.446237
C24   C     C_2   0.512643 0.597933 0.070036 0.657761
C25   C     C_R   0.610468 0.499243 0.500458 0.870285
C26   C     C_R   0.880687 0.600480 0.472529 0.558353
C27   C     C_R   0.880521 0.380160 0.529294 0.567038
C28   C     C_R   0.939944 0.376429 0.523516 -0.112085
C29   C     C_R   0.970030 0.488668 0.494883 -0.021670
C30   C     C_R   0.940135 0.602177 0.471400 -0.106176
C31   C     C_R   0.458201 0.078565 0.647521 0.061286
C32   C     C_R   0.498366 0.075586 0.752528 -0.013337
C33   C     C_R   0.484294 0.022247 0.877709 -0.136952
C34   C     C_R   0.059685 0.372317 0.510835 -0.126319
C35   C     C_R   0.430063 0.971815 0.899597 -0.125292
C36   C     C_R   0.389718 0.975047 0.796445 -0.097410
C37   C     C_R   0.403573 0.028334 0.671084 -0.170299
C38   C     C_R   0.210062 0.434834 0.745482 0.162173
C39   C     C_R   0.170627 0.518349 0.798369 -0.142566
C40   C     C_R   0.143725 0.488063 0.919390 -0.102434
C41   C     C_R   0.156193 0.374762 0.988860 -0.060849
C42   C     C_R   0.195812 0.291826 0.937774 -0.092365
C43   C     C_R   0.222798 0.321699 0.816773 -0.089592
C44   C     C_R   0.029941 0.487658 0.491005 -0.107889
C45   C     C_R   0.059793 0.602259 0.468361 -0.132069
C46   C     C_R   0.028990 0.715104 0.439013 0.464662
C47   C     C_R   0.969876 0.714096 0.444005 -0.142219
C48   C     C_R   0.119493 0.375961 0.513199 0.533312
H1    H     H_    0.946662 0.175344 0.561229 0.221110
H2    H     H_    0.463658 0.060983 0.207150 0.341059
H3    H     H_    0.540872 0.112590 0.736779 0.155545
H4    H     H_    0.515537 0.019547 0.957644 0.158200
H5    H     H_    0.419317 0.930213 0.996469 0.147847
H6    H     H_    0.347666 0.936188 0.813591 0.151777
H7    H     H_    0.371780 0.030406 0.592259 0.145952
H8    H     H_    0.537948 0.347950 0.835153 0.374657
H9    H     H_    0.543535 0.766274 0.053278 0.304084
H10   H     H_    0.077609 0.135556 0.459433 0.378011
H11   H     H_    0.447932 0.371656 0.176920 0.402329
H12   H     H_    0.787148 0.610853 0.665781 0.208091
H13   H     H_    0.082941 0.808726 0.331973 0.364532
H14   H     H_    0.169657 0.509274 0.263152 0.312567
H15   H     H_    0.350398 0.645053 0.289435 0.362377
H16   H     H_    0.161139 0.607307 0.746837 0.171623
H17   H     H_    0.113358 0.552674 0.959595 0.148409
H18   H     H_    0.135314 0.351431 0.082492 0.129244
H19   H     H_    0.205583 0.204284 0.991884 0.147224
H20   H     H_    0.253218 0.256238 0.778027 0.142879
H21   H     H_    0.826835 0.388696 0.294054 0.333414
H22   H     H_    0.488640 0.690297 0.872787 0.065059
H23   H     H_    0.947299 0.801571 0.422913 0.220494
H24   H     H_    0.321598 0.448793 0.706374 0.207186
H25   H     H_    0.638836 0.308875 0.369072 0.344908
H26   H     H_    0.643694 0.681472 0.639092 0.336399
H27   H     H_    0.390911 0.927311 0.316144 0.337881
H28   H     H_    0.576818 0.872675 0.576942 0.332970
N1    N     N_R   0.852305 0.490500 0.500789 -0.341519
N2    N     N_R   0.147317 0.488293 0.498181 -0.351087
N3    N     N_2   0.500610 0.501330 0.852150 0.070404
N4    N     N_2   0.500630 0.501360 0.147810 0.075010
O1    O     O_R   0.499990 0.319060 0.613040 -0.661870
O2    O     O_R   0.583840 0.500020 0.613040 -0.599212
O3    O     O_R   0.583850 0.500060 0.386900 -0.572651
O4    O     O_2   0.851306 0.707437 0.444169 -0.525764
O5    O     O_3   0.673561 0.341792 0.324382 -0.643781
O6    O     O_3   0.679472 0.648012 0.679289 -0.702074
O7    O     O_3   0.417828 0.865525 0.358203 -0.808653
O8    O     O_3   0.550919 0.934545 0.531314 -0.801393
O9    O     O_3   0.466418 0.126601 0.274340 -0.739453
O10   O     O_3   0.530651 0.405185 0.908089 -0.618608
O11   O     O_3   0.537259 0.701446 0.125537 -0.763359
O12   O     O_2   0.850980 0.274472 0.561677 -0.507351
O13   O     O_3   0.053651 0.141945 0.539799 -0.675115
O14   O     O_3   0.461203 0.423387 0.099233 -0.643942
O15   O     O_3   0.054700 0.827269 0.401401 -0.695640
O16   O     O_3   0.208953 0.542445 0.256876 -0.705708
O17   O     O_3   0.321159 0.583110 0.263866 -0.681584
O18   O     O_3   0.786851 0.360382 0.303021 -0.656054
O19   O     O_2   0.150096 0.269554 0.533266 -0.532043
O20   O     O_2   0.149337 0.708317 0.477265 -0.513024
O21   O     O_R   0.500010 0.319100 0.386900 -0.562084
O22   O     O_R   0.416150 0.499940 0.613100 -0.613428
O23   O     O_R   0.416160 0.499980 0.386960 -0.613495
O24   O     O_R   0.499990 0.680900 0.613100 -0.658573
O25   O     O_R   0.500010 0.680940 0.386960 -0.541695
Zn1   Zn    Zn3+2 0.499990 0.499970 0.650990 0.998174
Zn2   Zn    Zn3+2 0.500010 0.500030 0.349010 1.094229

loop_
_geom_bond_atom_site_label_1
_geom_bond_atom_site_label_2
_ccdc_geom_bond_type
O21   Zn2   S    
C1    C21   S    
H14   O16   S    
C35   H5    S    
C15   H12   S    
C35   C36   A    
O24   Zn1   S    
C12   H1    S    
C7    C8    A    
C45   C46   A    
C33   H4    S    
C39   H16   S    
C21   C31   S    
N4    Zn2   S    
C12   C28   A    
C3    C9    A    
C5    C6    A    
C36   C37   A    
H10   O13   S    
C22   N3    D    
C38   C39   A    
C10   C17   A    
C1    O1    A    
C4    O23   A    
C18   C19   D    
C41   C42   A    
C48   N2    A    
C10   O18   S    
N3    O10   S    
O1    Zn1   S    
C24   N4    D    
C46   O15   S    
C43   H20   S    
C4    O22   A    
C3    O16   S    
H11   O14   S    
H28   O8    S    
H21   O18   S    
H8    O10   S    
C2    O20   S    
C13   C14   A    
C13   C25   S    
C8    C38   S    
C16   O24   A    
C2    C45   A    
C26   N1    A    
C30   C47   A    
C34   C44   A    
C14   O6    S    
C4    C6    S    
C19   O8    S    
C39   C40   A    
C8    C9    A    
C3    C5    A    
C31   C37   A    
N3    Zn1   S    
C32   H3    S    
C29   C30   A    
C2    N2    A    
O25   Zn2   S    
H2    O9    S    
C31   C32   A    
C12   C23   A    
C23   C34   A    
H25   O5    S    
C17   N1    S    
C27   O12   S    
H26   O6    S    
C47   H23   S    
C6    C7    A    
C16   O25   A    
H27   O7    S    
C40   C41   A    
C5    O17   S    
C26   C30   A    
C40   H17   S    
C29   C44   A    
C25   O2    A    
C22   C24   S    
C34   C48   A    
C42   C43   A    
N4    O14   S    
C24   O11   S    
C1    O21   A    
C7    H24   S    
C44   C45   A    
C15   C17   A    
C48   O19   S    
C46   C47   A    
C28   C29   A    
C26   O4    S    
H9    O11   S    
C27   N1    A    
H13   O15   S    
C41   H18   S    
C20   O9    S    
C18   O7    S    
C32   C33   A    
C38   C43   A    
H15   O17   S    
C11   C13   A    
C42   H19   S    
C11   O5    S    
C16   C19   S    
C33   C35   A    
O3    Zn2   S    
O22   Zn1   S    
C18   C20   S    
C9    N2    S    
O2    Zn1   S    
C36   H6    S    
C10   C11   A    
C37   H7    S    
C23   O13   S    
C20   C21   D    
C27   C28   A    
C25   O3    A    
C14   C15   A    
O23   Zn2   S    
C22   H22   S    
