data_mof_unit_18912.cif
_audit_creation_date              2012-12-11T15:50:43-0500
_audit_creation_method            fapswitch 2.2
_symmetry_space_group_name_H-M    P1
_symmetry_Int_Tables_number       1
_space_group_crystal_system       triclinic
_cell_length_a                    18.943039
_cell_length_b                    10.996444
_cell_length_c                    18.716167
_cell_angle_alpha                 90.115419
_cell_angle_beta                  91.011359
_cell_angle_gamma                 90.044519
_cell_volume                      3898.0745955

loop_
_atom_site_label
_atom_site_type_symbol
_atom_type_description
_atom_site_fract_x
_atom_site_fract_y
_atom_site_fract_z
_atom_type_partial_charge
C1    C     C_R   0.286190 0.007554 0.861332 0.535741
C2    C     C_R   0.781884 0.509258 0.938305 0.016705
C3    C     C_R   0.229442 0.549323 0.352268 0.551655
C4    C     C_R   0.467164 0.823296 0.645263 0.560205
C5    C     C_R   0.528778 0.823245 0.352134 0.549867
C6    C     C_R   0.967164 0.323296 0.645263 0.551497
C7    C     C_R   0.028781 0.323246 0.352136 0.552990
C8    C     C_R   0.261666 0.642899 0.641172 0.546574
C9    C     C_R   0.739958 0.638536 0.356973 0.544516
C10   C     C_R   0.761658 0.142868 0.641184 0.545321
C11   C     C_R   0.239961 0.138530 0.356970 0.540004
C12   C     C_3   0.466039 0.937072 0.032966 -0.134643
C13   C     C_R   0.723833 0.024054 0.064077 0.004306
C14   C     C_3   0.514580 0.907611 0.969642 -0.105637
C15   C     C_3   0.969406 0.421404 0.029212 -0.122586
C16   C     C_3   0.026801 0.431142 0.971771 -0.128472
C17   C     C_3   0.408516 0.850815 0.000878 -0.161478
C18   C     C_3   0.546410 0.799378 0.011195 -0.087687
C19   C     C_3   0.932903 0.317929 0.986430 -0.112545
C20   C     C_3   0.071864 0.335095 0.012126 -0.125033
C21   C     C_3   0.457861 0.822087 0.938883 0.042759
C22   C     C_3   0.497393 0.828566 0.073410 0.037417
C23   C     C_3   0.991176 0.327578 0.930364 0.053200
C24   C     C_R   0.269909 0.044351 0.933334 0.006610
C25   C     C_3   0.013445 0.325631 0.067894 0.055194
C26   C     C_2   0.400931 0.415729 0.083633 0.550190
C27   C     C_2   0.617633 0.525419 0.909915 0.576415
C28   C     C_2   0.902681 0.918302 0.085194 0.542976
C29   C     C_2   0.097352 0.903492 0.919748 0.550279
C30   C     C_3   0.366600 0.340383 0.839092 -0.252068
C31   C     C_3   0.617439 0.369861 0.158709 -0.246317
C32   C     C_3   0.864809 0.866982 0.834808 -0.248609
C33   C     C_3   0.145146 0.839691 0.162744 -0.252988
C34   C     C_R   0.293773 0.520952 0.035443 -0.039842
C35   C     C_R   0.726804 0.455186 0.976355 -0.030564
C36   C     C_R   0.791798 0.019510 0.036247 0.001285
C37   C     C_R   0.204171 0.023512 0.964058 -0.020595
C38   C     C_R   0.304559 0.547488 0.963854 -0.014155
C39   C     C_R   0.715954 0.482876 0.047769 0.007383
C40   C     C_R   0.803577 0.047875 0.964982 -0.019660
C41   C     C_R   0.710467 0.998724 0.138921 0.558842
C42   C     C_R   0.194205 0.047026 0.036281 -0.022432
C43   C     C_R   0.181062 0.597486 0.950020 -0.172646
C44   C     C_R   0.823616 0.595639 0.051107 -0.171264
C45   C     C_R   0.678771 0.084492 0.947589 -0.163756
C46   C     C_R   0.317079 0.103597 0.048561 -0.182002
C47   C     C_R   0.171551 0.579049 0.022349 -0.143864
C48   C     C_R   0.833716 0.571074 0.978716 -0.156826
C49   C     C_R   0.667403 0.057498 0.019068 -0.190371
C50   C     C_R   0.325017 0.091477 0.975753 -0.158446
C51   C     C_3   0.338508 0.409565 0.032797 -0.032184
C52   C     C_R   0.790622 0.496129 0.860760 0.570830
C53   C     C_3   0.649477 0.436058 0.962066 -0.030329
C54   C     C_3   0.840469 0.912813 0.034239 -0.026200
C55   C     C_3   0.162891 0.907618 0.966438 -0.021049
C56   C     C_3   0.353838 0.441952 0.955359 0.003425
C57   C     C_3   0.637903 0.465916 0.041594 0.002386
C58   C     C_3   0.857585 0.948769 0.957994 0.003274
C59   C     C_3   0.147982 0.937147 0.044162 0.006741
C60   C     C_R   0.247615 0.581635 0.919822 0.005742
C61   C     C_R   0.759810 0.565329 0.084322 0.002720
C62   C     C_R   0.746919 0.077832 0.919312 0.030699
C63   C     C_R   0.212164 0.503156 0.138647 0.544754
C64   C     C_R   0.251545 0.082745 0.079709 0.010967
C65   C     C_R   0.493254 0.829514 0.420303 0.018801
C66   C     C_R   0.482389 0.829730 0.569650 0.019015
C67   C     C_R   0.993262 0.329519 0.420307 0.019693
C68   C     C_R   0.982397 0.329731 0.569653 0.019975
C69   C     C_R   0.438252 0.816747 0.862277 0.554260
C70   C     C_R   0.527734 0.821667 0.145762 0.540682
C71   C     C_R   0.970826 0.321605 0.855107 0.549508
C72   C     C_R   0.031109 0.320954 0.143788 0.555560
C73   C     C_R   0.480455 0.721527 0.457610 0.028151
C74   C     C_3   0.489289 0.713754 0.980012 -0.059385
C75   C     C_R   0.475868 0.722460 0.530519 0.040104
C76   C     C_R   0.980457 0.221533 0.457612 0.029305
C77   C     C_R   0.975868 0.222463 0.530520 0.040139
C78   C     C_R   0.482470 0.940442 0.532006 -0.164258
C79   C     C_R   0.486690 0.940292 0.457181 -0.169313
C80   C     C_R   0.982491 0.440445 0.532013 -0.164059
C81   C     C_R   0.986711 0.440297 0.457188 -0.169438
C82   C     C_3   0.519201 0.602439 0.459312 -0.268846
C83   C     C_3   0.514555 0.605499 0.539755 -0.278487
C84   C     C_3   0.019197 0.102439 0.459311 -0.269269
C85   C     C_3   0.440639 0.743111 0.042935 -0.115886
C86   C     C_3   0.014548 0.105495 0.539754 -0.277829
C87   C     C_R   0.251997 0.607694 0.417650 0.017918
C88   C     C_R   0.746741 0.593283 0.579238 0.017427
C89   C     C_R   0.751983 0.107645 0.417671 0.019834
C90   C     C_R   0.246743 0.093280 0.579236 0.016851
C91   C     C_R   0.203575 0.680143 0.454307 0.019992
C92   C     C_R   0.782766 0.688289 0.546779 0.015564
C93   C     C_R   0.703559 0.180085 0.454329 0.020419
C94   C     C_R   0.282761 0.188291 0.546777 0.014567
C95   C     C_R   0.206901 0.685758 0.527032 0.038020
C96   C     C_3   0.035591 0.231714 0.969486 -0.123128
C97   C     C_R   0.782711 0.695347 0.473968 0.048732
C98   C     C_R   0.706883 0.185694 0.527051 0.037913
C99   C     C_R   0.282708 0.195349 0.473966 0.049189
C100  C     C_R   0.315747 0.573513 0.528371 -0.153422
C101  C     C_R   0.701377 0.527603 0.463516 -0.175148
C102  C     C_R   0.815731 0.073452 0.528391 -0.154079
C103  C     C_R   0.201385 0.027590 0.463512 -0.175682
C104  C     C_R   0.313088 0.568125 0.453844 -0.155441
C105  C     C_R   0.700227 0.520880 0.537602 -0.166156
C106  C     C_R   0.813074 0.068071 0.453864 -0.154936
C107  C     C_3   0.977816 0.222121 0.026172 -0.114805
C108  C     C_R   0.200234 0.020869 0.537598 -0.165345
C109  C     C_3   0.124085 0.678819 0.455490 -0.270219
C110  C     C_3   0.858150 0.730311 0.552246 -0.273157
C111  C     C_3   0.624068 0.178759 0.455509 -0.270269
C112  C     C_3   0.358140 0.230340 0.552247 -0.273804
C113  C     C_3   0.128935 0.684791 0.535806 -0.277333
C114  C     C_3   0.858028 0.734410 0.471645 -0.264889
C115  C     C_3   0.628918 0.184735 0.535825 -0.277375
C116  C     C_3   0.358021 0.234439 0.471645 -0.263994
C117  C     C_R   0.260218 0.634747 0.850604 0.532771
C118  C     C_R   0.227045 0.535200 0.065301 -0.005483
C119  C     C_R   0.740415 0.633220 0.149178 0.523978
C120  C     C_R   0.760198 0.134580 0.850781 0.537722
C121  C     C_R   0.239682 0.134589 0.149396 0.537566
C122  C     C_R   0.258420 0.622483 0.565437 0.022802
C123  C     C_R   0.746549 0.610594 0.431332 0.026670
C124  C     C_R   0.758403 0.122419 0.565455 0.023433
C125  C     C_R   0.246553 0.110587 0.431329 0.026149
C126  C     C_R   0.270647 0.046785 0.646869 0.561455
C127  C     C_R   0.729434 0.049298 0.352282 0.559485
C128  C     C_R   0.770646 0.546784 0.646869 0.564964
Cr1   Cr    Cr6+3 0.229640 0.835880 0.747370 1.046067
Cr2   Cr    Cr6+3 0.614230 0.677220 0.250660 0.982603
Cr3   Cr    Cr6+3 0.885770 0.177220 0.749340 1.002344
Cr4   Cr    Cr6+3 0.114230 0.177220 0.250660 1.003331
Cr5   Cr    Cr6+3 0.770360 0.835880 0.252630 1.053025
Cr6   Cr    Cr6+3 0.729640 0.335880 0.747370 1.040156
Cr7   Cr    Cr6+3 0.270360 0.335880 0.252630 1.064128
Cr8   Cr    Cr6+3 0.387390 0.989720 0.750850 0.992090
Cr9   Cr    Cr6+3 0.612610 0.989720 0.249150 0.998348
Cr10  Cr    Cr6+3 0.887390 0.489720 0.750850 0.992981
Cr11  Cr    Cr6+3 0.112610 0.489720 0.249150 0.990194
Cr12  Cr    Cr6+3 0.385770 0.677220 0.749340 0.986130
H1    H     H_    0.350561 0.861670 0.996142 0.104648
H2    H     H_    0.981413 0.031544 0.561513 0.132269
H3    H     H_    0.574075 0.610664 0.440881 0.176196
H4    H     H_    0.481425 0.531544 0.561517 0.131386
H5    H     H_    0.488074 0.527404 0.434312 0.124890
H6    H     H_    0.566419 0.617999 0.567460 0.144802
H7    H     H_    0.988066 0.027411 0.434310 0.125676
H8    H     H_    0.066413 0.117984 0.567459 0.145703
H9    H     H_    0.360686 0.535932 0.556768 0.126745
H10   H     H_    0.668410 0.467045 0.431674 0.121624
H11   H     H_    0.860672 0.035877 0.556787 0.126707
H12   H     H_    0.603692 0.779893 0.017464 0.141136
H13   H     H_    0.168422 0.967027 0.431669 0.120710
H14   H     H_    0.354783 0.523030 0.425447 0.120146
H15   H     H_    0.668758 0.450475 0.561504 0.140045
H16   H     H_    0.854771 0.022987 0.425466 0.121411
H17   H     H_    0.168768 0.950463 0.561501 0.140532
H18   H     H_    0.101256 0.591480 0.437063 0.173891
H19   H     H_    0.895736 0.662022 0.573434 0.163525
H20   H     H_    0.601244 0.091417 0.437080 0.173315
H21   H     H_    0.395734 0.162065 0.573438 0.163881
H22   H     H_    0.100356 0.761525 0.430899 0.123784
H23   H     H_    0.875544 0.309307 0.974328 0.113039
H24   H     H_    0.862908 0.821361 0.577596 0.124141
H25   H     H_    0.600338 0.261464 0.430917 0.124972
H26   H     H_    0.362886 0.321392 0.577595 0.123893
H27   H     H_    0.108063 0.770878 0.558039 0.135092
H28   H     H_    0.864504 0.826919 0.449973 0.140791
H29   H     H_    0.608051 0.270830 0.558056 0.134844
H30   H     H_    0.364483 0.326951 0.449972 0.141325
H31   H     H_    0.110086 0.600808 0.562440 0.138422
H32   H     H_    0.892417 0.664498 0.447242 0.134748
H33   H     H_    0.610065 0.100757 0.562461 0.139388
H34   H     H_    0.129303 0.338443 0.024588 0.106683
H35   H     H_    0.392419 0.164540 0.447242 0.135112
H36   H     H_    0.460291 0.028660 0.056726 0.121155
H37   H     H_    0.543301 0.974369 0.936894 0.127480
H38   H     H_    0.947616 0.498461 0.059371 0.133089
H39   H     H_    0.042611 0.516919 0.945976 0.132742
H40   H     H_    0.497527 0.621739 0.957877 0.182839
H41   H     H_    0.408998 0.680230 0.075651 0.158994
H42   H     H_    0.063483 0.155402 0.943886 0.167137
H43   H     H_    0.957953 0.136907 0.049351 0.164721
H44   H     H_    0.137019 0.630884 0.918222 0.171964
H45   H     H_    0.482175 0.026035 0.560311 0.118665
H46   H     H_    0.863394 0.649415 0.078770 0.175222
H47   H     H_    0.634369 0.113871 0.914778 0.138549
H48   H     H_    0.361489 0.137162 0.079955 0.162280
H49   H     H_    0.119786 0.594955 0.044201 0.176976
H50   H     H_    0.880916 0.605728 0.953975 0.177007
H51   H     H_    0.614397 0.063571 0.039504 0.135586
H52   H     H_    0.376445 0.110054 0.953759 0.165147
H53   H     H_    0.810165 0.827330 0.038475 0.116255
H54   H     H_    0.197890 0.828347 0.958996 0.118742
H55   H     H_    0.305060 0.328466 0.039384 0.129422
H56   H     H_    0.490563 0.025738 0.429131 0.115178
H57   H     H_    0.637486 0.340303 0.947154 0.128585
H58   H     H_    0.408823 0.471549 0.945077 0.190260
H59   H     H_    0.607171 0.549900 0.052306 0.170642
H60   H     H_    0.912104 0.984753 0.951541 0.163317
H61   H     H_    0.092053 0.961720 0.054693 0.169502
H62   H     H_    0.495968 0.486977 0.105871 0.351531
H63   H     H_    0.555058 0.549163 0.822861 0.352355
H64   H     H_    0.996321 0.846880 0.114190 0.322724
H65   H     H_    0.003928 0.821366 0.899415 0.334389
H66   H     H_    0.273908 0.339626 0.900497 0.266032
H67   H     H_    0.982204 0.526037 0.560320 0.118627
H68   H     H_    0.332752 0.298208 0.796827 0.166098
H69   H     H_    0.414044 0.282993 0.848429 0.169692
H70   H     H_    0.384008 0.430350 0.819500 0.164959
H71   H     H_    0.634244 0.278591 0.064242 0.268759
H72   H     H_    0.673217 0.369476 0.178035 0.157690
H73   H     H_    0.589816 0.290927 0.182340 0.160398
H74   H     H_    0.590876 0.453608 0.177210 0.165108
H75   H     H_    0.788146 0.818480 0.909792 0.282669
H76   H     H_    0.821062 0.892395 0.797438 0.156935
H77   H     H_    0.887267 0.779185 0.817119 0.167171
H78   H     H_    0.990590 0.525744 0.429140 0.114660
H79   H     H_    0.907541 0.936086 0.831923 0.159100
H80   H     H_    0.231037 0.833245 0.092162 0.257068
H81   H     H_    0.184975 0.810660 0.203501 0.156932
H82   H     H_    0.101717 0.772233 0.160732 0.168209
H83   H     H_    0.122552 0.927789 0.179580 0.156703
H84   H     H_    0.074073 0.110654 0.440884 0.175346
N1    N     N_2   0.327908 0.351031 0.904872 -0.529620
N2    N     N_2   0.614357 0.360259 0.081594 -0.515698
N3    N     N_2   0.838348 0.854441 0.906602 -0.519908
N4    N     N_2   0.177162 0.847141 0.093183 -0.514828
O1    O     O_R   0.214300 0.709080 0.827500 -0.525854
O2    O     O_R   0.543340 0.717710 0.330180 -0.522261
O3    O     O_R   0.956660 0.217710 0.669820 -0.512811
O4    O     O_R   0.043340 0.217710 0.330180 -0.517342
O5    O     O_R   0.320590 0.625770 0.672930 -0.514865
O6    O     O_R   0.679410 0.625770 0.327070 -0.515710
O7    O     O_R   0.820590 0.125770 0.672930 -0.516508
O8    O     O_R   0.179410 0.125770 0.327070 -0.519026
O9    O     O_3   0.334270 0.834280 0.749190 -0.286830
O10   O     O_3   0.665730 0.834280 0.250810 -0.269129
O11   O     O_3   0.834270 0.334280 0.749190 -0.277081
O12   O     O_R   0.785700 0.709080 0.172500 -0.525753
O13   O     O_3   0.165730 0.334280 0.250810 -0.271202
O14   O     O_R   0.236190 0.958390 0.823150 -0.459605
O15   O     O_R   0.763810 0.958390 0.176850 -0.455093
O16   O     O_R   0.736190 0.458390 0.823150 -0.466634
O17   O     O_R   0.263810 0.458390 0.176850 -0.462524
O18   O     O_R   0.332090 0.075280 0.831290 -0.535983
O19   O     O_R   0.667910 0.075280 0.168710 -0.529114
O20   O     O_R   0.832090 0.575280 0.831290 -0.526302
O21   O     O_R   0.167910 0.575280 0.168710 -0.531394
O22   O     O_R   0.446280 0.918040 0.826620 -0.507997
O23   O     O_R   0.714300 0.209080 0.827500 -0.527165
O24   O     O_R   0.553720 0.918040 0.173380 -0.518077
O25   O     O_R   0.946280 0.418040 0.826620 -0.524831
O26   O     O_R   0.053720 0.418040 0.173380 -0.521451
O27   O     O_R   0.457080 0.716270 0.831760 -0.519252
O28   O     O_R   0.542920 0.716270 0.168240 -0.530268
O29   O     O_R   0.957080 0.216270 0.831760 -0.502898
O30   O     O_R   0.042920 0.216270 0.168240 -0.500932
O31   O     O_R   0.320980 0.624440 0.823040 -0.524559
O32   O     O_R   0.679020 0.624440 0.176960 -0.520432
O33   O     O_R   0.820980 0.124440 0.823040 -0.512175
O34   O     O_R   0.285700 0.209080 0.172500 -0.494708
O35   O     O_R   0.179020 0.124440 0.176960 -0.515817
O36   O     O_R   0.213880 0.710510 0.665560 -0.516682
O37   O     O_R   0.786120 0.710510 0.334440 -0.517200
O38   O     O_R   0.713880 0.210510 0.665560 -0.517409
O39   O     O_R   0.286120 0.210510 0.334440 -0.513191
O40   O     O_R   0.235800 0.959720 0.673040 -0.498765
O41   O     O_R   0.764200 0.959720 0.326960 -0.495189
O42   O     O_R   0.735800 0.459720 0.673040 -0.502948
O43   O     O_R   0.264200 0.459720 0.326960 -0.495685
O44   O     O_R   0.331670 0.076720 0.669350 -0.531809
O45   O     O_R   0.445900 0.919370 0.676500 -0.501305
O46   O     O_R   0.668330 0.076720 0.330650 -0.529927
O47   O     O_R   0.831670 0.576720 0.669350 -0.529555
O48   O     O_R   0.168330 0.576720 0.330650 -0.533272
O49   O     O_2   0.396626 0.371573 0.143234 -0.494493
O50   O     O_R   0.463340 0.472131 0.063534 -0.740610
O51   O     O_2   0.634404 0.632834 0.911837 -0.541838
O52   O     O_R   0.570559 0.482957 0.857244 -0.711241
O53   O     O_2   0.903756 0.989647 0.135437 -0.510621
O54   O     O_R   0.958596 0.837728 0.075640 -0.697342
O55   O     O_2   0.091040 0.970082 0.867776 -0.520229
O56   O     O_R   0.554100 0.919370 0.323500 -0.508072
O57   O     O_R   0.044623 0.819127 0.935195 -0.695553
O58   O     O_R   0.945900 0.419370 0.676500 -0.508366
O59   O     O_R   0.054100 0.419370 0.323500 -0.508806
O60   O     O_R   0.456660 0.717710 0.669820 -0.516134

loop_
_geom_bond_atom_site_label_1
_geom_bond_atom_site_label_2
_ccdc_geom_bond_type
C87   C91   A    
C35   C53   S    
C3    O48   A    
C31   H74   S    
C28   O54   S    
C10   O7    A    
C17   C85   S    
C14   C21   S    
C126  O44   A    
C84   C86   S    
C55   C59   S    
C117  O31   A    
C119  O12   A    
C100  C104  A    
C37   C42   A    
C89   C106  A    
Cr5   O12   S    
C8    O36   A    
C16   H39   S    
C102  H11   S    
C8    O5    A    
C119  O32   A    
C73   C75   A    
Cr8   O22   S    
Cr11  O21   S    
C18   H12   S    
C52   O20   A    
C56   H58   S    
C7    O4    A    
C39   C61   A    
C40   C58   S    
C70   O28   A    
C99   C116  S    
C63   C118  S    
C28   C54   S    
Cr4   O30   S    
C29   C55   S    
Cr3   O7    S    
C9    O37   A    
C17   C21   S    
C19   C23   S    
C111  H20   S    
C32   N3    S    
H63   O52   S    
C16   C20   S    
Cr7   O43   S    
C90   C126  S    
C60   C117  S    
Cr8   O44   S    
C59   N4    S    
Cr4   O8    S    
C2    C52   S    
Cr4   O35   S    
C95   C122  A    
Cr12  O5    S    
C42   C64   A    
C26   O50   S    
C82   H5    S    
C25   C107  S    
C89   C127  S    
C84   H7    S    
C68   C77   A    
Cr1   O9    S    
C128  O42   A    
Cr2   O32   S    
C27   C53   S    
Cr5   O37   S    
C10   C124  S    
C53   H57   S    
Cr7   O13   S    
C51   H55   S    
C4    C66   S    
C9    C123  S    
C120  O33   A    
C107  H43   S    
C43   C47   A    
C44   C48   A    
C34   C118  A    
C65   C79   A    
Cr9   O46   S    
Cr8   O45   S    
C98   C124  A    
C34   C51   S    
C4    O45   A    
C15   C25   S    
Cr1   O14   S    
C12   C22   S    
C45   C62   A    
C3    O43   A    
C22   C85   S    
C20   H34   S    
Cr9   O56   S    
C111  H25   S    
Cr10  O25   S    
C110  C114  S    
C12   H36   S    
C20   C96   S    
C57   H59   S    
C126  O40   A    
C92   C97   A    
C24   C50   A    
C63   O17   A    
C116  H30   S    
Cr11  O26   S    
C45   H47   S    
C108  H17   S    
C21   C69   S    
C128  O47   A    
C121  O34   A    
C24   C37   A    
Cr8   O18   S    
Cr10  O11   S    
Cr12  O27   S    
C19   H23   S    
Cr6   O16   S    
Cr1   O40   S    
C38   C60   A    
C105  H15   S    
C67   C81   A    
C16   C23   S    
C106  H16   S    
C70   O24   A    
C112  C116  S    
Cr9   O24   S    
Cr3   O3    S    
C85   H41   S    
C10   O38   A    
C116  H35   S    
C18   C22   S    
C62   C120  S    
C72   O26   A    
C86   H8    S    
C42   C59   S    
C27   O52   S    
C31   H73   S    
C44   C61   A    
Cr6   O42   S    
Cr10  O47   S    
C90   C108  A    
C115  H33   S    
C26   C51   S    
C33   H82   S    
C88   C105  A    
C8    C122  S    
C98   C115  S    
C94   C112  S    
Cr12  O9    S    
H75   N3    S    
C74   C85   S    
C89   C93   A    
Cr11  O13   S    
C7    O59   A    
C1    O14   A    
C7    C67   S    
C37   C55   S    
C55   H54   S    
C38   C56   S    
Cr7   O34   S    
C127  O41   A    
C31   N2    S    
C5    O2    A    
C97   C114  S    
C22   C70   S    
C58   N3    S    
Cr3   O33   S    
C33   H81   S    
C2    C35   A    
C68   C80   A    
C5    O56   A    
Cr6   O11   S    
Cr7   O17   S    
C76   C84   S    
C30   H69   S    
C13   C41   S    
C15   C19   S    
C112  H21   S    
C56   N1    S    
C41   O15   A    
C11   C125  S    
C109  H22   S    
Cr9   O19   S    
C20   C25   S    
Cr2   O2    S    
C64   C121  S    
C101  H10   S    
H80   N4    S    
C17   H1    S    
C71   O25   A    
C47   C118  A    
C31   H72   S    
H71   N2    S    
C12   C17   S    
C29   O57   S    
C50   H52   S    
C48   H50   S    
Cr8   O9    S    
Cr6   O23   S    
C102  C124  A    
C90   C94   A    
C28   O53   D    
C66   C78   A    
C23   C71   S    
C99   C125  A    
C84   H84   S    
C53   C57   S    
C80   C81   A    
C2    C48   A    
Cr2   O6    S    
H65   O57   S    
C35   C39   A    
C83   H6    S    
C45   C49   A    
C30   H68   S    
H66   N1    S    
Cr11  O59   S    
C78   H45   S    
C4    O60   A    
Cr12  O60   S    
C69   O22   A    
C93   C111  S    
C33   H83   S    
C63   O21   A    
C96   C107  S    
C71   O29   A    
C73   C82   S    
C86   H2    S    
C11   O8    A    
Cr10  O58   S    
C110  H24   S    
C9    O6    A    
C96   H42   S    
C113  H27   S    
C114  H28   S    
C100  H9    S    
C75   C83   S    
C66   C75   A    
H64   O54   S    
C87   C104  A    
Cr4   O13   S    
C97   C123  A    
C82   C83   S    
C11   O39   A    
C104  H14   S    
C26   O49   D    
C121  O35   A    
C44   H46   S    
Cr6   O38   S    
C72   O30   A    
Cr12  O31   S    
C61   C119  S    
C14   C18   S    
C120  O23   A    
C115  H29   S    
C33   N4    S    
C92   C110  S    
C65   C73   A    
C113  H31   S    
C114  H32   S    
C58   H60   S    
C101  C123  A    
C6    O58   A    
C1    O18   A    
C52   O16   A    
C83   H4    S    
C15   C16   S    
C39   C57   S    
Cr1   O1    S    
C43   H44   S    
C40   C62   A    
C23   C96   S    
C51   C56   S    
C117  O1    A    
Cr9   O10   S    
Cr3   O29   S    
C103  H13   S    
C88   C92   A    
Cr3   O11   S    
C103  C108  A    
C32   H77   S    
C109  C113  S    
C6    C68   S    
C112  H26   S    
C18   C74   S    
C54   H53   S    
C6    O3    A    
C41   O19   A    
Cr7   O39   S    
C30   N1    S    
C103  C125  A    
C109  H18   S    
Cr4   O4    S    
C101  C105  A    
C3    C87   S    
C14   H37   S    
C36   C40   A    
C36   C54   S    
C76   C77   A    
C13   C36   A    
C5    C65   S    
C78   C79   A    
H62   O50   S    
C27   O51   D    
C91   C95   A    
C21   C74   S    
C79   H56   S    
C46   C64   A    
C32   H76   S    
C47   H49   S    
C59   H61   S    
Cr5   O41   S    
C29   O55   D    
C25   C72   S    
C43   C60   A    
C1    C24   S    
C13   C49   A    
C57   N2    S    
C12   C14   S    
C77   C86   S    
Cr11  O48   S    
Cr5   O10   S    
C127  O46   A    
Cr1   O36   S    
C69   O27   A    
C54   C58   S    
Cr2   O10   S    
C34   C38   A    
C82   H3    S    
C30   H70   S    
C49   H51   S    
C46   C50   A    
C91   C109  S    
C88   C128  S    
Cr5   O15   S    
C94   C99   A    
C95   C113  S    
C81   H78   S    
C102  C106  A    
C100  C122  A    
C32   H79   S    
Cr10  O20   S    
C80   H67   S    
C74   H40   S    
C15   H38   S    
C111  C115  S    
C67   C76   A    
C46   H48   S    
C93   C98   A    
C110  H19   S    
C19   C107  S    
Cr2   O28   S    
