data_mof_unit_18661.cif
_audit_creation_date              2012-12-10T20:43:37-0500
_audit_creation_method            fapswitch 2.2
_symmetry_space_group_name_H-M    P1
_symmetry_Int_Tables_number       1
_space_group_crystal_system       triclinic
_cell_length_a                    18.513909
_cell_length_b                    18.616892
_cell_length_c                    18.687318
_cell_angle_alpha                 109.177534
_cell_angle_beta                  108.745598
_cell_angle_gamma                 108.569306
_cell_volume                      5072.31455174

loop_
_atom_site_label
_atom_site_type_symbol
_atom_type_description
_atom_site_fract_x
_atom_site_fract_y
_atom_site_fract_z
_atom_type_partial_charge
C1    C     C_R   0.379260 0.500417 0.380545 0.860603
C2    C     C_R   0.810992 0.882131 0.839418 0.292083
C3    C     C_R   0.930075 0.745240 0.964209 0.243995
C4    C     C_R   0.925326 0.731904 0.032476 -0.159991
C5    C     C_R   0.000561 0.770265 0.110477 0.102816
C6    C     C_R   0.283356 0.543222 0.941311 -0.148239
C7    C     C_R   0.198018 0.477902 0.884092 -0.069394
C8    C     C_R   0.170359 0.396523 0.880238 0.122076
C9    C     C_R   0.230877 0.380454 0.931567 -0.184768
C10   C     C_R   0.316113 0.445870 0.988824 -0.113325
C11   C     C_R   0.342328 0.527196 0.993680 -0.107448
C12   C     C_R   0.078529 0.257450 0.748543 -0.243553
C13   C     C_R   0.826801 0.813335 0.573847 -0.250720
C14   C     C_R   0.998826 0.187718 0.683481 -0.085008
C15   C     C_R   0.921035 0.183532 0.680948 0.006369
C16   C     C_R   0.924413 0.248453 0.746870 -0.250832
C17   C     C_R   0.004368 0.317738 0.813532 -0.092256
C18   C     C_R   0.082795 0.324295 0.813574 -0.019160
C19   C     C_R   0.779498 0.108890 0.544378 0.066793
C20   C     C_R   0.702369 0.033315 0.480600 -0.171072
C21   C     C_R   0.682265 0.957396 0.486847 -0.118604
C22   C     C_R   0.738664 0.956891 0.557283 -0.139831
C23   C     C_R   0.815271 0.031460 0.620916 -0.172601
C24   C     C_R   0.815379 0.807358 0.494556 -0.068343
C25   C     C_R   0.836543 0.107691 0.614912 0.076902
C26   C     C_R   0.739442 0.741364 0.417801 0.007349
C27   C     C_R   0.679631 0.678014 0.422554 -0.263637
C28   C     C_R   0.689952 0.685578 0.502549 -0.091184
C29   C     C_R   0.762024 0.756961 0.579758 -0.014329
C30   C     C_R   0.643203 0.748635 0.294741 -0.163609
C31   C     C_R   0.621554 0.750651 0.216575 0.266937
C32   C     C_R   0.673277 0.743128 0.176599 -0.129390
C33   C     C_R   0.622822 0.619825 0.502278 0.874987
C34   C     C_R   0.746446 0.734954 0.215201 -0.165744
C35   C     C_R   0.768362 0.734127 0.293687 -0.110743
C36   C     C_R   0.716751 0.740603 0.333842 0.085955
C37   C     C_R   0.436253 0.801897 0.513925 -0.142349
C38   C     C_R   0.368066 0.721532 0.446611 -0.152803
C39   C     C_R   0.384595 0.664042 0.392006 0.143071
C40   C     C_R   0.469048 0.688084 0.404165 -0.111967
C41   C     C_R   0.536611 0.767888 0.471345 -0.156438
C42   C     C_R   0.520682 0.825125 0.526370 -0.129227
C43   C     C_R   0.249574 0.575982 0.255396 -0.255792
C44   C     C_R   0.617904 0.497200 0.619440 0.895846
C45   C     C_R   0.183293 0.496770 0.185660 -0.065336
C46   C     C_R   0.177501 0.418252 0.182319 0.014696
C47   C     C_R   0.243192 0.421301 0.247465 -0.244877
C48   C     C_R   0.311543 0.500883 0.315879 -0.091914
C49   C     C_R   0.313643 0.578885 0.321479 -0.009285
C50   C     C_R   0.044697 0.275797 0.120516 0.059476
C51   C     C_R   0.978868 0.195713 0.049784 -0.184398
C52   C     C_R   0.974341 0.171884 0.968704 -0.131779
C53   C     C_R   0.035258 0.227954 0.957662 -0.118394
C54   C     C_R   0.100676 0.308050 0.027606 -0.163369
C55   C     C_R   0.378499 0.380488 0.499457 0.862541
C56   C     C_R   0.106573 0.332693 0.109544 0.081453
C57   C     C_R   0.213863 0.524060 0.593677 -0.139930
C58   C     C_R   0.224761 0.451557 0.586964 -0.156367
C59   C     C_R   0.230987 0.402652 0.515937 0.123580
C60   C     C_R   0.224529 0.426575 0.451105 -0.080220
C61   C     C_R   0.213269 0.498912 0.457888 -0.095723
C62   C     C_R   0.208198 0.547761 0.529233 -0.115210
C63   C     C_R   0.179312 0.258337 0.506654 -0.225973
C64   C     C_R   0.185057 0.182639 0.495329 -0.066085
C65   C     C_R   0.253950 0.171918 0.485378 0.015321
C66   C     C_R   0.733471 0.860996 0.771636 -0.139982
C67   C     C_R   0.316372 0.239171 0.487511 -0.235795
C68   C     C_R   0.311049 0.314911 0.499074 -0.079127
C69   C     C_R   0.241924 0.325334 0.508441 0.002230
C70   C     C_R   0.344196 0.100470 0.519889 -0.148611
C71   C     C_R   0.357656 0.028212 0.504790 0.272328
C72   C     C_R   0.289895 0.946744 0.439005 -0.127679
C73   C     C_R   0.210240 0.938304 0.388877 -0.200811
C74   C     C_R   0.196457 0.010496 0.405032 -0.125422
C75   C     C_R   0.263464 0.092547 0.471520 0.082266
C76   C     C_R   0.481838 0.499036 0.779514 -0.245576
C77   C     C_R   0.714175 0.814268 0.686311 -0.156416
C78   C     C_R   0.561369 0.522092 0.779663 0.010321
C79   C     C_R   0.586430 0.458323 0.750738 0.023699
C80   C     C_R   0.533403 0.372061 0.729796 0.145342
C81   C     C_R   0.454363 0.350818 0.733701 0.005297
C82   C     C_R   0.428138 0.414316 0.756181 -0.011944
C83   C     C_R   0.737443 0.484497 0.812465 -0.273993
C84   C     C_R   0.815075 0.498389 0.810452 -0.122717
C85   C     C_R   0.829377 0.511653 0.745050 0.004658
C86   C     C_R   0.764255 0.513030 0.681947 0.133382
C87   C     C_R   0.685111 0.496938 0.684253 -0.082104
C88   C     C_R   0.769762 0.784103 0.667081 0.132438
C89   C     C_R   0.671128 0.482120 0.749274 -0.003308
C90   C     C_R   0.976350 0.598290 0.765171 -0.130527
C91   C     C_R   0.050610 0.603479 0.757473 0.255618
C92   C     C_R   0.057736 0.528016 0.725172 -0.151334
C93   C     C_R   0.991892 0.448382 0.701598 -0.161560
C94   C     C_R   0.917894 0.443307 0.708875 -0.127489
C95   C     C_R   0.909217 0.518002 0.739590 0.094368
C96   C     C_R   0.996924 0.876053 0.381080 0.875236
C97   C     C_R   0.880472 0.876457 0.496668 0.871005
C98   C     C_R   0.999035 0.119962 0.619218 0.881269
C99   C     C_R   0.846250 0.803517 0.735402 -0.231399
C100  C     C_R   0.119800 0.117903 0.497522 0.867491
C101  C     C_R   0.002903 0.380799 0.881510 0.877745
C102  C     C_R   0.119405 0.498254 0.119003 0.858218
C103  C     C_R   0.001363 0.619407 0.121917 0.884965
C104  C     C_R   0.880399 0.499187 0.878502 0.896311
C105  C     C_R   0.096857 0.771624 0.557487 0.060272
C106  C     C_R   0.091932 0.778311 0.483696 -0.143844
C107  C     C_R   0.012100 0.732753 0.408055 0.120269
C108  C     C_R   0.938186 0.677743 0.405958 -0.187847
C109  C     C_R   0.943032 0.671703 0.479789 -0.134267
C110  C     C_R   0.867685 0.854103 0.820615 -0.166125
C111  C     C_R   0.022112 0.718781 0.555584 -0.153134
C112  C     C_R   0.011339 0.677819 0.266259 0.129272
C113  C     C_R   0.003188 0.684576 0.191069 -0.088858
C114  C     C_R   0.996271 0.754348 0.181605 -0.050991
C115  C     C_R   0.989620 0.813105 0.243020 -0.282702
C116  C     C_R   0.995972 0.807032 0.316753 -0.133607
C117  C     C_R   0.006664 0.739628 0.329646 -0.012955
C118  C     C_R   0.080762 0.822739 0.120599 -0.113995
C119  C     C_R   0.085693 0.835312 0.052299 -0.186616
C120  C     C_R   0.010593 0.796630 0.974179 -0.117475
H1    H     H_    0.657624 0.744498 0.116180 0.131980
H2    H     H_    0.786730 0.730097 0.184682 0.150661
H3    H     H_    0.826006 0.729750 0.323654 0.106102
H4    H     H_    0.573630 0.887168 0.578623 0.132347
H5    H     H_    0.423694 0.845845 0.556582 0.133358
H6    H     H_    0.302843 0.703712 0.437586 0.117650
H7    H     H_    0.482578 0.644740 0.361959 0.100077
H8    H     H_    0.601035 0.784156 0.480125 0.124125
H9    H     H_    0.251682 0.635763 0.257946 0.154141
H10   H     H_    0.241213 0.361553 0.244779 0.152962
H11   H     H_    0.689548 0.883510 0.784598 0.130172
H12   H     H_    0.930674 0.151855 0.057274 0.140223
H13   H     H_    0.923330 0.110092 0.914278 0.141253
H14   H     H_    0.031595 0.209438 0.894810 0.141596
H15   H     H_    0.146806 0.351578 0.018372 0.124679
H16   H     H_    0.199563 0.603773 0.534423 0.129773
H17   H     H_    0.209771 0.561883 0.648826 0.128966
H18   H     H_    0.228876 0.433905 0.637286 0.141811
H19   H     H_    0.227737 0.388898 0.395187 0.103894
H20   H     H_    0.208134 0.516940 0.407701 0.139115
H21   H     H_    0.658086 0.805691 0.635506 0.150226
H22   H     H_    0.125589 0.264993 0.513968 0.153929
H23   H     H_    0.369802 0.232368 0.479621 0.157779
H24   H     H_    0.397291 0.163512 0.568338 0.142743
H25   H     H_    0.298984 0.889992 0.425433 0.129635
H26   H     H_    0.160093 0.875546 0.336482 0.160035
H27   H     H_    0.134796 0.002820 0.364132 0.117137
H28   H     H_    0.462275 0.548079 0.799619 0.148479
H29   H     H_    0.892081 0.784337 0.722464 0.140890
H30   H     H_    0.728260 0.475437 0.863991 0.171691
H31   H     H_    0.969929 0.656061 0.789663 0.121971
H32   H     H_    0.114638 0.530999 0.718936 0.127114
H33   H     H_    0.998265 0.390534 0.677683 0.161946
H34   H     H_    0.867206 0.381294 0.690408 0.135693
H35   H     H_    0.025117 0.713365 0.612339 0.134084
H36   H     H_    0.928798 0.871865 0.872204 0.148016
H37   H     H_    0.149711 0.819160 0.485001 0.134963
H38   H     H_    0.877091 0.638901 0.347036 0.130947
H39   H     H_    0.885549 0.630015 0.478084 0.149274
H40   H     H_    0.984378 0.866912 0.235453 0.173079
H41   H     H_    0.139381 0.852695 0.180854 0.131000
H42   H     H_    0.147712 0.875136 0.059944 0.138844
H43   H     H_    0.015216 0.807088 0.921796 0.114416
H44   H     H_    0.882856 0.868251 0.632445 0.161601
H45   H     H_    0.863358 0.692145 0.025204 0.123941
H46   H     H_    0.408680 0.577222 0.036912 0.133854
H47   H     H_    0.304099 0.605830 0.944067 0.122064
H48   H     H_    0.154029 0.490320 0.841889 0.135552
H49   H     H_    0.212124 0.316924 0.926586 0.132343
H50   H     H_    0.362166 0.433117 0.028495 0.134047
H51   H     H_    0.137711 0.259818 0.748160 0.179165
H52   H     H_    0.864563 0.244431 0.746685 0.157854
H53   H     H_    0.658242 0.032834 0.425571 0.132427
H54   H     H_    0.621876 0.625449 0.363899 0.153347
H55   H     H_    0.623126 0.899133 0.436825 0.135551
H56   H     H_    0.724452 0.899089 0.563253 0.133095
H57   H     H_    0.858816 0.029531 0.674431 0.125828
H58   H     H_    0.603537 0.754734 0.325886 0.127976
O1    O     O_R   0.408360 0.551710 0.460090 -0.608178
O2    O     O_R   0.948280 0.908380 0.356650 -0.627814
O3    O     O_R   0.960110 0.908350 0.551690 -0.625157
O4    O     O_R   0.856660 0.908370 0.448270 -0.604836
O5    O     O_R   0.051720 0.091580 0.643310 -0.624834
O6    O     O_R   0.948270 0.091600 0.539890 -0.610421
O7    O     O_R   0.143340 0.091590 0.551680 -0.597061
O8    O     O_R   0.039890 0.091610 0.448270 -0.626287
O9    O     O_R   0.051730 0.460050 0.908360 -0.626373
O10   O     O_R   0.948290 0.356630 0.908390 -0.614552
O11   O     O_R   0.143340 0.551690 0.091580 -0.621281
O12   O     O_R   0.408400 0.448280 0.356670 -0.623441
O13   O     O_R   0.039900 0.448270 0.091610 -0.617740
O14   O     O_R   0.051710 0.643320 0.091560 -0.618470
O15   O     O_R   0.948270 0.539900 0.091590 -0.617350
O16   O     O_R   0.960100 0.551680 0.908340 -0.604977
O17   O     O_R   0.856660 0.448270 0.908370 -0.631162
O18   O     O_R   0.591600 0.643340 0.551710 -0.618416
O19   O     O_R   0.591630 0.539900 0.448290 -0.620490
O20   O     O_R   0.591600 0.551720 0.643330 -0.614605
O21   O     O_R   0.591640 0.448290 0.539910 -0.624955
O22   O     O_R   0.408370 0.460100 0.551710 -0.611815
O23   O     O_R   0.408400 0.356660 0.448290 -0.629139
O24   O     O_R   0.051730 0.908360 0.460060 -0.614668
Zn1   Zn    Zn3+2 0.499980 0.569060 0.569060 0.986200
Zn2   Zn    Zn3+2 0.500020 0.430940 0.430940 0.949034
Zn3   Zn    Zn3+2 0.069070 0.999960 0.569030 0.986489
Zn4   Zn    Zn3+2 0.930930 0.999990 0.430930 0.978876
Zn5   Zn    Zn3+2 0.069070 0.569030 0.999960 0.965767
Zn6   Zn    Zn3+2 0.930930 0.430930 0.000000 0.963778
C121  C     C_3   0.834609 0.935538 0.931411 -0.963552
H59   H     H_    0.785303 0.955873 0.936043 0.241386
H60   H     H_    0.839947 0.897703 0.966155 0.253553
H61   H     H_    0.897938 0.994242 0.963396 0.240008
C122  C     C_1   0.045580 0.299376 0.202574 0.122767
N1    N     N_1   0.045842 0.318094 0.268167 -0.204170
C123  C     C_3   0.444769 0.039361 0.557809 -0.959396
H62   H     H_    0.495052 0.084829 0.551428 0.247502
H63   H     H_    0.460260 0.065984 0.626554 0.250820
H64   H     H_    0.446446 0.977064 0.536743 0.241004
C124  C     C_1   0.347051 0.394569 0.758396 0.167583
N2    N     N_1   0.282139 0.378785 0.760132 -0.230334
C125  C     C_1   0.616344 0.612661 0.812369 0.191857
N3    N     N_1   0.658951 0.685531 0.838343 -0.219016
C126  C     C_3   0.562757 0.304528 0.704945 -0.917415
H65   H     H_    0.568248 0.295853 0.645565 0.243272
H66   H     H_    0.626277 0.324493 0.757545 0.255831
H67   H     H_    0.518909 0.240908 0.693689 0.237875
C127  C     C_1   0.401029 0.265378 0.718117 0.152953
N4    N     N_1   0.358282 0.197473 0.706263 -0.190208
C128  C     C_3   0.777885 0.531933 0.612601 -0.877978
H68   H     H_    0.844571 0.552248 0.621794 0.234694
H69   H     H_    0.734907 0.473250 0.548762 0.263447
H70   H     H_    0.763398 0.585168 0.611487 0.225079
C129  C     C_3   0.122031 0.688537 0.782908 -0.966374
H71   H     H_    0.107066 0.742155 0.806634 0.239003
H72   H     H_    0.183182 0.702491 0.834885 0.244488
H73   H     H_    0.131356 0.685819 0.726445 0.247190
C130  C     C_1   0.178622 0.818789 0.635068 0.102985
N5    N     N_1   0.244363 0.856668 0.697449 -0.208555
C131  C     C_3   0.030028 0.609238 0.282512 -0.874538
H74   H     H_    0.047642 0.573584 0.236691 0.241282
H75   H     H_    0.086406 0.639858 0.347191 0.225637
H76   H     H_    0.972685 0.562318 0.279498 0.252435
C132  C     C_3   0.849027 0.708457 0.883039 -0.913748
H77   H     H_    0.860237 0.691429 0.826265 0.245467
H78   H     H_    0.797929 0.650535 0.874024 0.255271
H79   H     H_    0.825415 0.756394 0.888645 0.265300
C133  C     C_1   0.800313 0.185571 0.534736 0.122181
N6    N     N_1   0.816921 0.246881 0.526685 -0.212438
C134  C     C_3   0.544521 0.762528 0.177803 -0.975501
H80   H     H_    0.485894 0.711700 0.169126 0.241234
H81   H     H_    0.555549 0.826655 0.221665 0.249777
H82   H     H_    0.532832 0.758806 0.114234 0.240385

loop_
_geom_bond_atom_site_label_1
_geom_bond_atom_site_label_2
_ccdc_geom_bond_type
C7    H48   S    
C118  H41   S    
C44   O20   A    
C93   C94   A    
C5    C114  S    
C1    O1    A    
C41   C42   A    
C55   C68   S    
C9    H49   S    
C35   C36   A    
C67   H23   S    
C121  H61   S    
C81   C82   A    
C57   C58   A    
C126  H67   S    
C19   C133  S    
C7    C8    A    
C45   C46   A    
C4    H45   S    
O16   Zn5   S    
C99   H29   S    
C97   O3    A    
C26   C27   A    
C37   C38   A    
C83   C84   A    
C13   C29   A    
C28   C29   A    
C103  C113  S    
C76   C78   A    
C66   H11   S    
C128  H70   S    
C44   O21   A    
C109  C111  A    
C85   C86   A    
C112  C117  A    
C64   C100  S    
C15   C25   S    
C108  H38   S    
C106  C107  A    
C132  H77   S    
C55   O23   A    
C20   H53   S    
C37   C42   A    
C102  O11   A    
O6    Zn4   S    
C108  C109  A    
C31   C134  S    
O19   Zn2   S    
C17   C18   A    
C34   C35   A    
C73   C74   A    
C62   H16   S    
C98   O5    A    
C127  N4    T    
C17   C101  S    
C118  C119  A    
C29   C88   S    
C120  H43   S    
C72   H25   S    
C46   C47   A    
C104  O17   A    
C2    C110  A    
C82   C124  S    
C131  H74   S    
C33   O18   A    
C16   C17   A    
C21   H55   S    
O24   Zn3   S    
C92   H32   S    
C11   H46   S    
C107  C108  A    
C55   O22   A    
C70   C71   A    
C33   O19   A    
C44   C87   S    
C129  H71   S    
C123  H63   S    
C72   C73   A    
C83   H30   S    
C1    O12   A    
C58   H18   S    
C105  C111  A    
C59   C60   A    
C34   H2    S    
O15   Zn6   S    
C130  N5    T    
C52   H13   S    
C41   H8    S    
C61   C62   A    
C48   C49   A    
O2    Zn4   S    
C119  H42   S    
C112  C113  A    
C38   H6    S    
C128  H68   S    
C14   C98   S    
C12   H51   S    
C37   H5    S    
C30   H58   S    
C38   C39   A    
C83   C89   A    
C54   C56   A    
C134  H81   S    
C23   H57   S    
C74   C75   A    
O17   Zn6   S    
C47   H10   S    
C42   H4    S    
C51   C52   A    
C63   C69   A    
C74   H27   S    
C43   H9    S    
C84   C85   A    
C77   C88   A    
C126  H65   S    
C131  H75   S    
C3    C120  A    
C123  H64   S    
C76   C82   A    
C91   C92   A    
O8    Zn4   S    
C78   C79   A    
C8    C9    A    
C78   C125  S    
C50   C122  S    
C132  H78   S    
C58   C59   A    
C53   C54   A    
C99   C110  A    
C50   C56   A    
C67   C68   A    
C13   C24   A    
C60   C61   A    
O4    Zn4   S    
C32   C34   A    
O3    Zn3   S    
C123  H62   S    
C125  N3    T    
O7    Zn3   S    
C129  H72   S    
C129  H73   S    
C16   H52   S    
C47   C48   A    
C14   C15   A    
C122  N1    T    
C94   H34   S    
C132  H79   S    
C12   C18   A    
C121  H59   S    
C134  H80   S    
C57   H17   S    
C50   C51   A    
C3    C132  S    
C96   O2    A    
O18   Zn1   S    
C96   O24   A    
C43   C45   A    
O5    Zn3   S    
C59   C69   S    
C26   C36   S    
C40   C41   A    
C39   C49   S    
O1    Zn1   S    
C28   C33   S    
C10   C11   A    
C87   C89   A    
O21   Zn2   S    
C84   C104  S    
O23   Zn2   S    
C79   C80   A    
C2    C121  S    
C57   C62   A    
C46   C56   S    
C3    C4    A    
C109  H39   S    
C6    C11   A    
C52   C53   A    
C86   C87   A    
C13   H44   S    
C97   O4    A    
C113  C114  A    
C9    C10   A    
C61   H20   S    
C124  N2    T    
C66   C77   A    
C27   H54   S    
C6    H47   S    
O10   Zn6   S    
C134  H82   S    
C104  O16   A    
C81   C127  S    
C90   H31   S    
C86   C128  S    
C32   H1    S    
C68   C69   A    
C31   C32   A    
C43   C49   A    
C53   H14   S    
C24   C26   A    
C80   C81   A    
C2    C66   A    
C90   C95   A    
C22   H56   S    
C51   H12   S    
C126  H66   S    
C1    C48   S    
C114  C115  A    
C6    C7    A    
C40   H7    S    
C10   H50   S    
C106  H37   S    
C105  C106  A    
C91   C129  S    
C73   H26   S    
C70   H24   S    
C65   C67   A    
C30   C36   A    
C100  O8    A    
C64   C65   A    
C19   C20   A    
C93   H33   S    
C100  O7    A    
C12   C14   A    
C115  H40   S    
C71   C72   A    
C128  H69   S    
C101  O9    A    
C80   C126  S    
C85   C95   S    
O12   Zn2   S    
C90   C91   A    
C30   C31   A    
O11   Zn5   S    
O22   Zn1   S    
C71   C123  S    
C54   H15   S    
C35   H3    S    
C92   C93   A    
C121  H60   S    
C63   H22   S    
C116  C117  A    
C131  H76   S    
C24   C97   S    
C23   C25   A    
C98   O6    A    
C94   C95   A    
C19   C25   A    
C112  C131  S    
C8    C18   S    
O14   Zn5   S    
C79   C89   S    
C88   C99   A    
C110  H36   S    
C45   C102  S    
C60   H19   S    
C63   C64   A    
C39   C40   A    
C5    C118  A    
C4    C5    A    
C20   C21   A    
C76   H28   S    
C77   H21   S    
C119  C120  A    
O9    Zn5   S    
O20   Zn1   S    
C105  C130  S    
C22   C23   A    
C96   C116  S    
C70   C75   A    
C103  O14   A    
C103  O15   A    
C101  O10   A    
C115  C116  A    
C102  O13   A    
C21   C22   A    
C111  H35   S    
C107  C117  S    
C65   C75   S    
C15   C16   A    
C133  N6    T    
O13   Zn6   S    
C27   C28   A    
