data_mof_unit_24523.cif
_audit_creation_date              2013-03-05T15:44:14-0500
_audit_creation_method            fapswitch 2.2
_symmetry_space_group_name_H-M    P1
_symmetry_Int_Tables_number       1
_space_group_crystal_system       triclinic
_cell_length_a                    26.050432
_cell_length_b                    27.501924
_cell_length_c                    8.515185
_cell_angle_alpha                 90.17985
_cell_angle_beta                  96.167828
_cell_angle_gamma                 89.968548
_cell_volume                      6065.24999298

loop_
_atom_site_label
_atom_site_type_symbol
_atom_site_description
_atom_site_fract_x
_atom_site_fract_y
_atom_site_fract_z
_atom_type_partial_charge
P1    P     P_3+3 0.893960 0.447890 0.040050 0.505911
P2    P     P_3+3 0.893960 0.552110 0.540050 0.512161
P3    P     P_3+3 0.393960 0.947890 0.040050 0.516120
P4    P     P_3+3 0.393960 0.052110 0.540050 0.514746
O1    O     O_2   0.898940 0.431940 0.867860 -0.328988
O2    O     O_2   0.898940 0.568060 0.367860 -0.288996
O3    O     O_2   0.398940 0.931940 0.867860 -0.313281
O4    O     O_2   0.398940 0.068060 0.367860 -0.305721
O5    O     O_3   0.941140 0.476130 0.123050 -0.359723
O6    O     O_3   0.941140 0.523870 0.623050 -0.388401
O7    O     O_3   0.441140 0.976130 0.123050 -0.377857
O8    O     O_3   0.441140 0.023870 0.623050 -0.384080
O9    O     O_3   0.982430 0.389880 0.635700 -0.373060
O10   O     O_3   0.982430 0.610120 0.135700 -0.354436
O11   O     O_3   0.482430 0.889880 0.635700 -0.356254
O12   O     O_3   0.482430 0.110120 0.135700 -0.356499
O13   O     O_2   0.900345 0.347502 0.744352 -0.369227
O14   O     O_2   0.895138 0.645534 0.230092 -0.316029
O15   O     O_2   0.394935 0.854649 0.728276 -0.315232
O16   O     O_2   0.394552 0.145334 0.229047 -0.314100
O17   O     O_3   0.846656 0.493447 0.009369 -0.594986
O18   O     O_3   0.844397 0.509515 0.495927 -0.588164
O19   O     O_3   0.344827 0.991371 0.005951 -0.591039
O20   O     O_3   0.344636 0.009001 0.503032 -0.587580
O21   O     O_3   0.962184 0.290992 0.608197 -0.613790
O22   O     O_3   0.959695 0.710011 0.159065 -0.556969
O23   O     O_3   0.459721 0.789945 0.658450 -0.557794
O24   O     O_3   0.459001 0.210171 0.158762 -0.561851
C1    C     C_3   0.978290 0.250593 0.373079 -0.782682
C2    C     C_3   0.958555 0.781961 0.005257 -0.809273
C3    C     C_3   0.459399 0.717348 0.506538 -0.805561
C4    C     C_3   0.465388 0.274636 0.976646 -0.849332
H1    H     H_    0.968784 0.215980 0.430058 0.302514
H2    H     H_    0.965531 0.804522 0.113845 0.256960
H3    H     H_    0.466940 0.695264 0.615536 0.256277
H4    H     H_    0.460759 0.300961 0.073361 0.274258
P5    P     P_3+3 0.105800 0.447360 0.649510 0.522449
P6    P     P_3+3 0.105800 0.552640 0.149510 0.517611
P7    P     P_3+3 0.605800 0.947360 0.649510 0.516249
P8    P     P_3+3 0.605800 0.052640 0.149510 0.517030
P9    P     P_3+3 0.065963 0.345500 0.088966 0.531502
P10   P     P_3+3 0.066965 0.653550 0.588810 0.557316
P11   P     P_3+3 0.567029 0.846422 0.087687 0.558389
P12   P     P_3+3 0.567129 0.153382 0.589672 0.556540
O25   O     O_2   0.100770 0.431440 0.821660 -0.298174
O26   O     O_2   0.100770 0.568560 0.321660 -0.314706
O27   O     O_2   0.600770 0.931440 0.821660 -0.298542
O28   O     O_2   0.600770 0.068560 0.321660 -0.312548
O29   O     O_3   0.017130 0.389790 0.053700 -0.403996
O30   O     O_3   0.017130 0.610210 0.553700 -0.382357
O31   O     O_3   0.517130 0.889790 0.053700 -0.381907
O32   O     O_3   0.517130 0.110210 0.553700 -0.383685
O33   O     O_2   0.102165 0.349312 0.957074 -0.281966
O34   O     O_2   0.109213 0.640631 0.482201 -0.282314
O35   O     O_2   0.608974 0.859158 0.980085 -0.282910
O36   O     O_2   0.610030 0.139537 0.486560 -0.274275
O37   O     O_3   0.155279 0.490232 0.688852 -0.587686
O38   O     O_3   0.155830 0.509984 0.182006 -0.595382
O39   O     O_3   0.656218 0.989259 0.687399 -0.589058
O40   O     O_3   0.655940 0.010108 0.182681 -0.597448
O41   O     O_3   0.039788 0.286570 0.067869 -0.530080
O42   O     O_3   0.046066 0.710011 0.513184 -0.459902
O43   O     O_3   0.545958 0.789924 0.011798 -0.459966
O44   O     O_3   0.547301 0.209706 0.510552 -0.459878
C5    C     C_3   0.991188 0.288176 0.978833 0.168990
C6    C     C_3   0.003562 0.725403 0.587978 0.088900
C7    C     C_3   0.503724 0.774581 0.087584 0.087625
C8    C     C_3   0.504409 0.225873 0.582045 0.096528
H5    H     H_    0.993134 0.311790 0.875078 0.181254
H6    H     H_    0.971978 0.697974 0.571960 0.107281
H7    H     H_    0.472082 0.801973 0.072603 0.106211
H8    H     H_    0.471936 0.199578 0.559524 0.111243
H9    H     H_    0.962156 0.303863 0.051280 0.043563
H10   H     H_    0.015514 0.731225 0.715193 0.082009
H11   H     H_    0.516018 0.768892 0.214563 0.084072
H12   H     H_    0.514799 0.230192 0.710942 0.039289
C9    C     C_3   0.973254 0.236857 0.919419 0.332844
C10   C     C_3   0.983972 0.773669 0.513864 0.355778
C11   C     C_3   0.484055 0.726241 0.013328 0.355302
C12   C     C_3   0.487524 0.275312 0.510719 0.358571
H13   H     H_    0.939788 0.242174 0.828605 0.084099
H14   H     H_    0.975890 0.768150 0.384575 0.112105
H15   H     H_    0.475628 0.731680 0.884190 0.110842
H16   H     H_    0.478858 0.270679 0.381061 0.110434
C13   C     C_3   0.186011 0.507507 0.054643 0.765821
C14   C     C_3   0.179598 0.501074 0.553684 0.765267
C15   C     C_3   0.685314 0.006432 0.053798 0.764461
C16   C     C_3   0.679852 0.999766 0.550869 0.763435
H17   H     H_    0.165346 0.522281 0.944875 0.046478
H18   H     H_    0.153881 0.493091 0.445379 0.056086
H19   H     H_    0.663698 0.019872 0.943705 0.047611
H20   H     H_    0.653129 0.992826 0.443981 0.058896
C17   C     C_3   0.235820 0.536545 0.093681 -0.885211
C18   C     C_3   0.229299 0.471449 0.552990 -0.881087
C19   C     C_3   0.735037 0.036001 0.086490 -0.881715
C20   C     C_3   0.728308 0.968606 0.545740 -0.877278
H21   H     H_    0.259405 0.520547 0.197047 0.267853
H22   H     H_    0.257678 0.482470 0.653462 0.282731
H23   H     H_    0.759310 0.021206 0.190561 0.269052
H24   H     H_    0.757051 0.977380 0.647792 0.280832
H25   H     H_    0.258792 0.536254 0.991080 0.256372
H26   H     H_    0.246616 0.477611 0.441253 0.242185
H27   H     H_    0.757331 0.034548 0.982466 0.256996
H28   H     H_    0.745921 0.975599 0.434968 0.247253
H29   H     H_    0.227171 0.574799 0.120856 0.224071
H30   H     H_    0.221621 0.432142 0.562250 0.217905
H31   H     H_    0.726412 0.074507 0.109688 0.220945
H32   H     H_    0.718859 0.929480 0.549046 0.215634
Ba1   Ba    Ba6+2 0.999910 0.465960 0.844870 1.681603
Ba2   Ba    Ba6+2 0.999910 0.534040 0.344870 1.702375
Ba3   Ba    Ba6+2 0.499910 0.965960 0.844870 1.707172
Ba4   Ba    Ba6+2 0.499910 0.034040 0.344870 1.705173
C21   C     C_3   0.809026 0.489537 0.116242 0.786949
C22   C     C_3   0.818484 0.498881 0.627957 0.759081
C23   C     C_3   0.315465 0.996046 0.134516 0.764176
C24   C     C_3   0.318061 0.001222 0.635843 0.763068
H33   H     H_    0.823949 0.470798 0.227205 0.028186
H34   H     H_    0.846606 0.495140 0.733107 0.082776
H35   H     H_    0.336577 0.982161 0.244572 0.048935
H36   H     H_    0.341880 0.011829 0.745300 0.053226
C25   C     C_3   0.762043 0.461807 0.038366 -0.920758
C26   C     C_3   0.779166 0.538597 0.658479 -0.946921
C27   C     C_3   0.264892 0.967797 0.101841 -0.878549
C28   C     C_3   0.268015 0.030734 0.621789 -0.873151
H37   H     H_    0.740315 0.484461 0.946427 0.263435
H38   H     H_    0.766429 0.558898 0.549002 0.289702
H39   H     H_    0.241126 0.983151 0.997627 0.272760
H40   H     H_    0.241510 0.017833 0.519267 0.278613
H41   H     H_    0.735917 0.452108 0.128228 0.276578
H42   H     H_    0.744446 0.522704 0.703309 0.263237
H43   H     H_    0.242615 0.970009 0.205781 0.250448
H44   H     H_    0.248508 0.026651 0.730699 0.244065
H45   H     H_    0.773807 0.428058 0.981660 0.234269
H46   H     H_    0.796265 0.564423 0.749720 0.224071
H47   H     H_    0.272405 0.929023 0.079011 0.226553
H48   H     H_    0.275904 0.069802 0.606224 0.224491
O45   O     O_3   0.058810 0.523750 0.066650 -0.376748
O46   O     O_3   0.058810 0.476250 0.566650 -0.387493
O47   O     O_3   0.558810 0.023750 0.066650 -0.380179
O48   O     O_3   0.558810 0.976250 0.566650 -0.391592
P13   P     P_3+3 0.932769 0.653418 0.104369 0.534856
P14   P     P_3+3 0.932104 0.347813 0.600761 0.458177
P15   P     P_3+3 0.432617 0.153348 0.104645 0.534063
P16   P     P_3+3 0.432930 0.846511 0.603584 0.533462
C29   C     C_3   0.998114 0.288137 0.495808 0.778415
C30   C     C_3   0.982322 0.731528 0.033085 0.849310
C31   C     C_3   0.482459 0.768152 0.532686 0.855642
C32   C     C_3   0.489604 0.227392 0.044017 0.828738
H49   H     H_    0.003521 0.322818 0.432118 -0.077788
H50   H     H_    0.975480 0.710963 0.920517 -0.184851
H51   H     H_    0.475084 0.788121 0.419550 -0.194435
H52   H     H_    0.492264 0.201642 0.944083 -0.157991
H53   H     H_    0.008134 0.243411 0.293056 0.267118
H54   H     H_    0.975684 0.800556 0.908072 0.281097
H55   H     H_    0.476581 0.698588 0.409356 0.281481
H56   H     H_    0.490015 0.291280 0.893340 0.277412
C33   C     C_R   0.905066 0.390836 0.310036 -0.416208
C34   C     C_R   0.909014 0.612858 0.804208 -0.398814
C35   C     C_R   0.409254 0.887264 0.304347 -0.382707
C36   C     C_R   0.409092 0.112756 0.804893 -0.385559
C37   C     C_R   0.880344 0.394013 0.157224 0.212498
C38   C     C_R   0.881804 0.607393 0.654781 0.219154
C39   C     C_R   0.381916 0.892733 0.155206 0.211330
C40   C     C_R   0.382034 0.107384 0.655292 0.210563
C41   C     C_R   0.842733 0.359365 0.103412 -0.284774
C42   C     C_R   0.842830 0.640885 0.603259 -0.237734
C43   C     C_R   0.343352 0.858833 0.102870 -0.249446
C44   C     C_R   0.344133 0.141695 0.601954 -0.249901
C45   C     C_R   0.828427 0.322361 0.205089 0.069289
C46   C     C_R   0.829805 0.679130 0.703503 0.098291
C47   C     C_R   0.330354 0.820626 0.202499 0.102750
C48   C     C_R   0.331541 0.180401 0.701015 0.093711
C49   C     C_R   0.853990 0.320174 0.359849 -0.217459
C50   C     C_R   0.857225 0.683010 0.855760 -0.232350
C51   C     C_R   0.357868 0.816787 0.354382 -0.207769
C52   C     C_R   0.358564 0.184023 0.853884 -0.231286
C53   C     C_R   0.892410 0.354206 0.410824 0.263014
C54   C     C_R   0.896777 0.650024 0.905325 0.232570
C55   C     C_R   0.397324 0.849837 0.404333 0.240062
C56   C     C_R   0.397472 0.150508 0.904691 0.240429
C57   C     C_R   0.791157 0.237307 0.194377 -0.076157
C58   C     C_R   0.791224 0.763729 0.695566 -0.039029
C59   C     C_R   0.291238 0.736228 0.195480 -0.039800
C60   C     C_R   0.293995 0.265509 0.692433 -0.040271
C61   C     C_R   0.251738 0.703204 0.145846 -0.136887
C62   C     C_R   0.255430 0.299168 0.640327 -0.137628
C63   C     C_R   0.751988 0.203910 0.144475 -0.122451
C64   C     C_R   0.752061 0.796916 0.644794 -0.141817
C65   C     C_R   0.207136 0.718302 0.050167 0.109287
C66   C     C_R   0.211154 0.284687 0.541734 0.120266
C67   C     C_R   0.706865 0.218798 0.050676 0.111261
C68   C     C_R   0.707440 0.781835 0.548874 0.109438
C69   C     C_R   0.203487 0.767601 0.005669 -0.066300
C70   C     C_R   0.206819 0.235381 0.496890 -0.059894
C71   C     C_R   0.702407 0.268227 0.008080 -0.070358
C72   C     C_R   0.703436 0.732409 0.505166 -0.063330
C73   C     C_R   0.741814 0.301526 0.056832 -0.119911
C74   C     C_R   0.742793 0.699251 0.555197 -0.151779
C75   C     C_R   0.243176 0.800594 0.054572 -0.148305
C76   C     C_R   0.245538 0.201748 0.548364 -0.145623
C77   C     C_R   0.786776 0.286588 0.150852 0.116802
C78   C     C_R   0.787427 0.714399 0.650843 0.134159
C79   C     C_R   0.287799 0.785431 0.149970 0.132504
C80   C     C_R   0.289888 0.216272 0.646598 0.130463
C81   C     C_R   0.137476 0.686807 0.843953 -0.118210
C82   C     C_R   0.142580 0.317101 0.333826 -0.178513
C83   C     C_R   0.636617 0.187540 0.845842 -0.182993
C84   C     C_R   0.637961 0.813278 0.342260 -0.130895
C85   C     C_R   0.098628 0.653223 0.792662 0.213635
C86   C     C_R   0.103951 0.350970 0.282902 0.286841
C87   C     C_R   0.598130 0.153632 0.794184 0.210652
C88   C     C_R   0.599115 0.846880 0.291245 0.212119
C89   C     C_R   0.115916 0.608789 0.037805 0.236336
C90   C     C_R   0.118928 0.393287 0.532635 0.229186
C91   C     C_R   0.616333 0.108632 0.037718 0.242276
C92   C     C_R   0.616279 0.891339 0.537197 0.235912
C93   C     C_R   0.153402 0.643379 0.092384 -0.210419
C94   C     C_R   0.157319 0.359430 0.585311 -0.186239
C95   C     C_R   0.654200 0.142997 0.091643 -0.188175
C96   C     C_R   0.653990 0.856995 0.591193 -0.203208
C97   C     C_R   0.165109 0.682755 0.995692 0.080551
C98   C     C_R   0.169848 0.320758 0.486360 0.060415
C99   C     C_R   0.665053 0.182991 0.996245 0.077940
C100  C     C_R   0.665611 0.817471 0.494160 0.074478
C101  C     C_R   0.087865 0.614809 0.890226 -0.374883
C102  C     C_R   0.092332 0.388554 0.382526 -0.417958
C103  C     C_R   0.587858 0.114919 0.891022 -0.368441
C104  C     C_R   0.588273 0.885254 0.389506 -0.385859
H57   H     H_    0.173640 0.639138 0.209238 0.177749
H58   H     H_    0.177130 0.363432 0.703024 0.175112
H59   H     H_    0.674911 0.138441 0.207721 0.174387
H60   H     H_    0.674593 0.861733 0.707496 0.175988
H61   H     H_    0.256802 0.665517 0.180241 0.145020
H62   H     H_    0.260885 0.336842 0.675338 0.149092
H63   H     H_    0.757629 0.166163 0.177476 0.144686
H64   H     H_    0.757383 0.834704 0.678514 0.149939
H65   H     H_    0.825384 0.224283 0.265152 0.161754
H66   H     H_    0.825162 0.777113 0.767151 0.151446
H67   H     H_    0.325128 0.722793 0.266927 0.150595
H68   H     H_    0.327689 0.278453 0.766127 0.151710
H69   H     H_    0.824803 0.361178 0.983013 0.181449
H70   H     H_    0.822330 0.636475 0.486646 0.174394
H71   H     H_    0.323222 0.862733 0.985684 0.183772
H72   H     H_    0.324178 0.137656 0.484477 0.184449
H73   H     H_    0.169565 0.781015 0.934412 0.180023
H74   H     H_    0.173018 0.222442 0.423725 0.170415
H75   H     H_    0.668019 0.281490 0.938714 0.167996
H76   H     H_    0.669481 0.719036 0.433732 0.181630
H77   H     H_    0.736573 0.339294 0.023350 0.147793
H78   H     H_    0.737765 0.661479 0.520832 0.152631
H79   H     H_    0.238386 0.838265 0.019586 0.150839
H80   H     H_    0.240169 0.164084 0.513145 0.152397
H81   H     H_    0.146828 0.715159 0.763880 0.143336
H82   H     H_    0.151365 0.288299 0.254033 0.155659
H83   H     H_    0.645453 0.216235 0.766311 0.152097
H84   H     H_    0.647252 0.784773 0.262058 0.145373
H85   H     H_    0.844557 0.291959 0.440337 0.151460
H86   H     H_    0.847425 0.711000 0.937033 0.133581
H87   H     H_    0.348165 0.788834 0.435332 0.128536
H88   H     H_    0.348966 0.212234 0.934678 0.138807
H89   H     H_    0.059383 0.587942 0.847125 0.149866
H90   H     H_    0.062816 0.414676 0.341723 0.160483
H91   H     H_    0.559412 0.088021 0.847891 0.147146
H92   H     H_    0.559663 0.912019 0.346967 0.151325
H93   H     H_    0.934418 0.417109 0.351403 0.163976
H94   H     H_    0.938749 0.586927 0.844767 0.158407
H95   H     H_    0.438807 0.913348 0.345535 0.152979
H96   H     H_    0.438177 0.086335 0.846590 0.154398
N1    N     N_R   0.048491 0.274075 0.575674 0.232072
O49   O     O_R   0.069848 0.301120 0.689522 -0.370611
O50   O     O_R   0.073179 0.235856 0.533144 -0.356481
N2    N     N_R   0.038147 0.735850 0.074381 0.222313
O51   O     O_R   0.061103 0.712089 0.193726 -0.323489
O52   O     O_R   0.065941 0.760688 0.985030 -0.420844
N3    N     N_R   0.538379 0.764639 0.573209 0.222567
O53   O     O_R   0.561157 0.789071 0.691789 -0.323440
O54   O     O_R   0.566373 0.739781 0.483972 -0.420088
N4    N     N_R   0.542113 0.235450 0.119378 0.229616
O55   O     O_R   0.565051 0.277369 0.113736 -0.349632
O56   O     O_R   0.566813 0.199591 0.192001 -0.353672
N5    N     N_R   0.792571 0.538363 0.158005 0.249920
O57   O     O_R   0.756793 0.543773 0.252025 -0.372200
O58   O     O_R   0.811295 0.576683 0.095272 -0.371769
N6    N     N_R   0.791479 0.452640 0.597883 0.231264
O59   O     O_R   0.757400 0.447774 0.475444 -0.350459
O60   O     O_R   0.802743 0.415408 0.688867 -0.412344
N7    N     N_R   0.303350 0.047541 0.155163 0.252126
O61   O     O_R   0.276959 0.061252 0.268755 -0.411442
O62   O     O_R   0.315581 0.079703 0.053754 -0.383910
N8    N     N_R   0.305229 0.949510 0.643837 0.251222
O63   O     O_R   0.281716 0.933060 0.759928 -0.413110
O64   O     O_R   0.314230 0.919993 0.530230 -0.396531
N9    N     N_R   0.954515 0.207466 0.044290 0.222302
O65   O     O_R   0.906610 0.211858 0.072415 -0.432878
O66   O     O_R   0.981061 0.170435 0.103290 -0.279662
N10   N     N_R   0.935589 0.788334 0.573360 0.195825
O67   O     O_R   0.895025 0.760906 0.544254 -0.442253
O68   O     O_R   0.930333 0.831378 0.633606 -0.331712
N11   N     N_R   0.435906 0.711553 0.073860 0.196144
O69   O     O_R   0.395211 0.738838 0.045609 -0.443553
O70   O     O_R   0.430923 0.668562 0.133900 -0.331753
N12   N     N_R   0.440249 0.292163 0.572274 0.196110
O71   O     O_R   0.398097 0.266914 0.543053 -0.443359
O72   O     O_R   0.437914 0.334847 0.637641 -0.319049
H97   H     H_    0.942961 0.264774 0.304394 0.201197
H98   H     H_    0.916288 0.778700 0.972297 0.213527
H99   H     H_    0.417044 0.720018 0.474351 0.213517
H100  H     H_    0.426866 0.267102 0.912457 0.217488
N13   N     N_R   0.013454 0.210603 0.845545 0.285138
O73   O     O_R   0.059181 0.204465 0.920797 -0.244664
O74   O     O_R   0.000364 0.184721 0.719513 -0.318532
N14   N     N_R   0.023405 0.811555 0.543202 0.266805
O75   O     O_R   0.040727 0.823973 0.686768 -0.316542
O76   O     O_R   0.042299 0.832354 0.425019 -0.308506
N15   N     N_R   0.523611 0.688428 0.041285 0.267218
O77   O     O_R   0.541320 0.676148 0.184412 -0.313491
O78   O     O_R   0.542235 0.667567 0.922308 -0.306381
N16   N     N_R   0.529119 0.311106 0.541202 0.269441
O79   O     O_R   0.548640 0.321006 0.684868 -0.344215
O80   O     O_R   0.547711 0.332548 0.423668 -0.275826
N17   N     N_R   0.199255 0.456547 0.028305 0.251013
O81   O     O_R   0.228127 0.444972 0.918442 -0.409337
O82   O     O_R   0.184300 0.422473 0.118874 -0.387632
N18   N     N_R   0.192772 0.552847 0.555934 0.251618
O83   O     O_R   0.214024 0.571908 0.439206 -0.413136
O84   O     O_R   0.186584 0.579631 0.678778 -0.408106
N19   N     N_R   0.698964 0.955312 0.032793 0.252756
O85   O     O_R   0.725636 0.942494 0.918809 -0.406252
O86   O     O_R   0.688104 0.922750 0.134805 -0.385006
N20   N     N_R   0.694663 0.051158 0.554111 0.251469
O87   O     O_R   0.715676 0.069958 0.436505 -0.410458
O88   O     O_R   0.689070 0.078091 0.677107 -0.402020

loop_
_geom_bond_atom_site_label_1
_geom_bond_atom_site_label_2
_geom_bond_distance
_ccdc_geom_bond_type
C61   H61   1.082085 S    
C60   C80   1.408991 A    
C15   H19   1.105008 S    
P9    O41   1.759796 S    
C57   C63   1.403829 A    
P11   O43   1.746890 S    
P12   O44   1.746716 S    
C34   H94   1.082275 S    
N6    O59   1.301320 A    
O25   Ba1   2.819838 S    
P14   C53   1.832537 S    
C1    H1    1.109894 S    
O30   Ba2   2.749152 S    
C16   N20   1.464679 S    
C30   H50   1.109258 S    
P2    Ba2   3.406767 S    
C23   N7    1.464931 S    
N18   O83   1.300426 A    
P2    O18   1.753603 S    
N7    O62   1.301463 A    
C94   C98   1.414486 A    
P4    O8    1.558534 S    
P5    Ba1   3.408423 S    
C3    C31   1.527361 S    
P7    Ba3   3.408423 S    
C20   H32   1.105084 S    
C72   H76   1.082123 S    
P9    O29   1.763714 S    
C67   C99   1.503599 S    
N2    O52   1.300733 A    
C41   C45   1.414016 A    
C23   C27   1.528918 S    
N20   O87   1.300468 A    
Ba3   O47   2.794257 S    
P13   C54   1.848811 S    
O3    Ba3   2.819000 S    
C40   C44   1.405991 A    
C7    C11   1.534797 S    
C14   H18   1.101672 S    
C17   H25   1.110744 S    
O42   C6    1.400040 S    
C43   C47   1.416417 A    
C69   C75   1.404246 A    
C71   H75   1.082461 S    
O13   P14   1.548230 D    
C62   C66   1.408566 A    
C49   H85   1.082578 S    
C75   H79   1.082339 S    
C10   H14   1.108408 S    
C73   H77   1.082665 S    
C84   C88   1.404910 A    
O9    P14   1.749696 S    
C13   N17   1.465484 S    
P10   C85   1.840104 S    
N10   O67   1.300183 A    
N1    O50   1.302474 A    
C41   H69   1.081259 S    
P5    O25   1.550182 D    
C68   C72   1.409176 A    
P5    C90   1.839075 S    
P7    O27   1.550182 D    
C46   C50   1.415178 A    
O5    Ba2   2.794729 S    
P8    O28   1.547540 D    
P7    O48   1.563461 S    
O7    Ba4   2.794729 S    
C57   C77   1.407549 A    
C36   H96   1.082292 S    
O18   C22   1.403750 S    
C34   C54   1.393139 A    
C6    H6    1.113791 S    
O27   Ba3   2.819838 S    
C24   N8    1.464595 S    
C19   H23   1.110088 S    
C2    H98   1.110265 S    
C46   C78   1.501932 S    
P3    O7    1.556995 S    
O41   C5    1.404838 S    
C2    H54   1.108037 S    
C18   H26   1.109426 S    
N17   O81   1.300480 A    
C70   H74   1.082192 S    
C60   H68   1.082370 S    
C76   H80   1.082425 S    
C34   C38   1.396119 A    
C9    N13   1.466843 S    
C83   C99   1.414795 A    
P8    O40   1.753631 S    
Ba4   O48   2.800036 S    
Ba3   Ba4   4.656474 S    
C101  H89   1.082391 S    
P2    C38   1.850119 S    
P8    Ba4   3.410444 S    
C44   H72   1.082066 S    
C92   C104  1.394104 A    
O44   C8    1.400273 S    
C66   C98   1.502337 S    
O32   Ba4   2.749152 S    
C6    H10   1.105670 S    
N14   O75   1.301448 A    
C28   H44   1.110354 S    
O6    Ba1   2.800522 S    
O22   C30   1.410198 S    
C26   H46   1.108624 S    
N16   O80   1.300832 A    
C4    H56   1.106554 S    
C13   C17   1.529271 S    
C70   C76   1.404123 A    
C60   C62   1.403150 A    
C15   C19   1.529326 S    
C74   C78   1.408455 A    
C49   C53   1.404011 A    
P10   O42   1.747067 S    
C15   N19   1.465117 S    
P12   O32   1.764567 S    
P6    O38   1.753350 S    
C83   C87   1.404295 A    
C86   C102  1.388869 A    
C19   H27   1.110752 S    
N13   O74   1.300592 A    
N12   O72   1.301773 A    
C2    H2    1.110584 S    
O17   C21   1.411776 S    
C90   C94   1.404834 A    
C11   N11   1.463883 S    
N19   O86   1.301726 A    
N2    O51   1.300217 A    
C33   C53   1.388063 A    
C45   C77   1.499702 S    
C24   H36   1.101379 S    
C27   H47   1.104489 S    
Ba1   O46   2.971999 S    
C31   H51   1.109078 S    
C25   H37   1.108553 S    
N9    O65   1.301225 A    
C82   C86   1.405727 A    
C27   H39   1.110447 S    
C76   C80   1.408823 A    
C58   C64   1.402670 A    
P9    O33   1.546006 D    
P10   O30   1.763964 S    
C21   H33   1.110590 S    
P9    C86   1.837521 S    
P11   O35   1.540680 D    
O28   Ba4   2.821226 S    
O20   C24   1.404958 S    
C10   N14   1.465495 S    
P5    O46   1.563461 S    
C7    H11   1.105777 S    
C17   H21   1.109822 S    
C81   H81   1.082341 S    
C57   H65   1.082606 S    
O10   Ba2   2.757850 S    
C25   H41   1.110531 S    
O14   P13   1.543137 D    
C92   C96   1.404726 A    
C95   H59   1.081608 S    
C50   H86   1.082160 S    
C4    H4    1.111062 S    
C61   C65   1.408675 A    
C84   C100  1.415672 A    
C23   H35   1.103537 S    
C64   C68   1.408784 A    
P12   C87   1.839203 S    
N6    O60   1.300222 A    
O26   Ba2   2.821226 S    
C82   C98   1.415176 A    
C20   H24   1.110450 S    
C32   N4    1.463829 S    
C12   N12   1.463816 S    
C91   C103  1.393777 A    
C31   N3    1.463732 S    
P6    O26   1.547540 D    
C89   C101  1.394436 A    
C9    N9    1.462755 S    
C65   C69   1.409327 A    
C52   C56   1.404036 A    
C21   C25   1.530610 S    
N18   O84   1.301560 A    
C45   C49   1.412649 A    
N4    O55   1.302187 A    
C14   N18   1.464407 S    
C3    H99   1.110407 S    
C48   C52   1.415026 A    
C71   C73   1.404261 A    
C82   H82   1.082264 S    
C16   C20   1.529743 S    
O15   P16   1.543120 D    
N3    O53   1.300225 A    
C12   H16   1.109836 S    
C103  H91   1.082435 S    
C59   H67   1.082455 S    
N20   O88   1.301761 A    
P1    O1    1.547856 D    
C36   C40   1.395498 A    
C1    H53   1.104785 S    
P3    O3    1.547856 D    
O4    Ba4   2.817633 S    
C1    C29   1.517504 S    
P4    O20   1.751639 S    
C18   H22   1.110444 S    
N8    O63   1.300104 A    
C48   C80   1.502999 S    
C94   H58   1.082294 S    
P1    Ba1   3.408730 S    
C38   C42   1.406228 A    
O21   P14   1.746054 S    
P3    Ba3   3.408730 S    
P6    Ba2   3.410444 S    
O22   P13   1.748662 S    
C50   C54   1.403808 A    
P3    C39   1.853923 S    
C28   H40   1.110649 S    
N10   O68   1.301689 A    
P1    C37   1.844651 S    
N15   O77   1.301467 A    
N1    O49   1.297161 A    
C75   C79   1.408469 A    
O16   P15   1.543167 D    
C11   N15   1.465484 S    
Ba3   O48   2.971999 S    
C6    C10   1.534931 S    
O24   C32   1.408990 S    
C28   H48   1.105081 S    
C32   H52   1.113223 S    
O12   P15   1.758914 S    
P1    O5    1.556995 S    
C68   C100  1.502506 S    
C93   C97   1.415468 A    
C72   C74   1.404210 A    
C13   H17   1.105710 S    
C52   H88   1.082215 S    
N11   O69   1.300088 A    
C91   C95   1.406464 A    
C5    C9    1.552943 S    
P12   O36   1.540512 D    
C10   N10   1.464000 S    
N7    O61   1.300289 A    
Ba2   O46   2.800036 S    
P7    O39   1.750774 S    
O23   P16   1.748938 S    
O24   P15   1.748008 S    
P11   C88   1.841682 S    
C19   H31   1.104048 S    
C37   C41   1.407038 A    
C42   H70   1.082256 S    
C3    H3    1.110474 S    
N5    O58   1.301536 A    
P6    C89   1.849941 S    
C33   C37   1.391463 A    
O12   Ba4   2.757850 S    
C4    H100  1.109213 S    
C24   C28   1.529257 S    
C27   H43   1.110775 S    
C58   C78   1.408618 A    
Ba2   O45   2.970421 S    
C35   C55   1.394171 A    
C3    H55   1.108153 S    
C4    C32   1.530105 S    
C33   H93   1.082561 S    
N19   O85   1.300604 A    
C85   C101  1.393120 A    
Ba1   Ba2   4.656474 S    
P10   O34   1.540720 D    
C11   H15   1.108557 S    
P11   O31   1.765112 S    
O1    Ba1   2.819000 S    
C5    H5    1.103700 S    
C30   N2    1.463778 S    
P6    O45   1.561892 S    
N14   O76   1.300994 A    
C7    H7    1.113801 S    
C47   C79   1.502591 S    
C62   H62   1.082451 S    
C95   C99   1.415949 A    
C88   C104  1.392327 A    
C44   C48   1.416225 A    
C69   H73   1.082122 S    
C12   N16   1.466179 S    
C29   H49   1.115110 S    
C104  H92   1.082404 S    
C21   N5    1.463725 S    
C8    C12   1.535619 S    
P1    O17   1.757200 S    
N4    O56   1.298704 A    
P3    O19   1.753040 S    
P4    O4    1.550502 D    
N13   O73   1.301722 A    
P7    C92   1.846430 S    
Ba1   O45   2.794257 S    
N3    O54   1.300711 A    
C59   C61   1.402672 A    
C65   C97   1.502882 S    
C35   H95   1.082264 S    
P8    O47   1.561892 S    
C5    H9    1.112154 S    
O37   C14   1.405002 S    
C29   N1    1.464114 S    
C83   H83   1.082343 S    
O39   C16   1.403653 S    
C14   C18   1.529912 S    
C93   H57   1.081473 S    
C36   C56   1.393253 A    
C16   H20   1.101077 S    
N17   O82   1.301619 A    
O9    Ba1   2.749734 S    
P4    C40   1.850944 S    
C73   C77   1.407709 A    
C9    H13   1.111368 S    
C102  H90   1.082414 S    
C63   C67   1.409652 A    
C64   H64   1.082330 S    
C8    H8    1.113681 S    
C17   H29   1.104791 S    
P4    Ba4   3.406767 S    
O10   P13   1.757529 S    
C87   C103  1.392229 A    
O2    Ba2   2.817633 S    
Ba4   O47   2.970421 S    
P2    O2    1.550502 D    
O40   C15   1.407083 S    
C2    C30   1.527377 S    
C67   C71   1.409570 A    
O43   C7    1.399912 S    
N15   O78   1.300990 A    
C96   H60   1.082072 S    
O11   Ba3   2.749734 S    
C89   C93   1.405457 A    
C51   C55   1.402903 A    
N5    O57   1.300469 A    
C47   C51   1.413906 A    
C26   H38   1.107888 S    
C39   C43   1.406839 A    
N16   O79   1.301416 A    
P16   C55   1.846640 S    
C81   C85   1.404107 A    
C1    H97   1.107512 S    
P15   C56   1.845969 S    
C74   H78   1.082530 S    
N11   O70   1.301684 A    
C22   H34   1.099328 S    
C22   N6    1.462180 S    
C35   C39   1.396200 A    
P2    O6    1.558534 S    
O38   C13   1.407731 S    
C96   C100  1.415495 A    
C58   H66   1.082493 S    
O29   Ba1   2.757271 S    
N12   O71   1.300355 A    
C18   H30   1.104061 S    
O31   Ba3   2.757271 S    
P5    O37   1.752210 S    
C59   C79   1.408897 A    
C20   H28   1.109707 S    
N9    O66   1.302156 A    
C8    H12   1.107895 S    
P8    C91   1.848928 S    
C81   C97   1.414589 A    
C42   C46   1.416439 A    
N8    O64   1.301295 A    
C90   C102  1.392673 A    
C66   C70   1.408913 A    
O19   C23   1.406779 S    
O11   P16   1.756155 S    
C22   C26   1.537491 S    
O23   C31   1.410253 S    
O21   C29   1.410681 S    
C84   H84   1.082354 S    
C25   H45   1.103274 S    
C26   H42   1.109284 S    
O8    Ba3   2.800522 S    
C63   H63   1.082133 S    
C43   H71   1.081853 S    
C51   H87   1.082150 S    
