data_mof_unit_29439.cif
_audit_creation_date              2012-12-11T14:56:02-0500
_audit_creation_method            fapswitch 2.2
_symmetry_space_group_name_H-M    P1
_symmetry_Int_Tables_number       1
_space_group_crystal_system       triclinic
_cell_length_a                    27.908673
_cell_length_b                    17.303959
_cell_length_c                    18.017915
_cell_angle_alpha                 90.262487
_cell_angle_beta                  137.723638
_cell_angle_gamma                 89.861056
_cell_volume                      5853.42884624

loop_
_atom_site_label
_atom_site_type_symbol
_atom_type_description
_atom_site_fract_x
_atom_site_fract_y
_atom_site_fract_z
_atom_type_partial_charge
C1    C     C_R   0.671731 0.919351 0.817281 -0.111103
C2    C     C_3   0.271779 0.699966 0.016720 -0.141492
C3    C     C_3   0.671265 0.779561 0.981340 -0.148200
C4    C     C_3   0.202334 0.800068 0.917351 -0.172676
C5    C     C_3   0.834632 0.243164 0.052702 -0.177547
C6    C     C_3   0.795129 0.761150 0.050866 -0.132342
C7    C     C_3   0.171266 0.279567 0.981344 -0.148198
C8    C     C_3   0.250336 0.772505 0.035936 -0.129972
C9    C     C_3   0.786072 0.270133 0.932720 -0.150993
C10   C     C_3   0.721893 0.736714 0.937263 -0.153247
C11   C     C_3   0.245583 0.303363 0.097014 -0.160213
C12   C     C_3   0.750348 0.272492 0.035958 -0.129973
C13   C     C_3   0.265418 0.339160 0.043932 -0.161686
C14   C     C_3   0.286085 0.770123 0.932734 -0.150997
C15   C     C_3   0.221890 0.236711 0.937263 -0.153253
C16   C     C_3   0.745580 0.803359 0.097010 -0.160211
C17   C     C_3   0.312583 0.815381 0.071044 0.191880
C18   C     C_3   0.724186 0.227701 0.898905 0.188969
C19   C     C_3   0.692462 0.814164 0.930902 0.189548
C20   C     C_3   0.274548 0.226095 0.102061 0.188011
C21   C     C_3   0.812583 0.315381 0.071045 0.191881
C22   C     C_3   0.224188 0.727705 0.898898 0.188970
C23   C     C_3   0.192462 0.314164 0.930903 0.189546
C24   C     C_3   0.701513 0.701262 0.989053 -0.164793
C25   C     C_3   0.774549 0.726093 0.102059 0.188010
C26   C     C_3   0.446637 0.713489 0.622984 0.201837
C27   C     C_3   0.482699 0.635040 0.670487 -0.900014
C28   C     C_3   0.566137 0.293267 0.474141 0.246124
C29   C     C_3   0.537329 0.374348 0.428878 -0.923595
C30   C     C_3   0.554647 0.710482 0.380382 0.202439
C31   C     C_3   0.518671 0.631733 0.334354 -0.908190
C32   C     C_3   0.437779 0.291748 0.522582 0.248066
C33   C     C_3   0.462190 0.374526 0.563851 -0.927795
C34   C     C_3   0.946637 0.213489 0.622984 0.201837
C35   C     C_3   0.265253 0.843710 0.953562 -0.161427
C36   C     C_3   0.982699 0.135040 0.670486 -0.900015
C37   C     C_3   0.066118 0.793261 0.474147 0.246140
C38   C     C_3   0.037328 0.874347 0.428894 -0.923593
C39   C     C_3   0.054648 0.210482 0.380383 0.202436
C40   C     C_3   0.018669 0.131735 0.334351 -0.908183
C41   C     C_3   0.937762 0.791755 0.522594 0.248059
C42   C     C_3   0.962190 0.874528 0.563884 -0.927800
C43   C     C_3   0.771793 0.199961 0.016731 -0.141510
C44   C     C_3   0.765416 0.839162 0.043933 -0.161690
C45   C     C_3   0.201511 0.201264 0.989057 -0.164791
C46   C     C_R   0.722794 0.758383 0.638003 0.145504
C47   C     C_R   0.385902 0.152513 0.641188 0.143089
C48   C     C_R   0.278063 0.757810 0.364553 0.143247
C49   C     C_R   0.312628 0.100262 0.197607 -0.128399
C50   C     C_R   0.613953 0.150832 0.358530 0.144563
C51   C     C_R   0.222795 0.258383 0.638006 0.145504
C52   C     C_R   0.885904 0.652508 0.641193 0.143094
C53   C     C_R   0.778063 0.257810 0.364552 0.143246
C54   C     C_R   0.113953 0.650832 0.358529 0.144558
C55   C     C_R   0.397061 0.255253 0.744914 -0.266860
C56   C     C_R   0.748169 0.627517 0.627579 -0.264952
C57   C     C_R   0.603260 0.253430 0.256041 -0.266868
C58   C     C_R   0.253299 0.626961 0.375421 -0.264972
C59   C     C_R   0.897062 0.755250 0.744917 -0.266866
C60   C     C_R   0.331991 0.921277 0.183168 -0.124130
C61   C     C_R   0.248170 0.127518 0.627580 -0.264949
C62   C     C_R   0.103260 0.753430 0.256040 -0.266865
C63   C     C_R   0.753299 0.126960 0.375421 -0.264976
C64   C     C_R   0.424543 0.214815 0.716345 -0.126699
C65   C     C_R   0.707702 0.678646 0.623563 -0.183512
C66   C     C_R   0.575290 0.212709 0.283334 -0.133353
C67   C     C_R   0.293695 0.678192 0.379755 -0.179099
C68   C     C_R   0.924546 0.714810 0.716351 -0.126714
C69   C     C_R   0.207703 0.178646 0.623565 -0.183513
C70   C     C_R   0.075289 0.712709 0.283334 -0.133329
C71   C     C_R   0.686813 0.100755 0.803740 -0.142614
C72   C     C_R   0.793695 0.178192 0.379755 -0.179100
C73   C     C_R   0.333222 0.116955 0.624046 -0.288065
C74   C     C_R   0.791271 0.781484 0.695219 -0.269396
C75   C     C_R   0.667332 0.115794 0.376863 -0.286663
C76   C     C_R   0.209485 0.780470 0.307257 -0.272706
C77   C     C_R   0.833222 0.616952 0.624048 -0.288064
C78   C     C_R   0.291272 0.281485 0.695221 -0.269392
C79   C     C_R   0.167332 0.615794 0.376863 -0.286667
C80   C     C_R   0.709485 0.280470 0.307256 -0.272709
C81   C     C_R   0.307024 0.155778 0.656318 0.196406
C82   C     C_R   0.171732 0.419351 0.817281 -0.111104
C83   C     C_R   0.833764 0.730014 0.704394 0.191904
C84   C     C_R   0.693990 0.154818 0.345748 0.195660
C85   C     C_R   0.167025 0.728773 0.297626 0.193588
C86   C     C_R   0.807023 0.655776 0.656318 0.196407
C87   C     C_R   0.333764 0.230016 0.704395 0.191900
C88   C     C_R   0.193990 0.654818 0.345748 0.195661
C89   C     C_R   0.667026 0.228773 0.297626 0.193591
C90   C     C_R   0.360891 0.071441 0.493945 -0.227598
C91   C     C_R   0.675767 0.896177 0.599385 -0.238423
C92   C     C_R   0.638943 0.070844 0.505766 -0.228160
C93   C     C_R   0.812629 0.600262 0.197605 -0.128402
C94   C     C_R   0.324346 0.895931 0.401003 -0.241481
C95   C     C_R   0.860892 0.571440 0.493946 -0.227600
C96   C     C_R   0.175767 0.396177 0.599386 -0.238422
C97   C     C_R   0.138943 0.570844 0.505765 -0.228163
C98   C     C_R   0.824346 0.395931 0.401002 -0.241482
C99   C     C_R   0.407324 0.804614 0.497731 0.521815
C100  C     C_R   0.561790 0.169071 0.428045 0.504446
C101  C     C_R   0.593047 0.804399 0.503089 0.522184
C102  C     C_R   0.437459 0.170321 0.570802 0.505383
C103  C     C_R   0.907324 0.304614 0.497731 0.521814
C104  C     C_R   0.831991 0.421278 0.183168 -0.124125
C105  C     C_R   0.061791 0.669072 0.428046 0.504440
C106  C     C_R   0.093047 0.304399 0.503090 0.522185
C107  C     C_R   0.937462 0.670317 0.570808 0.505387
C108  C     C_R   0.603963 0.192664 0.715221 -0.117564
C109  C     C_R   0.413191 0.826545 0.272874 -0.141837
C110  C     C_R   0.394676 0.193073 0.286341 -0.123970
C111  C     C_R   0.589682 0.825200 0.728396 -0.149738
C112  C     C_R   0.103965 0.692666 0.715216 -0.117514
C113  C     C_R   0.913192 0.326546 0.272873 -0.141841
C114  C     C_R   0.894676 0.693072 0.286339 -0.123994
C115  C     C_R   0.186814 0.600757 0.803736 -0.142616
C116  C     C_R   0.089683 0.325199 0.728397 -0.149738
C117  C     C_R   0.648871 0.856216 0.830088 0.003181
C118  C     C_R   0.324823 0.175415 0.193750 0.002619
C119  C     C_R   0.356781 0.859084 0.171285 0.001977
C120  C     C_R   0.673458 0.175408 0.808792 0.009247
C121  C     C_R   0.148872 0.356215 0.830088 0.003184
C122  C     C_R   0.824824 0.675414 0.193748 0.002635
C123  C     C_R   0.856782 0.359086 0.171285 0.001974
C124  C     C_R   0.173460 0.675412 0.808784 0.009223
C125  C     C_R   0.394747 0.131544 0.572316 -0.067703
C126  C     C_3   0.765238 0.343711 0.953558 -0.161430
C127  C     C_R   0.665791 0.817060 0.579064 -0.105013
C128  C     C_R   0.604802 0.130247 0.426947 -0.074805
C129  C     C_R   0.334636 0.816949 0.422182 -0.106898
C130  C     C_R   0.894749 0.631541 0.572320 -0.067726
C131  C     C_R   0.165791 0.317060 0.579066 -0.105013
C132  C     C_R   0.104802 0.630247 0.426947 -0.074776
C133  C     C_R   0.834636 0.316949 0.422182 -0.106899
C134  C     C_3   0.702331 0.300055 0.917369 -0.172674
C135  C     C_3   0.334631 0.743155 0.052711 -0.177556
C136  C     C_3   0.295127 0.261145 0.050864 -0.132333
H1    H     H_    0.720149 0.951977 0.880770 0.090082
H2    H     H_    0.229782 0.068659 0.598632 0.136345
H3    H     H_    0.979070 0.875723 0.372664 0.247812
H4    H     H_    0.063910 0.915463 0.497958 0.217460
H5    H     H_    0.047765 0.892724 0.382874 0.259758
H6    H     H_    0.107973 0.205598 0.415233 0.112673
H7    H     H_    0.023691 0.252387 0.311133 0.078878
H8    H     H_    0.964381 0.134499 0.296440 0.254500
H9    H     H_    0.014383 0.113379 0.270472 0.208023
H10   H     H_    0.050496 0.088260 0.401512 0.259141
H11   H     H_    0.878368 0.791033 0.453944 0.096193
H12   H     H_    0.957990 0.772810 0.490711 0.086157
H13   H     H_    0.078657 0.807277 0.211234 0.132780
H14   H     H_    0.021274 0.877662 0.631332 0.247493
H15   H     H_    0.941260 0.912370 0.495334 0.218369
H16   H     H_    0.942083 0.895605 0.595249 0.260333
H17   H     H_    0.771929 0.068304 0.404518 0.136515
H18   H     H_    0.421509 0.309386 0.789638 0.132940
H19   H     H_    0.729781 0.568658 0.598630 0.136343
H20   H     H_    0.578658 0.307277 0.211234 0.132780
H21   H     H_    0.271929 0.568304 0.404518 0.136516
H22   H     H_    0.323479 0.030252 0.473337 0.139212
H23   H     H_    0.726487 0.924691 0.665165 0.129529
H24   H     H_    0.676451 0.029661 0.526477 0.139620
H25   H     H_    0.261549 0.071930 0.144417 0.087092
H26   H     H_    0.273477 0.923970 0.335263 0.129914
H27   H     H_    0.823479 0.530250 0.473338 0.139214
H28   H     H_    0.226487 0.424692 0.665165 0.129529
H29   H     H_    0.176450 0.529660 0.526476 0.139619
H30   H     H_    0.773477 0.423970 0.335263 0.129913
H31   H     H_    0.581608 0.249895 0.687727 0.139099
H32   H     H_    0.434992 0.770207 0.289025 0.157884
H33   H     H_    0.417324 0.250334 0.312954 0.146281
H34   H     H_    0.566860 0.769593 0.712353 0.161081
H35   H     H_    0.081608 0.749897 0.687717 0.139094
H36   H     H_    0.283982 0.953825 0.118109 0.098627
H37   H     H_    0.934993 0.270209 0.289024 0.157887
H38   H     H_    0.917325 0.750333 0.312951 0.146277
H39   H     H_    0.066860 0.269593 0.712353 0.161080
H40   H     H_    0.236747 0.774408 0.080358 0.119913
H41   H     H_    0.798686 0.267322 0.887042 0.108475
H42   H     H_    0.711485 0.710558 0.869958 0.122418
H43   H     H_    0.256872 0.328484 0.165524 0.108067
H44   H     H_    0.736769 0.274385 0.080395 0.119917
H45   H     H_    0.298710 0.767303 0.887071 0.108478
H46   H     H_    0.211479 0.210552 0.869957 0.122417
H47   H     H_    0.738406 0.073625 0.857529 0.093364
H48   H     H_    0.756866 0.828476 0.165520 0.108064
H49   H     H_    0.647286 0.322462 0.860768 0.124592
H50   H     H_    0.389914 0.721387 0.110038 0.114154
H51   H     H_    0.346787 0.252325 0.081212 0.126041
H52   H     H_    0.619239 0.788926 0.949584 0.108812
H53   H     H_    0.147290 0.822484 0.860739 0.124591
H54   H     H_    0.889918 0.221406 0.110019 0.114152
H55   H     H_    0.846790 0.752333 0.081216 0.126039
H56   H     H_    0.119241 0.288936 0.949591 0.108812
H57   H     H_    0.764355 0.403771 0.931196 0.114389
H58   H     H_    0.220149 0.451978 0.880770 0.090082
H59   H     H_    0.273230 0.640183 0.040487 0.112018
H60   H     H_    0.290670 0.396539 0.064757 0.108640
H61   H     H_    0.675975 0.644017 0.967825 0.108787
H62   H     H_    0.264381 0.903767 0.931206 0.114391
H63   H     H_    0.773255 0.140176 0.040504 0.112016
H64   H     H_    0.790665 0.896542 0.064759 0.108639
H65   H     H_    0.175970 0.144021 0.967831 0.108787
H66   H     H_    0.807650 0.841334 0.717806 0.119282
H67   H     H_    0.306867 0.064797 0.574936 0.124596
H68   H     H_    0.192837 0.840156 0.284427 0.119831
H69   H     H_    0.761550 0.571930 0.144415 0.087091
H70   H     H_    0.693807 0.063946 0.426050 0.124628
H71   H     H_    0.307650 0.341335 0.717808 0.119281
H72   H     H_    0.806867 0.564795 0.574937 0.124596
H73   H     H_    0.692837 0.340156 0.284426 0.119831
H74   H     H_    0.193807 0.563946 0.426050 0.124629
H75   H     H_    0.660537 0.656626 0.596281 0.185112
H76   H     H_    0.472567 0.236905 0.746505 0.181940
H77   H     H_    0.341022 0.656347 0.407337 0.186012
H78   H     H_    0.526821 0.234311 0.252158 0.181313
H79   H     H_    0.160538 0.156626 0.596283 0.185112
H80   H     H_    0.783983 0.453825 0.118109 0.098625
H81   H     H_    0.972570 0.736899 0.746514 0.181948
H82   H     H_    0.841022 0.156347 0.407338 0.186012
H83   H     H_    0.026820 0.734311 0.252157 0.181310
H84   H     H_    0.393394 0.709141 0.588539 0.110922
H85   H     H_    0.477843 0.756533 0.691444 0.082021
H86   H     H_    0.537047 0.637303 0.708576 0.253060
H87   H     H_    0.486892 0.618350 0.734565 0.207669
H88   H     H_    0.450957 0.590588 0.604115 0.257476
H89   H     H_    0.624822 0.294554 0.531937 0.098109
H90   H     H_    0.555374 0.276862 0.520315 0.083871
H91   H     H_    0.238407 0.573627 0.857525 0.093368
H92   H     H_    0.479079 0.375719 0.372706 0.247802
H93   H     H_    0.563936 0.415473 0.497943 0.217459
H94   H     H_    0.547720 0.392717 0.382794 0.259761
H95   H     H_    0.607971 0.705599 0.415231 0.112671
H96   H     H_    0.523688 0.752385 0.311131 0.078879
H97   H     H_    0.464383 0.634495 0.296447 0.254501
H98   H     H_    0.514383 0.613376 0.270474 0.208023
H99   H     H_    0.550500 0.588259 0.401517 0.259139
H100  H     H_    0.378386 0.291017 0.453893 0.096187
H101  H     H_    0.458043 0.272795 0.490756 0.086168
H102  H     H_    0.921510 0.809382 0.789642 0.132940
H103  H     H_    0.521273 0.377668 0.631341 0.247503
H104  H     H_    0.441285 0.412356 0.495307 0.218368
H105  H     H_    0.442044 0.395613 0.595153 0.260333
H106  H     H_    0.893394 0.209141 0.588539 0.110921
H107  H     H_    0.977843 0.256533 0.691444 0.082022
H108  H     H_    0.037047 0.137303 0.708575 0.253060
H109  H     H_    0.986892 0.118350 0.734564 0.207669
H110  H     H_    0.950957 0.090588 0.604114 0.257475
H111  H     H_    0.124809 0.794540 0.531993 0.098099
H112  H     H_    0.055314 0.776850 0.520265 0.083872
N1    N     N_R   0.625380 0.928280 0.709340 -0.039479
N2    N     N_R   0.613900 0.929750 0.547530 -0.059436
N3    N     N_R   0.613900 0.070250 0.547530 -0.058825
N4    N     N_R   0.386100 0.929750 0.452470 -0.059867
N5    N     N_R   0.886100 0.570250 0.452470 -0.058410
N6    N     N_R   0.113900 0.429750 0.547530 -0.059436
N7    N     N_R   0.113900 0.570250 0.547530 -0.058824
N8    N     N_R   0.886100 0.429750 0.452470 -0.059867
N9    N     N_R   0.437800 0.869550 0.507970 -0.086395
N10   N     N_R   0.562200 0.130450 0.492030 -0.107660
N11   N     N_R   0.562200 0.869550 0.492030 -0.086000
N12   N     N_R   0.374620 0.071720 0.290660 -0.036553
N13   N     N_R   0.437800 0.130450 0.507970 -0.110055
N14   N     N_R   0.937800 0.369550 0.507970 -0.086395
N15   N     N_R   0.062200 0.630450 0.492030 -0.107671
N16   N     N_R   0.062200 0.369550 0.492030 -0.086000
N17   N     N_R   0.937800 0.630450 0.507970 -0.110047
N18   N     N_R   0.573690 0.128980 0.653840 -0.051205
N19   N     N_R   0.426310 0.871020 0.346160 -0.038181
N20   N     N_R   0.426310 0.128980 0.346160 -0.048646
N21   N     N_R   0.573690 0.871020 0.653840 -0.037861
N22   N     N_R   0.073690 0.628980 0.653840 -0.051203
N23   N     N_R   0.374620 0.928280 0.290660 -0.039881
N24   N     N_R   0.926310 0.371020 0.346160 -0.038181
N25   N     N_R   0.926310 0.628980 0.346160 -0.048648
N26   N     N_R   0.073690 0.371020 0.653840 -0.037861
N27   N     N_R   0.625380 0.071720 0.709340 -0.036136
N28   N     N_R   0.125380 0.428280 0.709340 -0.039479
N29   N     N_R   0.874620 0.571720 0.290660 -0.036551
N30   N     N_R   0.874620 0.428280 0.290660 -0.039882
N31   N     N_R   0.125380 0.571720 0.709340 -0.036138
N32   N     N_R   0.386100 0.070250 0.452470 -0.058410
Ni1   Ni    Ni4+2 0.616560 1.000000 0.627280 0.193874
Ni2   Ni    Ni4+2 0.383440 0.000000 0.372720 0.193460
Ni3   Ni    Ni4+2 0.116560 0.500000 0.627280 0.193874
Ni4   Ni    Ni4+2 0.883440 0.500000 0.372720 0.193459
Ni5   Ni    Ni4+2 0.497990 0.870580 0.500000 0.283968
Ni6   Ni    Ni4+2 0.502010 0.129420 0.500000 0.193090
Ni7   Ni    Ni4+2 0.997990 0.370580 0.500000 0.283968
Ni8   Ni    Ni4+2 0.002010 0.629420 0.500000 0.193088
O1    O     O_3   0.442463 0.734853 0.542339 -0.646438
O2    O     O_3   0.532657 0.241616 0.385859 -0.671848
O3    O     O_3   0.558414 0.734135 0.460164 -0.645405
O4    O     O_3   0.464563 0.244134 0.610275 -0.670326
O5    O     O_3   0.942463 0.234853 0.542339 -0.646438
O6    O     O_3   0.032663 0.741620 0.385866 -0.671842
O7    O     O_3   0.058414 0.234135 0.460164 -0.645405
O8    O     O_3   0.964574 0.744126 0.610293 -0.670332

loop_
_geom_bond_atom_site_label_1
_geom_bond_atom_site_label_2
_ccdc_geom_bond_type
C55   H18   S    
N8    N14   A    
C108  C120  A    
C113  N24   A    
C74   C83   A    
C102  C125  A    
C110  C118  A    
C20   C118  S    
C104  C123  A    
C91   C127  A    
C40   H9    S    
C29   H94   S    
C112  C124  A    
C49   N12   A    
C38   H5    S    
C6    C25   S    
C62   C70   A    
C2    H59   S    
C78   H71   S    
C100  O2    S    
N17   Ni8   S    
C107  N17   A    
C71   N27   A    
C3    C19   S    
C115  C124  A    
N31   Ni3   S    
C16   C44   S    
C135  H50   S    
C93   N29   A    
C20   C45   S    
C5    C43   S    
C6    C44   S    
C73   C81   A    
C31   H98   S    
C11   C20   S    
C116  C121  A    
C99   C129  A    
C71   H47   S    
C53   C133  S    
C105  O6    S    
C104  H80   S    
C46   C65   A    
C47   C64   A    
C51   C131  S    
C107  O8    S    
N23   Ni2   S    
C58   C88   A    
C60   H36   S    
N22   N31   A    
C21   C123  S    
C115  H91   S    
C37   C38   S    
C95   H27   S    
C56   C86   A    
C54   C70   A    
N18   N27   A    
C105  N15   A    
C106  N16   A    
C108  N18   A    
N1    Ni1   S    
N7    N15   A    
C48   C129  S    
C11   H43   S    
C104  N30   A    
C52   C77   A    
C9    H41   S    
C19   C44   S    
C54   C79   A    
C32   H100  S    
C16   C25   S    
N24   N30   A    
C34   H107  S    
C94   N4    A    
C16   H48   S    
C72   H82   S    
C27   H87   S    
C8    C17   S    
C37   H111  S    
C63   C84   A    
C92   H24   S    
C111  H34   S    
C51   C78   A    
C96   N6    A    
C2    C22   S    
C11   C13   S    
C126  H57   S    
N13   N32   A    
C101  N11   A    
C48   C67   A    
C110  H33   S    
C58   C67   A    
C114  H38   S    
C83   C86   A    
C5    C21   S    
C126  C134  S    
N7    Ni3   S    
C64   H76   S    
C51   C69   A    
C21   C126  S    
C18   C43   S    
C76   C85   A    
C114  N25   A    
C91   N2    A    
C78   C87   A    
C79   H74   S    
C48   C76   A    
C33   H105  S    
C57   C66   A    
C106  O7    S    
C73   H67   S    
N3    N10   A    
C1    N1    A    
C75   C84   A    
C112  H35   S    
C14   C135  S    
C15   H46   S    
C13   C23   S    
C60   C119  A    
C90   C125  A    
C13   H60   S    
C6    H55   S    
C17   C135  S    
C95   C130  A    
N12   N20   A    
C49   H25   S    
N6    N16   A    
C12   C134  S    
C36   H109  S    
C3    C24   S    
C57   H20   S    
C46   C127  S    
C53   C80   A    
C39   C40   S    
C15   C136  S    
C10   C24   S    
C31   H99   S    
C96   H28   S    
C30   H95   S    
C5    C9    S    
C109  H32   S    
C4    C22   S    
C1    C117  A    
C20   C136  S    
C42   H15   S    
C98   H30   S    
C30   O3    S    
C96   C131  A    
C12   H44   S    
N29   Ni4   S    
C44   H64   S    
C39   O7    S    
N2    Ni1   S    
N2    N11   A    
C1    H1    S    
C85   C88   A    
C95   N5    A    
C116  H39   S    
C100  C128  A    
C58   H21   S    
C28   H89   S    
C8    H40   S    
C2    C135  S    
C40   H10   S    
C111  C117  A    
C14   C22   S    
C68   H81   S    
C29   H93   S    
C33   H104  S    
C61   C81   A    
C41   H12   S    
C7    C23   S    
C101  C127  A    
C18   C134  S    
C34   C36   S    
C60   N23   A    
C55   C87   A    
N27   Ni1   S    
C9    C18   S    
N19   Ni5   S    
C29   H92   S    
C3    C16   S    
C41   C42   S    
C109  N19   A    
C110  N20   A    
C23   C121  S    
N24   Ni7   S    
C31   H97   S    
C98   C133  A    
C26   C27   S    
C57   C89   A    
C28   C29   S    
C59   C83   A    
C30   C31   S    
C99   N9    A    
C90   N32   A    
N3    Ni1   S    
C80   C89   A    
N19   N23   A    
C38   H3    S    
C47   C125  S    
C91   H23   S    
C97   N7    A    
C4    C35   S    
C107  C130  A    
C79   C88   A    
N4    N9    A    
C103  O5    S    
C105  C132  A    
C106  C131  A    
C100  N10   A    
C36   H108  S    
N1    N21   A    
C59   H102  S    
C93   C122  A    
C47   C73   A    
C112  N22   A    
C74   H66   S    
N25   N29   A    
C66   H78   S    
N4    Ni2   S    
N18   Ni6   S    
C113  C123  A    
C39   H6    S    
C10   C19   S    
N9    Ni5   S    
C102  N13   A    
C63   H17   S    
C81   C87   A    
C24   H61   S    
C50   C128  S    
C111  N21   A    
C101  O3    S    
C14   H45   S    
C109  C119  A    
C102  O4    S    
N13   Ni6   S    
C115  N31   A    
N15   Ni8   S    
C2    C8    S    
C70   H83   S    
C97   C132  A    
C6    C10   S    
C32   C33   S    
C50   C75   A    
C97   H29   S    
C103  N14   A    
C61   H2    S    
C82   H58   S    
C17   C119  S    
C63   C72   A    
C19   C117  S    
C32   H101  S    
N25   Ni8   S    
N26   Ni7   S    
C17   C35   S    
C53   C72   A    
C80   H73   S    
C37   O6    S    
C62   H13   S    
C34   H106  S    
C36   H110  S    
C26   O1    S    
C69   H79   S    
C4    C8    S    
C93   H69   S    
C3    H52   S    
C98   N8    A    
C7    C11   S    
C27   H88   S    
C37   H112  S    
C71   C120  A    
C7    C45   S    
N21   Ni5   S    
N32   Ni2   S    
C5    H54   S    
C12   C43   S    
C75   H70   S    
C56   C65   A    
C30   H96   S    
N11   Ni5   S    
C42   H16   S    
C25   C122  S    
C94   H26   S    
C82   C121  A    
N26   N28   A    
C52   C68   A    
N5    Ni4   S    
N6    Ni3   S    
C15   C23   S    
N14   Ni7   S    
N30   Ni4   S    
C134  H49   S    
C56   H19   S    
C42   H14   S    
C92   C128  A    
C62   C85   A    
C94   C129  A    
N8    Ni4   S    
C26   H84   S    
C10   H42   S    
C24   C25   S    
C77   H72   S    
C28   H90   S    
C14   C35   S    
N5    N17   A    
C12   C21   S    
C90   H22   S    
C82   N28   A    
C33   H103  S    
C59   C68   A    
C34   O5    S    
C49   C118  A    
C41   H11   S    
C55   C64   A    
C26   H85   S    
C116  N26   A    
C50   C66   A    
C32   O4    S    
C108  H31   S    
C39   H7    S    
C77   C86   A    
C40   H8    S    
C136  H51   S    
C13   C136  S    
C67   H77   S    
C84   C89   A    
C15   C45   S    
C18   C120  S    
C46   C74   A    
C113  H37   S    
C92   N3    A    
C61   C69   A    
C27   H86   S    
N20   Ni6   S    
N16   Ni7   S    
C4    H53   S    
N22   Ni8   S    
N12   Ni2   S    
C76   H68   S    
C22   C124  S    
N28   Ni3   S    
C9    C126  S    
N10   Ni6   S    
C52   C130  S    
C103  C133  A    
C28   O2    S    
C7    H56   S    
C65   H75   S    
C54   C132  S    
C114  C122  A    
C41   O8    S    
C45   H65   S    
C38   H4    S    
C43   H63   S    
C99   O1    S    
C35   H62   S    
