data_mof_unit_44995.cif
_audit_creation_date              2012-12-10T21:36:36-0500
_audit_creation_method            fapswitch 2.2
_symmetry_space_group_name_H-M    P1
_symmetry_Int_Tables_number       1
_space_group_crystal_system       triclinic
_cell_length_a                    10.537083
_cell_length_b                    16.338591
_cell_length_c                    16.379014
_cell_angle_alpha                 88.468479
_cell_angle_beta                  92.692681
_cell_angle_gamma                 90.628631
_cell_volume                      2815.57597816

loop_
_atom_site_label
_atom_site_type_symbol
_atom_type_description
_atom_site_fract_x
_atom_site_fract_y
_atom_site_fract_z
_atom_type_partial_charge
C1    C     C_R   0.491667 0.490303 0.653886 0.883337
C2    C     C_R   0.565624 0.237947 0.543422 0.199534
C3    C     C_R   0.396651 0.845310 0.497845 0.083982
C4    C     C_R   0.557382 0.150190 0.549883 0.046386
C5    C     C_R   0.495209 0.887259 0.540439 0.157170
C6    C     C_R   0.476883 0.106373 0.493882 0.160376
C7    C     C_R   0.591942 0.839328 0.580782 0.033746
C8    C     C_R   0.403226 0.153358 0.435229 0.045435
C9    C     C_R   0.604659 0.754961 0.560834 0.246382
C10   C     C_R   0.402004 0.241241 0.437877 0.232279
C11   C     C_R   0.741497 0.499367 0.494814 0.913010
C12   C     C_R   0.498572 0.509897 0.345549 0.875379
C13   C     C_R   0.257966 0.500938 0.501569 0.906149
C14   C     C_3   0.959689 0.443762 0.442446 0.204176
C15   C     C_3   0.039619 0.557022 0.548348 0.214909
C16   C     C_3   0.043316 0.425804 0.520848 -0.255672
C17   C     C_3   0.956181 0.574915 0.470268 -0.249548
C18   C     C_3   0.123205 0.502394 0.499738 -0.076630
C19   C     C_3   0.876127 0.498413 0.491809 -0.094336
C20   C     C_3   0.041421 0.519309 0.421869 0.198149
C21   C     C_3   0.958870 0.481651 0.569499 0.197755
C22   C     C_R   0.448205 0.486216 0.738446 -0.150362
C23   C     C_R   0.339578 0.465171 0.891254 0.230201
C24   C     C_R   0.468138 0.513250 0.256773 -0.111930
C25   C     C_R   0.394365 0.554853 0.776214 0.089588
C26   C     C_R   0.447468 0.440384 0.212502 0.105954
C27   C     C_R   0.322796 0.540422 0.846346 0.104706
C28   C     C_R   0.364683 0.443153 0.142819 0.103804
C29   C     C_3   0.673429 0.875837 0.650220 -0.392791
C30   C     C_3   0.641225 0.839279 0.733848 -0.894594
C31   C     C_3   0.329576 0.109285 0.366891 -0.376118
C32   C     C_3   0.408944 0.104072 0.291588 -0.868959
C33   C     C_3   0.719587 0.707609 0.593003 -0.801509
C34   C     C_R   0.350885 0.519132 0.099084 0.240288
C35   C     C_3   0.305771 0.287068 0.383336 -0.861849
C36   C     C_3   0.918608 0.380912 0.379109 -0.948155
C37   C     C_3   0.081865 0.621473 0.608862 -0.944724
C38   C     C_3   0.092780 0.541195 0.338551 -0.941581
C39   C     C_3   0.912715 0.462785 0.654788 -0.942203
C40   C     C_3   0.527123 0.363778 0.229563 -0.409512
C41   C     C_3   0.668550 0.383690 0.226316 -0.859792
C42   C     C_3   0.440515 0.642385 0.758451 -0.372099
C43   C     C_3   0.361572 0.690840 0.693048 -0.835398
C44   C     C_3   0.282463 0.368167 0.123202 -0.414254
C45   C     C_R   0.393039 0.398191 0.853625 0.139410
C46   C     C_3   0.141129 0.388899 0.116757 -0.859765
C47   C     C_3   0.225580 0.603025 0.870323 -0.390206
C48   C     C_3   0.094365 0.564330 0.880853 -0.873655
C49   C     C_3   0.403035 0.315023 0.896059 -0.401719
C50   C     C_3   0.523344 0.309097 0.951561 -0.869101
C51   C     C_3   0.366491 0.675149 0.097105 -0.399963
C52   C     C_3   0.476024 0.696657 0.042313 -0.868826
C53   C     C_3   0.669386 0.278990 0.596365 -0.331813
C54   C     C_3   0.802848 0.264320 0.565806 -0.941654
C55   C     C_3   0.323813 0.726854 0.411159 -0.351676
C56   C     C_R   0.385004 0.592238 0.138950 0.142885
C57   C     C_3   0.331106 0.773318 0.328983 -0.972127
C58   C     C_3   0.638175 0.103812 0.615123 -0.361598
C59   C     C_3   0.564135 0.087952 0.692461 -0.878589
C60   C     C_3   0.264583 0.883376 0.493194 -0.384772
C61   C     C_3   0.204266 0.876030 0.576064 -0.899029
C62   C     C_R   0.441795 0.408682 0.776580 -0.298542
C63   C     C_R   0.436153 0.588421 0.219114 -0.317943
C64   C     C_R   0.414944 0.762442 0.475526 0.187483
H1    H     H_    0.080807 0.365247 0.542114 0.169423
H2    H     H_    0.437288 0.165989 0.269108 0.248650
H3    H     H_    0.495944 0.067849 0.306609 0.266916
H4    H     H_    0.352693 0.073338 0.242012 0.244081
H5    H     H_    0.302716 0.046440 0.385861 0.201738
H6    H     H_    0.237597 0.139077 0.350226 0.204227
H7    H     H_    0.783811 0.739808 0.636645 0.203255
H8    H     H_    0.690953 0.650763 0.625433 0.260526
H9    H     H_    0.779735 0.695510 0.541229 0.239099
H10   H     H_    0.311173 0.269344 0.318848 0.208675
H11   H     H_    0.208902 0.273206 0.404024 0.215582
H12   H     H_    0.919753 0.635403 0.448132 0.156064
H13   H     H_    0.318718 0.353347 0.382535 0.289986
H14   H     H_    0.992285 0.333192 0.376852 0.246127
H15   H     H_    0.826812 0.351768 0.393826 0.262560
H16   H     H_    0.908110 0.411314 0.317962 0.250507
H17   H     H_    0.139843 0.592225 0.659611 0.260101
H18   H     H_    0.137422 0.669473 0.577019 0.243816
H19   H     H_    0.997455 0.649799 0.634128 0.248924
H20   H     H_    0.012691 0.549373 0.292734 0.246120
H21   H     H_    0.148438 0.599023 0.342008 0.240954
H22   H     H_    0.154998 0.491484 0.319382 0.244046
H23   H     H_    0.480889 0.356087 0.747929 0.171470
H24   H     H_    0.995726 0.453838 0.698187 0.248088
H25   H     H_    0.855272 0.514497 0.674780 0.239271
H26   H     H_    0.853698 0.406481 0.654832 0.247187
H27   H     H_    0.690305 0.409088 0.164880 0.258112
H28   H     H_    0.697177 0.429055 0.272980 0.259368
H29   H     H_    0.724426 0.327067 0.238442 0.250831
H30   H     H_    0.507340 0.333274 0.288570 0.243857
H31   H     H_    0.506805 0.317191 0.182435 0.192632
H32   H     H_    0.342112 0.655544 0.637434 0.302542
H33   H     H_    0.270205 0.711428 0.715214 0.227819
H34   H     H_    0.455202 0.644456 0.251176 0.187619
H35   H     H_    0.414374 0.747018 0.675623 0.253017
H36   H     H_    0.443801 0.677820 0.815554 0.187571
H37   H     H_    0.541048 0.641137 0.741256 0.207195
H38   H     H_    0.112342 0.416495 0.174262 0.257331
H39   H     H_    0.119386 0.432200 0.064829 0.266866
H40   H     H_    0.084347 0.332095 0.106735 0.245445
H41   H     H_    0.311415 0.338565 0.067283 0.224800
H42   H     H_    0.293162 0.320847 0.172923 0.195293
H43   H     H_    0.061748 0.533052 0.824154 0.257707
H44   H     H_    0.095805 0.519529 0.932915 0.269106
H45   H     H_    0.541076 0.852870 0.746518 0.262270
H46   H     H_    0.025175 0.612784 0.893082 0.244656
H47   H     H_    0.257784 0.635961 0.925637 0.218039
H48   H     H_    0.211541 0.651108 0.822732 0.217098
H49   H     H_    0.524343 0.356178 0.999227 0.269402
H50   H     H_    0.608793 0.317617 0.914902 0.260224
H51   H     H_    0.527474 0.247729 0.982298 0.242903
H52   H     H_    0.317725 0.302505 0.931800 0.201303
H53   H     H_    0.404992 0.266069 0.850248 0.197949
H54   H     H_    0.483285 0.651349 0.993507 0.262382
H55   H     H_    0.459891 0.757927 0.012946 0.242092
H56   H     H_    0.654626 0.772199 0.737794 0.263833
H57   H     H_    0.567105 0.698361 0.079277 0.263289
H58   H     H_    0.274698 0.676287 0.060995 0.200149
H59   H     H_    0.360893 0.723621 0.143104 0.203377
H60   H     H_    0.872244 0.257630 0.618659 0.244693
H61   H     H_    0.807088 0.209053 0.528038 0.256942
H62   H     H_    0.833740 0.316890 0.528227 0.294584
H63   H     H_    0.659546 0.343844 0.602722 0.264400
H64   H     H_    0.663497 0.257338 0.660871 0.167697
H65   H     H_    0.430157 0.773597 0.308622 0.266342
H66   H     H_    0.300397 0.837708 0.332403 0.266163
H67   H     H_    0.703769 0.867381 0.782082 0.247320
H68   H     H_    0.268425 0.742754 0.282415 0.250818
H69   H     H_    0.345274 0.663879 0.398624 0.271999
H70   H     H_    0.225175 0.725257 0.432120 0.189759
H71   H     H_    0.538293 0.146996 0.719009 0.244709
H72   H     H_    0.624055 0.053639 0.738945 0.244113
H73   H     H_    0.475295 0.052726 0.679647 0.277810
H74   H     H_    0.677723 0.049195 0.588292 0.196245
H75   H     H_    0.727285 0.134438 0.635141 0.216287
H76   H     H_    0.194530 0.810710 0.595064 0.257492
H77   H     H_    0.263032 0.908487 0.623338 0.270601
H78   H     H_    0.776177 0.871090 0.639324 0.196248
H79   H     H_    0.108306 0.903692 0.571671 0.247494
H80   H     H_    0.268704 0.948638 0.475168 0.216451
H81   H     H_    0.197947 0.855527 0.447653 0.208530
H82   H     H_    0.656405 0.940942 0.655304 0.236152
N1    N     N_2   0.327219 0.458099 0.977227 -0.179002
N2    N     N_2   0.330591 0.524504 0.012746 -0.182891
N3    N     N_R   0.515540 0.716920 0.509720 -0.140430
N4    N     N_R   0.484460 0.283080 0.490280 -0.129850
N5    N     N_2   0.489486 0.974761 0.551648 -0.165278
N6    N     N_2   0.479719 0.017483 0.486571 -0.172606
O1    O     O_R   0.494440 0.422540 0.612660 -0.639854
O2    O     O_R   0.505560 0.577460 0.387340 -0.628476
O3    O     O_R   0.504420 0.561850 0.618900 -0.610279
O4    O     O_R   0.495580 0.438150 0.381100 -0.617638
O5    O     O_R   0.681060 0.430360 0.496900 -0.626551
O6    O     O_R   0.318940 0.569640 0.503100 -0.650644
O7    O     O_R   0.691040 0.569670 0.503140 -0.621777
O8    O     O_R   0.308960 0.430330 0.496860 -0.622792
Zn1   Zn    Zn3+2 0.493340 0.406980 0.495830 0.917578
Zn2   Zn    Zn3+2 0.506660 0.593020 0.504170 0.904689

loop_
_geom_bond_atom_site_label_1
_geom_bond_atom_site_label_2
_ccdc_geom_bond_type
C58   H75   S    
C2    N4    A    
C15   C18   S    
C48   H46   S    
C35   H10   S    
C34   C56   A    
C16   C21   S    
C23   C45   A    
C51   H59   S    
C59   H72   S    
C57   H68   S    
N1    N2    D    
C11   O7    A    
C53   C54   S    
C54   H62   S    
C35   H11   S    
C13   C18   S    
C38   H22   S    
C7    C29   S    
C57   H65   S    
C19   C21   S    
C43   H35   S    
C51   C56   S    
C63   H34   S    
C14   C36   S    
C48   H43   S    
C59   H73   S    
C27   C47   S    
C30   H67   S    
C45   C62   A    
C17   C20   S    
C15   C17   S    
C50   H51   S    
C1    O3    A    
C15   C37   S    
C53   H63   S    
C33   H8    S    
C34   N2    S    
C61   H79   S    
C31   H6    S    
C41   H29   S    
C47   C48   S    
C22   C25   A    
C17   H12   S    
N5    N6    D    
C10   C35   S    
C23   C27   A    
C13   O8    A    
C32   H4    S    
C6    N6    S    
C3    C60   S    
C58   H74   S    
C28   C34   A    
C1    C22   S    
C9    C33   S    
C37   H17   S    
C39   H24   S    
C12   O4    A    
C44   C46   S    
O3    Zn2   S    
C54   H61   S    
C49   H53   S    
O7    Zn2   S    
C38   H21   S    
C51   C52   S    
C14   C20   S    
C57   H66   S    
C4    C6    A    
C36   H16   S    
C40   H30   S    
C29   H82   S    
C5    C7    A    
C46   H40   S    
C6    C8    A    
C30   H45   S    
C58   C59   S    
C55   H69   S    
C23   N1    S    
C28   C44   S    
O1    Zn1   S    
C60   C61   S    
C50   H50   S    
C2    C4    A    
O6    Zn2   S    
C29   C30   S    
C53   H64   S    
C42   H36   S    
C22   C62   A    
C20   C38   S    
C52   H57   S    
C31   H5    S    
C31   C32   S    
C21   C39   S    
C45   C49   S    
C9    N3    A    
C55   C64   S    
C41   H28   S    
C43   H32   S    
C56   C63   A    
C16   C18   S    
C1    O1    A    
C36   H15   S    
C32   H3    S    
C61   H77   S    
C40   C41   S    
C41   H27   S    
O4    Zn1   S    
C24   C63   A    
C55   C57   S    
C14   C16   S    
C37   H18   S    
C42   C43   S    
C40   H31   S    
C42   H37   S    
O5    Zn1   S    
C13   O6    A    
C11   O5    A    
C44   H41   S    
C32   H2    S    
C62   H23   S    
C33   H9    S    
C7    C9    A    
N4    Zn1   S    
C54   H60   S    
C39   H26   S    
C38   H20   S    
C8    C31   S    
C14   C19   S    
O2    Zn2   S    
C43   H33   S    
C12   O2    A    
C3    C5    A    
C2    C53   S    
C25   C42   S    
C61   H76   S    
C16   H1    S    
C44   H42   S    
C25   C27   A    
C55   H70   S    
C46   H39   S    
C12   C24   S    
C26   C28   A    
C5    N5    S    
C64   N3    A    
C50   H49   S    
O8    Zn1   S    
C36   H14   S    
C60   H80   S    
C24   C26   A    
C26   C40   S    
C48   H44   S    
C30   H56   S    
C47   H47   S    
C29   H78   S    
C59   H71   S    
C17   C19   S    
C35   H13   S    
C18   C20   S    
C11   C19   S    
C3    C64   A    
C33   H7    S    
C52   H55   S    
C15   C21   S    
C49   H52   S    
C8    C10   A    
C49   C50   S    
C60   H81   S    
C4    C58   S    
C51   H58   S    
C37   H19   S    
N3    Zn2   S    
C39   H25   S    
C10   N4    A    
C47   H48   S    
C46   H38   S    
C52   H54   S    
