data_mof_unit_5007.cif
_audit_creation_date              2012-12-11T17:36:22-0500
_audit_creation_method            fapswitch 2.2
_symmetry_space_group_name_H-M    P1
_symmetry_Int_Tables_number       1
_space_group_crystal_system       triclinic
_cell_length_a                    25.776088
_cell_length_b                    6.904864
_cell_length_c                    21.711001
_cell_angle_alpha                 90.006695
_cell_angle_beta                  96.252903
_cell_angle_gamma                 90.007235
_cell_volume                      3841.14377534

loop_
_atom_site_label
_atom_site_type_symbol
_atom_type_description
_atom_site_fract_x
_atom_site_fract_y
_atom_site_fract_z
_atom_type_partial_charge
O1    O     O_R   0.208650 0.594520 0.175450 -0.534983
O2    O     O_R   0.791350 0.405480 0.824550 -0.533784
O3    O     O_R   0.291350 0.094520 0.324550 -0.534975
O4    O     O_R   0.708650 0.905480 0.675450 -0.533774
O5    O     O_R   0.192980 0.260780 0.300160 -0.540785
O6    O     O_R   0.807020 0.739220 0.699840 -0.540785
O7    O     O_R   0.307020 0.760780 0.199840 -0.540776
O8    O     O_R   0.692980 0.239220 0.800160 -0.540800
C1    C     C_R   0.178787 0.432857 0.318414 0.686094
C2    C     C_R   0.821198 0.567146 0.681565 0.685511
C3    C     C_R   0.321212 0.932861 0.181586 0.686042
C4    C     C_R   0.678802 0.067143 0.818434 0.685460
O9    O     O_R   0.202550 0.264660 0.174420 -0.535685
O10   O     O_R   0.797450 0.735340 0.825580 -0.536892
O11   O     O_R   0.297450 0.764660 0.325580 -0.535675
O12   O     O_R   0.702550 0.235340 0.674420 -0.536909
O13   O     O_R   0.300990 0.096480 0.197920 -0.539252
O14   O     O_R   0.699010 0.903520 0.802080 -0.538910
O15   O     O_R   0.199010 0.596480 0.302080 -0.539230
O16   O     O_R   0.800990 0.403520 0.697920 -0.538897
C5    C     C_R   0.190910 0.433098 0.151091 0.698585
C6    C     C_R   0.809205 0.566447 0.848793 0.698295
C7    C     C_R   0.309091 0.933143 0.348903 0.698599
C8    C     C_R   0.690797 0.066402 0.651210 0.698282
O17   O     O_3   0.282290 0.427760 0.257860 -0.364060
O18   O     O_3   0.717710 0.572240 0.742140 -0.363676
O19   O     O_3   0.217710 0.927760 0.242140 -0.364063
O20   O     O_3   0.782290 0.072240 0.757860 -0.363645
V1    V     V_3+5 0.244010 0.152080 0.248540 1.420585
V2    V     V_3+5 0.755990 0.847920 0.751460 1.424040
V3    V     V_3+5 0.255990 0.652080 0.251460 1.420619
V4    V     V_3+5 0.744010 0.347920 0.748540 1.423970
C9    C     C_R   0.657423 0.057191 0.591572 -0.057268
C10   C     C_R   0.343034 0.935192 0.408246 -0.058426
C11   C     C_R   0.842572 0.557490 0.908443 -0.057425
C12   C     C_R   0.156949 0.434910 0.091755 -0.058649
C13   C     C_R   0.648929 0.081513 0.479897 -0.139357
C14   C     C_R   0.355325 0.840250 0.516009 -0.139160
C15   C     C_R   0.851191 0.584919 0.020052 -0.139487
C16   C     C_R   0.144448 0.337371 0.984226 -0.139236
C17   C     C_R   0.679396 0.093725 0.536793 -0.156355
C18   C     C_R   0.322697 0.869182 0.461417 -0.152207
C19   C     C_R   0.820702 0.596169 0.963151 -0.156363
C20   C     C_R   0.177153 0.367145 0.038709 -0.152033
C21   C     C_R   0.604150 0.009458 0.588967 -0.212255
C22   C     C_R   0.396908 0.972486 0.410304 -0.215900
C23   C     C_R   0.895773 0.508620 0.911124 -0.212066
C24   C     C_R   0.103123 0.473208 0.089665 -0.215904
C25   C     C_R   0.572861 0.984301 0.531199 0.084336
C26   C     C_R   0.431845 0.926573 0.463910 0.085444
C27   C     C_R   0.927079 0.484602 0.968933 0.084307
C28   C     C_R   0.068085 0.426464 0.036213 0.085464
C29   C     C_R   0.596091 0.028345 0.476637 0.063475
C30   C     C_R   0.409459 0.866784 0.517638 0.064569
C31   C     C_R   0.903954 0.530750 0.023400 0.063463
C32   C     C_R   0.090350 0.364778 0.982606 0.064574
C33   C     C_R   0.518977 0.925270 0.525683 -0.085044
C34   C     C_R   0.487822 0.941359 0.466720 -0.085385
C35   C     C_R   0.980899 0.424803 0.974552 -0.085011
C36   C     C_R   0.012125 0.442123 0.033434 -0.085314
C37   C     C_R   0.514481 0.964026 0.412953 0.346331
C38   C     C_R   0.495093 0.844595 0.576060 0.347475
C39   C     C_R   0.985541 0.466864 0.087172 0.346307
C40   C     C_R   0.004647 0.342240 0.924365 0.347446
C41   C     C_R   0.567081 0.013894 0.418805 -0.186522
C42   C     C_R   0.441171 0.824528 0.572090 -0.184811
C43   C     C_R   0.932997 0.517505 0.081243 -0.186609
C44   C     C_R   0.058545 0.321450 0.928310 -0.184792
H1    H     H_    0.585970 0.035072 0.377043 0.146959
H2    H     H_    0.424046 0.766544 0.611686 0.146708
H3    H     H_    0.914173 0.540305 0.122970 0.146961
H4    H     H_    0.075569 0.262024 0.888848 0.146708
H5    H     H_    0.410413 0.035212 0.369448 0.153553
H6    H     H_    0.587846 0.998859 0.632546 0.152117
H7    H     H_    0.089734 0.537217 0.130395 0.153691
H8    H     H_    0.912030 0.496452 0.867555 0.152177
H9    H     H_    0.281436 0.837428 0.460378 0.102760
H10   H     H_    0.720279 0.131919 0.538119 0.103549
H11   H     H_    0.218368 0.334562 0.039779 0.102835
H12   H     H_    0.779886 0.635370 0.961763 0.103662
H13   H     H_    0.666907 0.112306 0.438104 0.115004
H14   H     H_    0.338314 0.790475 0.556693 0.114336
H15   H     H_    0.833293 0.617378 0.061781 0.115030
H16   H     H_    0.161361 0.286164 0.943645 0.114345
C45   C     C_R   0.427441 0.793675 0.079494 -0.126804
C46   C     C_R   0.572838 0.206377 0.920891 -0.128503
C47   C     C_R   0.072562 0.293661 0.420514 -0.126828
C48   C     C_R   0.927159 0.706394 0.579100 -0.128542
H17   H     H_    0.445680 0.663162 0.064452 0.105782
H18   H     H_    0.554745 0.336925 0.936137 0.106199
H19   H     H_    0.054327 0.163145 0.435565 0.105780
H20   H     H_    0.945250 0.836944 0.563850 0.106194
C49   C     C_R   0.388170 0.778720 0.119429 -0.160993
C50   C     C_R   0.612070 0.221338 0.880904 -0.163197
C51   C     C_R   0.111834 0.278703 0.380579 -0.161120
C52   C     C_R   0.887927 0.721355 0.619088 -0.163229
H21   H     H_    0.377021 0.636370 0.134218 0.118620
H22   H     H_    0.623345 0.363727 0.866290 0.119813
H23   H     H_    0.122987 0.136350 0.365799 0.118616
H24   H     H_    0.876651 0.863747 0.633699 0.119821
C53   C     C_R   0.363586 0.945797 0.139739 -0.053998
C54   C     C_R   0.636461 0.054211 0.860328 -0.055608
C55   C     C_R   0.136411 0.445786 0.360259 -0.053992
C56   C     C_R   0.863538 0.554223 0.639670 -0.055644
C57   C     C_R   0.379606 0.127748 0.118977 -0.160023
C58   C     C_R   0.620295 0.872208 0.880887 -0.158096
C59   C     C_R   0.120385 0.627743 0.381009 -0.159900
C60   C     C_R   0.879704 0.372217 0.619115 -0.158133
H25   H     H_    0.361774 0.259940 0.133282 0.121338
H26   H     H_    0.637977 0.739975 0.866372 0.122103
H27   H     H_    0.138212 0.759940 0.366695 0.121323
H28   H     H_    0.862025 0.239981 0.633634 0.122123
C61   C     C_R   0.418756 0.142201 0.079175 -0.131907
C62   C     C_R   0.581184 0.857750 0.920739 -0.132159
C63   C     C_R   0.081235 0.642199 0.420809 -0.131895
C64   C     C_R   0.918815 0.357759 0.579262 -0.132218
H29   H     H_    0.430106 0.283927 0.063943 0.105238
H30   H     H_    0.569713 0.715982 0.935803 0.105427
H31   H     H_    0.069880 0.783931 0.436032 0.105220
H32   H     H_    0.930287 0.215987 0.564203 0.105429
C65   C     C_R   0.442900 0.975572 0.059078 0.130129
C66   C     C_R   0.557226 0.024426 0.941094 0.129426
C67   C     C_R   0.057097 0.475566 0.440918 0.130142
C68   C     C_R   0.942771 0.524437 0.558902 0.129425
C69   C     C_1   0.483252 0.992318 0.017485 -0.054862
C70   C     C_1   0.516891 0.007668 0.982709 -0.054884
C71   C     C_1   0.016745 0.492318 0.482511 -0.054879
C72   C     C_1   0.983106 0.507675 0.517287 -0.054908
O21   O     O_3   0.492655 0.917350 0.354127 -0.648880
H33   H     H_    0.470540 0.801159 0.357642 0.287089
O22   O     O_3   0.522930 0.762286 0.627171 -0.648562
H34   H     H_    0.553706 0.696896 0.612842 0.289185
O23   O     O_3   0.007365 0.421565 0.146107 -0.648907
H35   H     H_    0.029333 0.304840 0.142893 0.287031
O24   O     O_3   0.976680 0.258844 0.873524 -0.648565
H36   H     H_    0.945849 0.194445 0.888080 0.289251

loop_
_geom_bond_atom_site_label_1
_geom_bond_atom_site_label_2
_ccdc_geom_bond_type
O17   V3    S    
C48   C52   A    
O1    C5    A    
C47   H19   S    
O19   V1    S    
C9    C21   A    
C16   H16   S    
O3    C7    A    
C10   C18   A    
C48   C68   A    
C11   C23   A    
C25   C33   A    
O24   H36   S    
C5    C12   S    
C42   H2    S    
O7    C3    A    
C6    C11   S    
O5    C1    A    
C26   C30   A    
C58   C62   A    
C36   C39   A    
C39   O23   S    
C57   C61   A    
C23   H8    S    
C14   C18   A    
C40   C44   A    
C58   H26   S    
O4    C8    A    
C51   H23   S    
C44   H4    S    
C50   H22   S    
O1    V3    S    
O13   V1    S    
C31   C43   A    
O2    V4    S    
O3    V1    S    
C46   C50   A    
C65   C69   S    
C45   C49   A    
C1    O15   A    
C15   C31   A    
C48   H20   S    
C2    O16   A    
C16   C32   A    
C47   C51   A    
O2    C6    A    
C45   C65   A    
C10   C22   A    
C11   C19   A    
C16   C20   A    
C43   H3    S    
C37   O21   S    
C68   C72   S    
C13   C29   A    
C34   C37   A    
O11   C7    A    
C40   O24   S    
O15   V3    S    
C35   C36   A    
O12   C8    A    
C14   H14   S    
C53   C57   A    
C24   H7    S    
C13   H13   S    
O10   V2    S    
C51   C55   A    
O5    V1    S    
O17   V1    S    
C39   C43   A    
C63   C67   A    
C38   C42   A    
O19   V3    S    
O8    V4    S    
O20   V4    S    
O7    V3    S    
C46   H18   S    
C49   C53   A    
C17   H10   S    
C45   H17   S    
O18   V4    S    
C15   C19   A    
C33   C38   A    
C19   H12   S    
C32   C44   A    
C60   H28   S    
C21   H6    S    
C26   C34   A    
C66   C70   S    
C4    C54   S    
C37   C41   A    
C67   C71   S    
C14   C30   A    
C21   C25   A    
O8    C4    A    
C7    C10   S    
C35   C40   A    
O9    C5    A    
C3    C53   S    
C59   C63   A    
C62   H30   S    
C61   H29   S    
O6    V2    S    
O18   V2    S    
C63   H31   S    
C52   C56   A    
O23   H35   S    
C12   C20   A    
C27   C35   A    
O22   H34   S    
C49   H21   S    
C56   C60   A    
C29   C41   A    
O21   H33   S    
O16   V4    S    
O9    V1    S    
C57   H25   S    
C3    O13   A    
C64   C68   A    
C59   H27   S    
C38   O22   S    
C20   H11   S    
O6    C2    A    
C23   C27   A    
O11   V3    S    
C30   C42   A    
O12   V4    S    
C22   C26   A    
C8    C9    S    
C9    C17   A    
O10   C6    A    
C2    C56   S    
C15   H15   S    
C47   C67   A    
C60   C64   A    
C33   C34   A    
C69   C70   T    
C28   C32   A    
C41   H1    S    
C52   H24   S    
O20   V2    S    
C1    C55   S    
C12   C24   A    
C27   C31   A    
C13   C17   A    
C46   C66   A    
C25   C29   A    
O14   V2    S    
C62   C66   A    
C64   H32   S    
C24   C28   A    
C61   C65   A    
C50   C54   A    
C18   H9    S    
C28   C36   A    
C54   C58   A    
C4    O14   A    
C55   C59   A    
C22   H5    S    
O4    V2    S    
C71   C72   T    
