data_mof_unit_12410.cif
_audit_creation_date              2012-12-10T17:10:18-0500
_audit_creation_method            fapswitch 2.2
_symmetry_space_group_name_H-M    P1
_symmetry_Int_Tables_number       1
_space_group_crystal_system       triclinic
_cell_length_a                    15.717943
_cell_length_b                    10.649897
_cell_length_c                    10.076146
_cell_angle_alpha                 91.989322
_cell_angle_beta                  90.570834
_cell_angle_gamma                 90.519685
_cell_volume                      1685.51613344

loop_
_atom_site_label
_atom_site_type_symbol
_atom_type_description
_atom_site_fract_x
_atom_site_fract_y
_atom_site_fract_z
_atom_type_partial_charge
C1    C     C_R   0.503446 0.262884 0.497561 0.808145
C2    C     C_3   0.082789 0.496741 0.499984 0.062690
C3    C     C_3   0.972726 0.615292 0.533317 -0.276200
C4    C     C_3   0.917018 0.497946 0.501690 0.107246
C5    C     C_3   0.026673 0.576197 0.412319 0.588158
C6    C     C_3   0.969919 0.460735 0.378864 -0.244140
C7    C     C_1   0.173756 0.497528 0.498240 -0.019310
C8    C     C_1   0.826180 0.498451 0.502255 -0.047239
C9    C     C_2   0.451530 0.931554 0.401256 0.609453
C10   C     C_2   0.472285 0.867439 0.508708 -0.356333
C11   C     C_2   0.449592 0.067985 0.420312 -0.433173
C12   C     C_R   0.338057 0.499595 0.499358 0.885187
C13   C     C_2   0.511912 0.129343 0.488153 0.361702
C14   C     C_2   0.540805 0.583761 0.929798 0.177501
C15   C     C_2   0.553327 0.563463 0.076802 0.056765
C16   C     C_R   0.492474 0.736846 0.502006 0.940041
C17   C     C_R   0.661925 0.500052 0.500629 0.887337
C18   C     C_3   0.971687 0.416455 0.591425 -0.139736
C19   C     C_3   0.026685 0.380288 0.469035 -0.264461
C20   C     C_1   0.249084 0.498525 0.498109 -0.159116
C21   C     C_1   0.750867 0.499196 0.501911 -0.200694
C22   C     C_3   0.028978 0.532833 0.620903 0.152605
H1    H     H_    0.050812 0.284932 0.443452 0.161447
H2    H     H_    0.489101 0.414784 0.890438 0.193032
H3    H     H_    0.608001 0.605634 0.127776 0.105210
H4    H     H_    0.946696 0.351116 0.665499 0.136160
H5    H     H_    0.943551 0.431836 0.279725 0.142271
H6    H     H_    0.948869 0.710691 0.559444 0.139651
H7    H     H_    0.476705 0.913956 0.606507 0.148084
H8    H     H_    0.397573 0.118788 0.375283 0.116956
N1    N     N_2   0.500900 0.501330 0.852150 -0.200980
N2    N     N_2   0.500930 0.501360 0.147810 0.071908
O1    O     O_R   0.499990 0.319060 0.613040 -0.622511
O2    O     O_R   0.500010 0.319100 0.386900 -0.655027
O3    O     O_R   0.376760 0.499970 0.613050 -0.605009
O4    O     O_R   0.376790 0.500010 0.386910 -0.579799
O5    O     O_R   0.499990 0.680900 0.613100 -0.656872
O6    O     O_R   0.500010 0.680940 0.386960 -0.542601
O7    O     O_R   0.623210 0.499990 0.613090 -0.632669
O8    O     O_R   0.623240 0.500030 0.386950 -0.629798
Zn1   Zn    Zn3+2 0.499980 0.499970 0.650990 0.925892
Zn2   Zn    Zn3+2 0.500020 0.500030 0.349010 1.001239
O9    O     O_3   0.582347 0.065578 0.537981 -0.626886
C23   C     C_3   0.653988 0.144527 0.561122 -0.307111
H9    H     H_    0.644212 0.208576 0.648917 0.180589
H10   H     H_    0.669917 0.198304 0.471755 0.149370
H11   H     H_    0.709502 0.084995 0.583506 0.185421
C24   C     C_3   0.575542 0.702981 0.871134 -0.330249
C25   C     C_3   0.630406 0.787209 0.964337 -0.993277
H12   H     H_    0.594030 0.817749 0.053457 0.276979
H13   H     H_    0.688862 0.737289 0.994508 0.261535
H14   H     H_    0.650052 0.872486 0.911658 0.269804
H15   H     H_    0.615310 0.677597 0.784283 0.249908
H16   H     H_    0.520768 0.759980 0.839072 0.228776
O10   O     O_3   0.425095 0.473446 0.089840 -0.524164
C26   C     C_3   0.406339 0.347000 0.115300 -0.156809
H17   H     H_    0.377684 0.337774 0.214228 0.193332
H18   H     H_    0.463184 0.285668 0.105339 0.110565
H19   H     H_    0.358586 0.311749 0.040906 0.132111
O11   O     O_3   0.062162 0.657633 0.319814 -0.592532
C27   C     C_3   0.996183 0.719144 0.253256 -0.325969
H20   H     H_    0.958299 0.778509 0.323305 0.158270
H21   H     H_    0.954167 0.651080 0.197112 0.155927
H22   H     H_    0.024904 0.782188 0.180300 0.197651
C28   C     C_3   0.065790 0.572152 0.757107 -0.383201
C29   C     C_3   0.995630 0.600820 0.856814 -0.869679
H23   H     H_    0.955559 0.678998 0.822644 0.256901
H24   H     H_    0.954993 0.516344 0.869676 0.255018
H25   H     H_    0.024642 0.629004 0.954354 0.259047
H26   H     H_    0.105890 0.495113 0.793927 0.213425
H27   H     H_    0.106506 0.657037 0.747186 0.212750
O12   O     O_3   0.429080 0.868370 0.281842 -0.570658
C30   C     C_3   0.437602 0.945014 0.171187 -0.284077
H28   H     H_    0.500777 0.993154 0.170490 0.154759
H29   H     H_    0.385134 0.014050 0.167511 0.151231
H30   H     H_    0.432773 0.884408 0.079569 0.198228

loop_
_geom_bond_atom_site_label_1
_geom_bond_atom_site_label_2
_ccdc_geom_bond_type
C29   H24   S    
O10   C26   S    
C30   H28   S    
O4    Zn2   S    
C2    C7    S    
O2    Zn2   S    
C9    O12   S    
C14   N1    D    
C4    C8    S    
C1    O1    A    
C15   N2    D    
O7    Zn1   S    
C24   H16   S    
C6    C19   S    
C3    H6    S    
O6    Zn2   S    
C5    C6    S    
C15   H3    S    
C29   H25   S    
C28   H26   S    
C26   H17   S    
C18   C19   S    
C17   O7    A    
C27   H21   S    
C11   H8    S    
C25   H13   S    
C18   H4    S    
C2    C22   S    
C12   O4    A    
C9    C10   D    
N2    O10   S    
C23   H11   S    
C16   O5    A    
C4    C18   S    
O8    Zn2   S    
C29   H23   S    
C30   H29   S    
C23   H10   S    
C1    O2    A    
C24   H15   S    
C4    C6    S    
C14   C24   S    
C28   H27   S    
C7    C20   T    
C17   C21   S    
O11   C27   S    
C17   O8    A    
C27   H22   S    
C19   H1    S    
O9    C23   S    
C22   C28   S    
C6    H5    S    
C25   H14   S    
C12   C20   S    
C8    C21   T    
C12   O3    A    
C9    C11   S    
C24   C25   S    
C25   H12   S    
C30   H30   S    
C2    C5    S    
C1    C13   S    
C3    C4    S    
C13   O9    S    
C23   H9    S    
N1    Zn1   S    
C5    O11   S    
C2    C19   S    
C18   C22   S    
O12   C30   S    
C3    C5    S    
C26   H19   S    
O1    Zn1   S    
H2    N1    S    
C10   C16   S    
C11   C13   D    
C10   H7    S    
C26   H18   S    
O5    Zn1   S    
C27   H20   S    
O3    Zn1   S    
C28   C29   S    
N2    Zn2   S    
C14   C15   S    
C3    C22   S    
C16   O6    A    
