data_mof_unit_42847.cif
_audit_creation_date              2012-10-26T20:20:49-0400
_audit_creation_method            fapswitch 2.2
_symmetry_space_group_name_H-M    P1
_symmetry_Int_Tables_number       1
_space_group_crystal_system       triclinic
_cell_length_a                    8.717298
_cell_length_b                    10.802273
_cell_length_c                    9.533913
_cell_angle_alpha                 90.101776
_cell_angle_beta                  97.82982
_cell_angle_gamma                 90.774811
_cell_volume                      889.319323538

loop_
_atom_site_label
_atom_site_type_symbol
_atom_type_description
_atom_site_fract_x
_atom_site_fract_y
_atom_site_fract_z
_atom_type_partial_charge
C1    C     C_R   0.502266 0.262273 0.499940 0.575244
C2    C     C_R   0.427524 0.065130 0.598748 -0.171273
C3    C     C_R   0.495597 0.871445 0.499858 -0.025670
C4    C     C_R   0.502339 0.128393 0.498954 -0.020423
C5    C     C_R   0.402328 0.423661 0.062518 -0.044893
C6    C     C_R   0.598663 0.575685 0.937249 -0.031864
C7    C     C_R   0.400469 0.423340 0.912268 0.371016
C8    C     C_R   0.600157 0.577000 0.088384 0.382310
C9    C     C_3   0.589474 0.111265 0.166387 0.006511
C10   C     C_3   0.682275 0.184459 0.069916 -0.357603
C11   C     C_3   0.187973 0.856580 0.636063 0.001061
C12   C     C_R   0.498064 0.737674 0.500042 0.554905
C13   C     C_3   0.099159 0.799513 0.746949 -0.368896
C14   C     C_3   0.161230 0.319330 0.857863 -0.028452
C15   C     C_3   0.142222 0.190063 0.917707 -0.399139
C16   C     C_3   0.790092 0.739711 0.119581 -0.044197
C17   C     C_3   0.941797 0.686710 0.083835 -0.401525
C18   C     C_R   0.203774 0.499710 0.463820 0.527244
C19   C     C_R   0.796163 0.501963 0.536124 0.548300
C20   C     C_2   0.037879 0.496997 0.443994 -0.153177
C21   C     C_2   0.961892 0.507368 0.555623 -0.162774
C22   C     C_R   0.572788 0.063382 0.397305 0.228522
C23   C     C_R   0.420262 0.936760 0.597761 0.226868
C24   C     C_R   0.571118 0.934641 0.400842 -0.174315
Cu1   Cu    Cu3+1 0.500000 0.500020 0.640660 0.996350
Cu2   Cu    Cu3+1 0.500000 0.499980 0.359340 0.998102
H1    H     H_    0.977938 0.484346 0.337190 0.144904
H2    H     H_    0.180453 0.791750 0.544253 0.132991
H3    H     H_    0.131418 0.945428 0.601060 0.120216
H4    H     H_    0.099830 0.864905 0.837075 0.141157
H5    H     H_    0.977361 0.780133 0.700227 0.098435
H6    H     H_    0.153823 0.711538 0.786209 0.167697
H7    H     H_    0.328637 0.361110 0.112029 0.116914
H8    H     H_    0.676525 0.632558 0.885604 0.121382
H9    H     H_    0.081217 0.324088 0.757224 0.160327
H10   H     H_    0.122350 0.391420 0.928560 0.094744
H11   H     H_    0.217480 0.178720 0.020064 0.125915
H12   H     H_    0.021554 0.520807 0.662295 0.109851
H13   H     H_    0.019995 0.174733 0.934699 0.102176
H14   H     H_    0.172589 0.119072 0.842121 0.164357
H15   H     H_    0.822338 0.813451 0.199722 0.147741
H16   H     H_    0.722939 0.788105 0.028880 0.109507
H17   H     H_    0.921073 0.606525 0.010580 0.130869
H18   H     H_    0.006729 0.759517 0.033874 0.103173
H19   H     H_    0.014313 0.656367 0.182138 0.161045
H20   H     H_    0.632599 0.883866 0.328783 0.145916
H21   H     H_    0.371568 0.115242 0.675746 0.171726
H22   H     H_    0.469366 0.147223 0.153228 0.135279
H23   H     H_    0.586713 0.012642 0.132065 0.118593
H24   H     H_    0.800463 0.146140 0.075759 0.136841
H25   H     H_    0.624350 0.178351 0.958839 0.123765
H26   H     H_    0.691528 0.283175 0.102967 0.171721
N1    N     N_R   0.500040 0.500030 0.852080 -0.243605
N2    N     N_R   0.499960 0.499970 0.147920 -0.246058
O1    O     O_R   0.499990 0.319660 0.618740 -0.468239
O2    O     O_3   0.343692 0.876255 0.695966 -0.543510
O3    O     O_3   0.313783 0.337042 0.825318 -0.532100
O4    O     O_3   0.702582 0.648879 0.181893 -0.523454
O5    O     O_R   0.500010 0.680340 0.381260 -0.478724
O6    O     O_R   0.499990 0.319630 0.381170 -0.479798
O7    O     O_R   0.500010 0.680370 0.618830 -0.468097
O8    O     O_R   0.274840 0.500010 0.591370 -0.466681
O9    O     O_R   0.725160 0.499990 0.408630 -0.441392
O10   O     O_R   0.274830 0.499980 0.353800 -0.525570
O11   O     O_R   0.725170 0.500020 0.646200 -0.528750
O12   O     O_3   0.660139 0.125584 0.308004 -0.543497

loop_
_geom_bond_atom_site_label_1
_geom_bond_atom_site_label_2
_ccdc_geom_bond_type
Cu1   O7    S    
C2    C4    A    
Cu2   O9    S    
C17   H17   S    
C9    H23   S    
C22   O12   S    
C20   H1    S    
C2    H21   S    
C4    C22   A    
C9    C10   S    
C13   H4    S    
C13   H6    S    
C3    C23   A    
C1    C4    S    
C10   H26   S    
C1    O1    A    
C17   H18   S    
C24   H20   S    
C23   O2    S    
C11   O2    S    
C16   O4    S    
C12   O7    A    
C11   C13   S    
C15   H13   S    
C3    C24   A    
C11   H2    S    
C10   H25   S    
Cu2   N2    S    
C19   C21   S    
Cu1   N1    S    
C19   O11   A    
C18   C20   S    
Cu1   O8    S    
C14   H10   S    
C13   H5    S    
C17   H19   S    
C22   C24   A    
C15   H14   S    
C6    H8    S    
C7    N1    A    
C6    N1    A    
C18   O10   A    
C5    H7    S    
C16   H16   S    
C5    N2    A    
C2    C23   A    
Cu1   O11   S    
C20   C21   D    
C11   H3    S    
C9    H22   S    
Cu2   O5    S    
C1    O6    A    
C8    N2    A    
C14   H9    S    
C5    C7    A    
C14   O3    S    
Cu2   O10   S    
C9    O12   S    
C15   H11   S    
C6    C8    A    
C3    C12   S    
C8    O4    S    
Cu1   Cu2   S    
C14   C15   S    
C12   O5    A    
Cu2   O6    S    
C16   H15   S    
C7    O3    S    
C18   O8    A    
C21   H12   S    
Cu1   O1    S    
C19   O9    A    
C16   C17   S    
C10   H24   S    
