data_mof_unit_60804.cif
_audit_creation_date              2012-12-10T19:09:04-0500
_audit_creation_method            fapswitch 2.2
_symmetry_space_group_name_H-M    P1
_symmetry_Int_Tables_number       1
_space_group_crystal_system       triclinic
_cell_length_a                    30.23939
_cell_length_b                    30.239242
_cell_length_c                    18.225918
_cell_angle_alpha                 90.147778
_cell_angle_beta                  90.104667
_cell_angle_gamma                 90.003911
_cell_volume                      16665.991978

loop_
_atom_site_label
_atom_site_type_symbol
_atom_type_description
_atom_site_fract_x
_atom_site_fract_y
_atom_site_fract_z
_atom_type_partial_charge
C1    C     C_R   0.226328 0.999977 0.500131 -0.008151
C2    C     C_R   0.962591 0.203613 0.472578 0.081018
C3    C     C_R   0.013276 0.657072 0.563851 0.131055
C4    C     C_R   0.656887 0.012752 0.435858 0.130999
C5    C     C_R   0.015070 0.342034 0.439736 0.068769
C6    C     C_R   0.342966 0.987103 0.435855 0.130905
C7    C     C_R   0.986824 0.656838 0.435886 0.131466
C8    C     C_R   0.843644 0.514839 0.065132 0.136054
C9    C     C_R   0.487287 0.843172 0.064311 0.131011
C10   C     C_R   0.156991 0.486478 0.063894 0.131845
C11   C     C_R   0.512806 0.157066 0.064155 0.130876
C12   C     C_R   0.156927 0.513346 0.936350 0.131205
C13   C     C_R   0.796265 0.963274 0.470162 0.081817
C14   C     C_R   0.512761 0.842917 0.935962 0.130878
C15   C     C_R   0.842124 0.484955 0.939296 0.068873
C16   C     C_R   0.487166 0.156839 0.935743 0.131021
C17   C     C_R   0.366117 0.999986 0.500034 -0.087253
C18   C     C_R   0.000090 0.366029 0.501703 -0.078670
C19   C     C_R   0.633886 0.000015 0.500015 -0.087215
C20   C     C_R   0.000021 0.633884 0.499901 -0.087200
C21   C     C_R   0.866030 0.499866 0.001481 -0.078347
C22   C     C_R   0.500005 0.866114 0.000097 -0.087221
C23   C     C_R   0.133886 0.499965 0.000110 -0.087437
C24   C     C_R   0.036633 0.796278 0.469537 0.081779
C25   C     C_R   0.499998 0.133883 0.999955 -0.087249
C26   C     C_R   0.274431 0.999955 0.500095 0.057459
C27   C     C_R   0.998940 0.274316 0.503960 0.065751
C28   C     C_R   0.725575 0.000117 0.500072 0.057517
C29   C     C_R   0.000057 0.725564 0.499807 0.057081
C30   C     C_R   0.774315 0.501018 0.003500 0.065761
C31   C     C_R   0.500059 0.774426 0.000253 0.057496
C32   C     C_R   0.225565 0.499920 0.000222 0.057055
C33   C     C_R   0.499946 0.225571 0.999923 0.057448
C34   C     C_3   0.366486 0.025287 0.635153 -0.440882
C35   C     C_R   0.796391 0.036939 0.529760 0.081579
C36   C     C_3   0.383620 0.984680 0.677004 -0.330586
C37   C     C_3   0.346277 0.954815 0.703847 -0.842049
C38   C     C_3   0.970882 0.367762 0.634578 -0.445290
C39   C     C_3   0.010532 0.384932 0.679114 -0.330356
C40   C     C_3   0.039428 0.347614 0.708952 -0.840170
C41   C     C_3   0.633823 0.974971 0.635050 -0.440652
C42   C     C_3   0.616586 0.015617 0.676929 -0.330593
C43   C     C_3   0.653858 0.045679 0.703921 -0.842127
C44   C     C_3   0.026146 0.633937 0.634569 -0.439269
C45   C     C_3   0.985801 0.616761 0.676990 -0.332108
C46   C     C_R   0.035311 0.203684 0.535242 0.081473
C47   C     C_3   0.955967 0.654090 0.704273 -0.843033
C48   C     C_3   0.633546 0.025012 0.364953 -0.440684
C49   C     C_3   0.616406 0.984294 0.323049 -0.330752
C50   C     C_3   0.653746 0.954345 0.296212 -0.842201
C51   C     C_3   0.030016 0.363866 0.369313 -0.435488
C52   C     C_3   0.990242 0.374866 0.320377 -0.359505
C53   C     C_3   0.004924 0.386098 0.242587 -0.843315
C54   C     C_3   0.366153 0.974593 0.364963 -0.440769
C55   C     C_3   0.383351 0.015147 0.323137 -0.330531
C56   C     C_3   0.346050 0.045106 0.296213 -0.841963
C57   C     C_R   0.203700 0.963218 0.529834 0.081787
C58   C     C_3   0.974054 0.633462 0.365142 -0.441092
C59   C     C_3   0.014476 0.616310 0.322756 -0.332258
C60   C     C_3   0.044257 0.653635 0.295600 -0.840908
C61   C     C_3   0.867590 0.528685 0.134761 -0.442874
C62   C     C_3   0.884559 0.488858 0.178767 -0.330429
C63   C     C_3   0.847086 0.459975 0.207953 -0.842409
C64   C     C_3   0.474988 0.866577 0.135180 -0.440776
C65   C     C_3   0.515687 0.883731 0.177087 -0.330688
C66   C     C_3   0.545614 0.846403 0.203955 -0.842208
C67   C     C_3   0.133773 0.473289 0.134325 -0.441713
C68   C     C_R   0.963371 0.796324 0.529930 0.081796
C69   C     C_3   0.116399 0.513421 0.177376 -0.331637
C70   C     C_3   0.153579 0.543245 0.205431 -0.840778
C71   C     C_3   0.525288 0.133911 0.135045 -0.440756
C72   C     C_3   0.484720 0.116697 0.176843 -0.330501
C73   C     C_3   0.454730 0.153988 0.203798 -0.841988
C74   C     C_3   0.133654 0.526274 0.865714 -0.440727
C75   C     C_3   0.116424 0.485955 0.822862 -0.332202
C76   C     C_3   0.153695 0.456120 0.795414 -0.840678
C77   C     C_3   0.525126 0.866054 0.865071 -0.440606
C78   C     C_3   0.484492 0.883267 0.823206 -0.330640
C79   C     C_R   0.703615 0.537372 0.972484 0.080946
C80   C     C_3   0.454436 0.845975 0.796257 -0.842031
C81   C     C_3   0.864057 0.469994 0.868838 -0.435582
C82   C     C_3   0.874823 0.509728 0.819948 -0.359192
C83   C     C_3   0.886046 0.494953 0.742082 -0.844400
C84   C     C_3   0.474778 0.133449 0.864825 -0.440852
C85   C     C_3   0.515426 0.116334 0.822990 -0.330644
C86   C     C_3   0.545289 0.153692 0.796204 -0.842138
C87   C     C_3   0.229198 0.078136 0.447302 -0.411076
C88   C     C_3   0.231065 0.111773 0.510487 -0.338585
C89   C     C_3   0.252136 0.155116 0.486010 -0.896071
C90   C     C_R   0.463176 0.703651 0.970556 0.081781
C91   C     C_3   0.921372 0.229061 0.448177 -0.412158
C92   C     C_3   0.886767 0.229730 0.509731 -0.338252
C93   C     C_3   0.843449 0.250319 0.483771 -0.897977
C94   C     C_3   0.770700 0.921854 0.446857 -0.411006
C95   C     C_3   0.769325 0.888221 0.509788 -0.338604
C96   C     C_3   0.748416 0.844741 0.485095 -0.896765
C97   C     C_3   0.077908 0.770741 0.445718 -0.410945
C98   C     C_3   0.111981 0.769405 0.508245 -0.338687
C99   C     C_3   0.155309 0.748545 0.483011 -0.896679
C100  C     C_3   0.770904 0.078332 0.553265 -0.410921
C101  C     C_R   0.296266 0.463370 0.969512 0.081841
C102  C     C_3   0.769030 0.111909 0.490279 -0.338277
C103  C     C_3   0.748148 0.155342 0.515121 -0.896949
C104  C     C_3   0.075957 0.229396 0.561725 -0.409627
C105  C     C_3   0.110908 0.232028 0.500846 -0.338220
C106  C     C_3   0.153630 0.252946 0.528927 -0.895650
C107  C     C_3   0.229230 0.921834 0.553056 -0.411009
C108  C     C_3   0.230641 0.888080 0.490018 -0.338581
C109  C     C_3   0.251500 0.844637 0.514622 -0.896647
C110  C     C_3   0.922105 0.770807 0.553662 -0.410974
C111  C     C_3   0.888090 0.769219 0.491051 -0.338538
C112  C     C_R   0.998715 0.226259 0.504688 -0.010429
C113  C     C_R   0.536739 0.296275 0.970226 0.081715
C114  C     C_3   0.844771 0.748368 0.516176 -0.897092
C115  C     C_3   0.729073 0.578592 0.948375 -0.412185
C116  C     C_3   0.729824 0.613155 0.010244 -0.338183
C117  C     C_3   0.750401 0.656485 0.984589 -0.898007
C118  C     C_3   0.421764 0.729161 0.947285 -0.411026
C119  C     C_3   0.388177 0.730820 0.010316 -0.338612
C120  C     C_3   0.344710 0.751694 0.985695 -0.896519
C121  C     C_3   0.270721 0.422125 0.945282 -0.410904
C122  C     C_3   0.269432 0.387951 0.007414 -0.338751
C123  C     C_3   0.248544 0.344664 0.981749 -0.896632
C124  C     C_R   0.296327 0.536529 0.030785 0.081766
C125  C     C_3   0.578118 0.270707 0.947020 -0.411047
C126  C     C_3   0.611772 0.269172 0.010151 -0.338574
C127  C     C_3   0.655173 0.248146 0.985653 -0.896352
C128  C     C_3   0.270801 0.577713 0.055195 -0.410870
C129  C     C_3   0.269087 0.611868 0.993054 -0.338690
C130  C     C_3   0.248219 0.655102 0.018873 -0.896531
C131  C     C_3   0.578220 0.729240 0.053583 -0.410920
C132  C     C_3   0.611867 0.730831 0.990648 -0.338334
C133  C     C_3   0.655301 0.751755 0.015498 -0.896970
C134  C     C_3   0.729365 0.423863 0.060271 -0.409697
C135  C     C_R   0.536829 0.703695 0.030100 0.081632
C136  C     C_3   0.731817 0.389002 0.998972 -0.338074
C137  C     C_3   0.752649 0.346178 0.026448 -0.896273
C138  C     C_3   0.421739 0.270875 0.052659 -0.411000
C139  C     C_3   0.388084 0.269149 0.989527 -0.338530
C140  C     C_3   0.344641 0.248304 0.014077 -0.896592
C141  C     C_3   0.131738 0.072321 0.426770 -0.410708
C142  C     C_3   0.130001 0.063657 0.343786 -0.304528
C143  C     C_3   0.104016 0.099833 0.304471 -0.902589
C144  C     C_3   0.928464 0.131946 0.424436 -0.411140
C145  C     C_3   0.938469 0.131163 0.341908 -0.304950
C146  C     C_R   0.703677 0.464587 0.034409 0.081513
C147  C     C_3   0.903107 0.105402 0.299929 -0.902281
C148  C     C_3   0.868028 0.927851 0.425575 -0.411587
C149  C     C_3   0.869340 0.936616 0.342692 -0.304837
C150  C     C_3   0.895033 0.900431 0.302723 -0.903084
C151  C     C_3   0.071705 0.868054 0.424642 -0.411088
C152  C     C_3   0.062358 0.869375 0.341867 -0.304814
C153  C     C_3   0.098249 0.895093 0.301504 -0.902693
C154  C     C_3   0.868378 0.072516 0.573512 -0.411049
C155  C     C_3   0.870187 0.064061 0.656473 -0.304545
C156  C     C_3   0.896193 0.100362 0.695763 -0.903119
C157  C     C_R   0.463127 0.296368 0.029458 0.081736
C158  C     C_3   0.070965 0.131723 0.578142 -0.409010
C159  C     C_3   0.060985 0.128943 0.660582 -0.303336
C160  C     C_3   0.096676 0.102695 0.700695 -0.902746
C161  C     C_3   0.131888 0.927900 0.574140 -0.411419
C162  C     C_3   0.130504 0.936798 0.657058 -0.304712
C163  C     C_3   0.104732 0.900699 0.696804 -0.902842
C164  C     C_3   0.928192 0.868190 0.574773 -0.410865
C165  C     C_3   0.937439 0.869713 0.657585 -0.304707
C166  C     C_3   0.901488 0.895508 0.697877 -0.902922
C167  C     C_3   0.631933 0.571582 0.924934 -0.411084
C168  C     C_R   0.157087 0.035621 0.466554 0.027382
C169  C     C_3   0.631085 0.561658 0.842309 -0.304965
C170  C     C_3   0.605328 0.597083 0.800768 -0.902408
C171  C     C_3   0.427681 0.631750 0.926246 -0.411263
C172  C     C_3   0.436326 0.630181 0.843314 -0.304690
C173  C     C_3   0.400098 0.604331 0.803576 -0.902967
C174  C     C_3   0.368019 0.428392 0.923998 -0.411056
C175  C     C_3   0.369311 0.437884 0.841334 -0.304769
C176  C     C_3   0.395042 0.402088 0.800482 -0.902546
C177  C     C_3   0.572200 0.368082 0.926205 -0.411084
C178  C     C_3   0.563458 0.369553 0.843257 -0.304668
C179  C     C_R   0.964353 0.157124 0.466794 0.027787
C180  C     C_3   0.599608 0.395397 0.803756 -0.902711
C181  C     C_3   0.368216 0.571700 0.075726 -0.410683
C182  C     C_3   0.369867 0.562311 0.158421 -0.304536
C183  C     C_3   0.395730 0.598192 0.199003 -0.902721
C184  C     C_3   0.572318 0.631845 0.074078 -0.411317
C185  C     C_3   0.563701 0.630285 0.157001 -0.304647
C186  C     C_3   0.599926 0.604412 0.196474 -0.903088
C187  C     C_3   0.631732 0.428972 0.077319 -0.409200
C188  C     C_3   0.629097 0.438881 0.159868 -0.303480
C189  C     C_3   0.602911 0.403155 0.199792 -0.902929
C190  C     C_R   0.842822 0.964477 0.465960 0.027535
C191  C     C_3   0.427673 0.368306 0.073457 -0.411157
C192  C     C_3   0.436363 0.369962 0.156426 -0.304608
C193  C     C_3   0.400166 0.395868 0.195914 -0.902871
C194  C     C_R   0.035360 0.842834 0.465411 0.027599
C195  C     C_R   0.842968 0.035746 0.533680 0.027428
C196  C     C_R   0.773679 0.000102 0.500036 -0.008189
C197  C     C_R   0.034617 0.157079 0.537359 0.027774
C198  C     C_R   0.157141 0.964456 0.533967 0.027473
C199  C     C_R   0.964588 0.842893 0.534051 0.027674
C200  C     C_R   0.657119 0.535646 0.966865 0.027820
C201  C     C_R   0.464357 0.657081 0.966437 0.027533
C202  C     C_R   0.342818 0.464669 0.965251 0.027561
C203  C     C_R   0.535539 0.342836 0.966136 0.027354
C204  C     C_R   0.342901 0.535343 0.034694 0.027642
C205  C     C_R   0.535614 0.657131 0.034103 0.027401
C206  C     C_R   0.657077 0.465326 0.036758 0.027785
C207  C     C_R   0.000025 0.773659 0.499769 -0.008070
C208  C     C_R   0.464326 0.342942 0.033495 0.027488
C209  C     C_R   0.134332 0.000027 0.500214 -0.149964
C210  C     C_R   0.999826 0.134325 0.500952 -0.150885
C211  C     C_R   0.865674 0.000086 0.499823 -0.149668
C212  C     C_R   0.999969 0.865656 0.499751 -0.150301
C213  C     C_R   0.634321 0.500174 0.000807 -0.150775
C214  C     C_R   0.499975 0.634326 0.000247 -0.149687
C215  C     C_R   0.365653 0.500032 0.999887 -0.150450
C216  C     C_R   0.499929 0.365670 0.999790 -0.149898
C217  C     C_R   0.413920 0.999997 0.500010 0.863086
C218  C     C_R   0.726258 0.501207 0.004169 -0.010475
C219  C     C_R   0.000012 0.413880 0.500040 0.865504
C220  C     C_R   0.586081 0.000002 0.500000 0.863050
C221  C     C_R   0.000004 0.586080 0.499954 0.862760
C222  C     C_R   0.913881 0.499978 0.999955 0.865000
C223  C     C_R   0.500000 0.913919 0.000033 0.863056
C224  C     C_R   0.086082 0.499995 0.000037 0.863179
C225  C     C_R   0.500001 0.086080 0.999978 0.863073
C226  C     C_R   0.500011 0.999955 0.358955 0.918474
C227  C     C_R   0.999961 0.500030 0.358955 0.928836
C228  C     C_R   0.499991 0.000045 0.641045 0.918436
C229  C     C_R   0.500022 0.726321 0.000310 -0.008181
C230  C     C_R   0.000067 0.500145 0.641044 0.917475
C231  C     C_R   0.000019 0.499974 0.858955 0.928649
C232  C     C_R   0.499968 0.000009 0.858955 0.918484
C233  C     C_R   0.999999 0.500081 0.141044 0.917529
C234  C     C_R   0.500032 0.999991 0.141045 0.918443
C235  C     C_R   0.999993 0.913694 0.499917 0.869184
C236  C     C_R   0.086300 0.999992 0.500065 0.869912
C237  C     C_R   0.000037 0.086300 0.500163 0.869406
C238  C     C_R   0.913702 0.000005 0.499940 0.869775
C239  C     C_R   0.499977 0.413700 0.999923 0.869974
C240  C     C_R   0.273657 0.499921 0.000235 -0.007998
C241  C     C_R   0.586299 0.499973 0.000130 0.869498
C242  C     C_R   0.499988 0.586298 0.000082 0.869771
C243  C     C_R   0.413693 0.500014 0.999949 0.869078
C244  C     C_1   0.500056 0.999889 0.282429 -0.245657
C245  C     C_1   0.999882 0.500273 0.282437 -0.226992
C246  C     C_1   0.499943 0.000113 0.717571 -0.245676
C247  C     C_1   0.000285 0.500135 0.717572 -0.249577
C248  C     C_1   0.000248 0.500010 0.782437 -0.226839
C249  C     C_1   0.499918 0.000076 0.782429 -0.245642
C250  C     C_1   0.999910 0.500317 0.217571 -0.250020
C251  C     C_R   0.499940 0.273674 0.999876 -0.008155
C252  C     C_1   0.500080 0.999926 0.217571 -0.245666
C253  C     C_R   0.297098 0.013177 0.562968 -0.223324
C254  C     C_R   0.984198 0.297666 0.565069 -0.222297
C255  C     C_R   0.703059 0.987002 0.562911 -0.223460
C256  C     C_R   0.013642 0.703102 0.562485 -0.223639
C257  C     C_R   0.702919 0.013173 0.437206 -0.223518
C258  C     C_R   0.014247 0.296070 0.441897 -0.223759
C259  C     C_R   0.296934 0.986726 0.437198 -0.223503
C260  C     C_R   0.986477 0.702869 0.437169 -0.223353
C261  C     C_R   0.797583 0.515641 0.064853 -0.222160
C262  C     C_R   0.203663 0.036788 0.470547 0.081684
C263  C     C_R   0.486938 0.797138 0.063068 -0.223269
C264  C     C_R   0.203024 0.486137 0.062632 -0.223744
C265  C     C_R   0.513138 0.203099 0.062829 -0.223519
C266  C     C_R   0.202953 0.513676 0.937741 -0.223364
C267  C     C_R   0.513152 0.796885 0.937354 -0.223673
C268  C     C_R   0.796154 0.485789 0.941328 -0.223837
C269  C     C_R   0.486773 0.202872 0.937042 -0.223322
C270  C     C_R   0.343130 0.012832 0.564250 0.131019
C271  C     C_R   0.984976 0.343730 0.565227 0.136954
C272  C     C_R   0.657025 0.987324 0.564200 0.130880
H1    H     H_    0.278646 0.022792 0.611406 0.137522
H2    H     H_    0.477407 0.778721 0.111496 0.137576
H3    H     H_    0.544094 0.156633 0.171688 0.192827
H4    H     H_    0.177620 0.475407 0.762189 0.250946
H5    H     H_    0.171229 0.440606 0.842301 0.258118
H6    H     H_    0.139601 0.429409 0.760588 0.240847
H7    H     H_    0.093545 0.466222 0.857246 0.229251
H8    H     H_    0.097493 0.497964 0.774563 0.218217
H9    H     H_    0.105751 0.548960 0.877866 0.189063
H10   H     H_    0.156307 0.545323 0.829605 0.192635
H11   H     H_    0.473452 0.822032 0.762447 0.251123
H12   H     H_    0.439310 0.828465 0.843413 0.258358
H13   H     H_    0.221574 0.476069 0.110739 0.137574
H14   H     H_    0.427447 0.860040 0.762138 0.240362
H15   H     H_    0.465035 0.906192 0.858119 0.230606
H16   H     H_    0.496132 0.902166 0.774739 0.218548
H17   H     H_    0.547930 0.893961 0.876795 0.188763
H18   H     H_    0.543859 0.843322 0.828463 0.192799
H19   H     H_    0.912472 0.469481 0.742883 0.267952
H20   H     H_    0.856300 0.480824 0.714934 0.247498
H21   H     H_    0.897514 0.523837 0.709788 0.261738
H22   H     H_    0.845979 0.532501 0.817279 0.223425
H23   H     H_    0.903296 0.528201 0.843482 0.227761
H24   H     H_    0.522729 0.221701 0.111246 0.137519
H25   H     H_    0.894491 0.450661 0.880101 0.215047
H26   H     H_    0.841501 0.447157 0.838774 0.201775
H27   H     H_    0.526111 0.177530 0.762532 0.251144
H28   H     H_    0.560481 0.171305 0.843435 0.258271
H29   H     H_    0.572238 0.139672 0.761991 0.240377
H30   H     H_    0.535024 0.093563 0.857889 0.230716
H31   H     H_    0.503790 0.097307 0.774432 0.218953
H32   H     H_    0.452136 0.105457 0.876481 0.188780
H33   H     H_    0.455863 0.155992 0.828231 0.192804
H34   H     H_    0.286332 0.149192 0.466100 0.264528
H35   H     H_    0.221448 0.523680 0.889647 0.137534
H36   H     H_    0.232217 0.170372 0.441486 0.260105
H37   H     H_    0.253477 0.178495 0.533045 0.249564
H38   H     H_    0.197290 0.118831 0.531386 0.214213
H39   H     H_    0.250768 0.097896 0.556490 0.222552
H40   H     H_    0.263433 0.070305 0.430098 0.205540
H41   H     H_    0.214562 0.093430 0.397787 0.200577
H42   H     H_    0.849085 0.284795 0.465077 0.264014
H43   H     H_    0.829175 0.230576 0.438014 0.260789
H44   H     H_    0.819382 0.250827 0.529707 0.249448
H45   H     H_    0.879959 0.195636 0.529321 0.214570
H46   H     H_    0.522696 0.778271 0.888984 0.137527
H47   H     H_    0.899640 0.249184 0.556947 0.221340
H48   H     H_    0.929089 0.263619 0.432599 0.206519
H49   H     H_    0.907026 0.214911 0.397370 0.200281
H50   H     H_    0.714109 0.850450 0.465383 0.264634
H51   H     H_    0.768256 0.829582 0.440372 0.260730
H52   H     H_    0.747396 0.821378 0.531966 0.249328
H53   H     H_    0.803231 0.881371 0.530439 0.214399
H54   H     H_    0.749738 0.902001 0.556012 0.222472
H55   H     H_    0.736329 0.929563 0.430129 0.205484
H56   H     H_    0.785073 0.906614 0.397037 0.200767
H57   H     H_    0.777079 0.475124 0.894038 0.135442
H58   H     H_    0.149496 0.714233 0.463314 0.264620
H59   H     H_    0.170139 0.768405 0.438143 0.260758
H60   H     H_    0.178995 0.747545 0.529604 0.249361
H61   H     H_    0.118942 0.803316 0.528862 0.214379
H62   H     H_    0.098545 0.749801 0.554605 0.222423
H63   H     H_    0.070105 0.736360 0.429059 0.205420
H64   H     H_    0.092785 0.785113 0.395722 0.200732
H65   H     H_    0.713976 0.149543 0.535197 0.264644
H66   H     H_    0.768210 0.170583 0.559616 0.260706
H67   H     H_    0.746783 0.178676 0.468228 0.249478
H68   H     H_    0.477173 0.221300 0.888606 0.137590
H69   H     H_    0.802786 0.118847 0.469241 0.214290
H70   H     H_    0.749195 0.098041 0.444301 0.222523
H71   H     H_    0.736672 0.070545 0.570478 0.205384
H72   H     H_    0.785587 0.093667 0.602840 0.200742
H73   H     H_    0.147163 0.286892 0.549744 0.264867
H74   H     H_    0.168018 0.232572 0.573640 0.259933
H75   H     H_    0.177972 0.254891 0.483507 0.249472
H76   H     H_    0.118527 0.198531 0.479104 0.213627
H77   H     H_    0.097994 0.252188 0.454696 0.223373
H78   H     H_    0.067458 0.263429 0.579367 0.205265
H79   H     H_    0.322432 0.974001 0.737548 0.251115
H80   H     H_    0.090330 0.214520 0.611796 0.200143
H81   H     H_    0.285792 0.850368 0.534445 0.264638
H82   H     H_    0.231608 0.829572 0.559242 0.260725
H83   H     H_    0.252551 0.821184 0.467677 0.249397
H84   H     H_    0.196750 0.881206 0.469259 0.214392
H85   H     H_    0.250279 0.901761 0.443889 0.222478
H86   H     H_    0.263590 0.929570 0.569888 0.205426
H87   H     H_    0.214811 0.906694 0.602794 0.200761
H88   H     H_    0.850616 0.714125 0.535880 0.264541
H89   H     H_    0.829872 0.768340 0.561012 0.260734
H90   H     H_    0.328666 0.939591 0.656644 0.258288
H91   H     H_    0.821126 0.747189 0.469526 0.249333
H92   H     H_    0.881098 0.803057 0.470419 0.214391
H93   H     H_    0.901596 0.749495 0.444723 0.222365
H94   H     H_    0.929935 0.736492 0.570371 0.205473
H95   H     H_    0.907156 0.785325 0.603602 0.200699
H96   H     H_    0.784854 0.650854 0.965694 0.264039
H97   H     H_    0.730613 0.670794 0.939047 0.260801
H98   H     H_    0.750969 0.680523 0.030741 0.249440
H99   H     H_    0.695756 0.619958 0.030044 0.214576
H100  H     H_    0.749327 0.600246 0.057257 0.221377
H101  H     H_    0.360309 0.927889 0.738045 0.240408
H102  H     H_    0.763610 0.570860 0.932596 0.206427
H103  H     H_    0.714889 0.592985 0.897756 0.200297
H104  H     H_    0.350456 0.785921 0.965870 0.264613
H105  H     H_    0.329495 0.731710 0.941072 0.260604
H106  H     H_    0.321379 0.752915 0.032633 0.249427
H107  H     H_    0.381292 0.697000 0.031086 0.214366
H108  H     H_    0.402013 0.750561 0.056439 0.222478
H109  H     H_    0.429502 0.763455 0.930385 0.205514
H110  H     H_    0.406464 0.714599 0.897581 0.200762
H111  H     H_    0.214215 0.350509 0.962251 0.264585
H112  H     H_    0.973048 0.279740 0.613044 0.136070
H113  H     H_    0.406407 0.965069 0.642099 0.230714
H114  H     H_    0.268361 0.329908 0.936632 0.260719
H115  H     H_    0.247584 0.320902 0.028067 0.249366
H116  H     H_    0.303360 0.380959 0.027830 0.214362
H117  H     H_    0.249870 0.401313 0.054002 0.222376
H118  H     H_    0.236326 0.429941 0.928819 0.205494
H119  H     H_    0.285062 0.407336 0.895065 0.200691
H120  H     H_    0.649344 0.213864 0.965824 0.264549
H121  H     H_    0.670367 0.267959 0.941065 0.260225
H122  H     H_    0.678560 0.247036 0.032655 0.249504
H123  H     H_    0.618738 0.303040 0.030959 0.214263
H124  H     H_    0.402637 0.996363 0.725535 0.218895
H125  H     H_    0.597956 0.249590 0.056225 0.222516
H126  H     H_    0.570344 0.236381 0.930009 0.205485
H127  H     H_    0.593364 0.285155 0.897393 0.200607
H128  H     H_    0.214010 0.649165 0.038665 0.264597
H129  H     H_    0.268234 0.669923 0.063813 0.260622
H130  H     H_    0.246951 0.678852 0.972552 0.249377
H131  H     H_    0.302887 0.618951 0.972348 0.214322
H132  H     H_    0.249316 0.598447 0.946639 0.222461
H133  H     H_    0.236519 0.569796 0.071988 0.205457
H134  H     H_    0.285372 0.592571 0.105258 0.200681
H135  H     H_    0.394462 0.047945 0.623474 0.188776
H136  H     H_    0.649526 0.786009 0.035464 0.264653
H137  H     H_    0.670470 0.731841 0.060076 0.260754
H138  H     H_    0.678685 0.752919 0.968638 0.249450
H139  H     H_    0.618782 0.696988 0.969725 0.214309
H140  H     H_    0.598072 0.750509 0.944587 0.222525
H141  H     H_    0.570453 0.763551 0.070635 0.205365
H142  H     H_    0.593473 0.714746 0.103256 0.200728
H143  H     H_    0.786637 0.352521 0.047188 0.264825
H144  H     H_    0.732287 0.331769 0.071080 0.260041
H145  H     H_    0.754472 0.321907 0.980729 0.249450
H146  H     H_    0.343915 0.044208 0.671743 0.192805
H147  H     H_    0.698270 0.381506 0.977303 0.213716
H148  H     H_    0.751953 0.401943 0.952877 0.223205
H149  H     H_    0.763449 0.432270 0.077775 0.205271
H150  H     H_    0.714556 0.409446 0.110280 0.200165
H151  H     H_    0.350402 0.214097 0.034020 0.264625
H152  H     H_    0.329478 0.268335 0.058595 0.260653
H153  H     H_    0.321258 0.247032 0.967072 0.249425
H154  H     H_    0.381183 0.302946 0.968635 0.214365
H155  H     H_    0.401867 0.249357 0.943505 0.222478
H156  H     H_    0.429500 0.236599 0.069677 0.205448
H157  H     H_    0.019251 0.324168 0.741653 0.250716
H158  H     H_    0.406490 0.285481 0.102274 0.200764
H159  H     H_    0.069469 0.101035 0.325080 0.269041
H160  H     H_    0.119951 0.132512 0.313431 0.255641
H161  H     H_    0.103237 0.092804 0.244662 0.245234
H162  H     H_    0.163883 0.062165 0.320598 0.203698
H163  H     H_    0.113853 0.031302 0.332817 0.237216
H164  H     H_    0.097449 0.075483 0.446810 0.197636
H165  H     H_    0.146107 0.105333 0.438245 0.192523
H166  H     H_    0.901795 0.070627 0.319385 0.268800
H167  H     H_    0.870198 0.121041 0.307689 0.255587
H168  H     H_    0.055688 0.329531 0.663311 0.258068
H169  H     H_    0.911102 0.105327 0.240497 0.245265
H170  H     H_    0.940106 0.165314 0.319897 0.203708
H171  H     H_    0.971092 0.115331 0.332130 0.236677
H172  H     H_    0.925156 0.097444 0.443312 0.199694
H173  H     H_    0.895184 0.145975 0.434609 0.192542
H174  H     H_    0.929684 0.899121 0.323031 0.268896
H175  H     H_    0.879069 0.867776 0.311424 0.255662
H176  H     H_    0.895514 0.907535 0.242994 0.245372
H177  H     H_    0.835336 0.938213 0.319818 0.204030
H178  H     H_    0.885514 0.968950 0.332006 0.236867
H179  H     H_    0.065580 0.361750 0.744871 0.241156
H180  H     H_    0.902427 0.924717 0.445254 0.198378
H181  H     H_    0.853762 0.894807 0.436775 0.192698
H182  H     H_    0.099680 0.929743 0.321845 0.269037
H183  H     H_    0.130970 0.879149 0.309791 0.255656
H184  H     H_    0.090726 0.895573 0.241864 0.245310
H185  H     H_    0.060620 0.835372 0.318960 0.203940
H186  H     H_    0.029942 0.885524 0.331584 0.236835
H187  H     H_    0.075009 0.902440 0.444375 0.198856
H188  H     H_    0.104824 0.853785 0.435406 0.192558
H189  H     H_    0.930720 0.101529 0.675067 0.268939
H190  H     H_    0.031163 0.407280 0.645212 0.228954
H191  H     H_    0.880239 0.133009 0.686868 0.255573
H192  H     H_    0.897028 0.093499 0.755563 0.245235
H193  H     H_    0.836329 0.062608 0.679748 0.203735
H194  H     H_    0.886363 0.031746 0.667352 0.237216
H195  H     H_    0.902656 0.075597 0.553423 0.198118
H196  H     H_    0.854026 0.105510 0.562140 0.192341
H197  H     H_    0.098391 0.068399 0.678823 0.269384
H198  H     H_    0.129393 0.118892 0.694006 0.255613
H199  H     H_    0.088720 0.101193 0.760083 0.244934
H200  H     H_    0.058921 0.162523 0.685047 0.202953
H201  H     H_    0.997775 0.404369 0.726348 0.217786
H202  H     H_    0.028569 0.112526 0.669333 0.237552
H203  H     H_    0.074952 0.097742 0.556877 0.198100
H204  H     H_    0.103966 0.146625 0.569077 0.192355
H205  H     H_    0.070098 0.899395 0.676403 0.269053
H206  H     H_    0.120665 0.868015 0.688000 0.255600
H207  H     H_    0.104204 0.907895 0.756563 0.245329
H208  H     H_    0.164488 0.938395 0.680030 0.203989
H209  H     H_    0.114359 0.969163 0.667847 0.236763
H210  H     H_    0.097509 0.924737 0.554351 0.198438
H211  H     H_    0.146153 0.894835 0.562844 0.192611
H212  H     H_    0.948699 0.395757 0.620730 0.191574
H213  H     H_    0.900066 0.930109 0.677599 0.269150
H214  H     H_    0.868783 0.879526 0.689448 0.255618
H215  H     H_    0.908937 0.896135 0.757544 0.245273
H216  H     H_    0.939168 0.835770 0.680441 0.203809
H217  H     H_    0.969834 0.885904 0.668016 0.236999
H218  H     H_    0.924903 0.902529 0.555105 0.198824
H219  H     H_    0.895091 0.853877 0.563867 0.192475
H220  H     H_    0.570568 0.598403 0.820347 0.268972
H221  H     H_    0.621003 0.629972 0.808812 0.255552
H222  H     H_    0.605204 0.589148 0.741256 0.245242
H223  H     H_    0.721628 0.977482 0.611307 0.137558
H224  H     H_    0.950919 0.345615 0.670187 0.192569
H225  H     H_    0.665218 0.560014 0.820170 0.203646
H226  H     H_    0.615215 0.529058 0.832256 0.236743
H227  H     H_    0.597445 0.574878 0.943942 0.199553
H228  H     H_    0.645985 0.604847 0.935398 0.192538
H229  H     H_    0.398843 0.569744 0.823941 0.268953
H230  H     H_    0.367447 0.620296 0.812431 0.255655
H231  H     H_    0.407113 0.603665 0.743810 0.245342
H232  H     H_    0.437869 0.664109 0.820372 0.203881
H233  H     H_    0.468653 0.614002 0.832467 0.237077
H234  H     H_    0.424576 0.597411 0.945989 0.198214
H235  H     H_    0.677792 0.026667 0.737703 0.251140
H236  H     H_    0.394653 0.646049 0.937601 0.192582
H237  H     H_    0.429699 0.400653 0.820732 0.268878
H238  H     H_    0.379124 0.369338 0.808404 0.255693
H239  H     H_    0.395497 0.409716 0.740932 0.245322
H240  H     H_    0.335299 0.439631 0.818522 0.203970
H241  H     H_    0.385431 0.470332 0.831406 0.236786
H242  H     H_    0.402408 0.425042 0.943634 0.198996
H243  H     H_    0.353746 0.395254 0.934385 0.192558
H244  H     H_    0.600848 0.430010 0.824305 0.268977
H245  H     H_    0.632288 0.379478 0.812613 0.255644
H246  H     H_    0.671383 0.060816 0.656787 0.258371
H247  H     H_    0.592520 0.395983 0.743974 0.245266
H248  H     H_    0.561931 0.335592 0.820140 0.203853
H249  H     H_    0.531100 0.385682 0.832402 0.237003
H250  H     H_    0.575369 0.402436 0.946178 0.197788
H251  H     H_    0.605228 0.353767 0.937573 0.192668
H252  H     H_    0.430299 0.599646 0.178555 0.269015
H253  H     H_    0.379741 0.630911 0.191053 0.255672
H254  H     H_    0.396446 0.590642 0.258577 0.245273
H255  H     H_    0.335961 0.560543 0.181444 0.203780
H256  H     H_    0.386064 0.529898 0.168387 0.237023
H257  H     H_    0.639772 0.072662 0.738079 0.240347
H258  H     H_    0.402520 0.575074 0.055900 0.198817
H259  H     H_    0.353851 0.604802 0.065303 0.192453
H260  H     H_    0.601139 0.569821 0.175825 0.268892
H261  H     H_    0.632589 0.620348 0.187700 0.255585
H262  H     H_    0.592944 0.603759 0.256246 0.245266
H263  H     H_    0.562199 0.664218 0.180221 0.203872
H264  H     H_    0.531366 0.614129 0.167750 0.236992
H265  H     H_    0.575444 0.597508 0.054036 0.198232
H266  H     H_    0.605333 0.646168 0.062829 0.192462
H267  H     H_    0.568579 0.401457 0.178103 0.269515
H268  H     H_    0.593687 0.035064 0.642009 0.230633
H269  H     H_    0.619092 0.370444 0.192694 0.255560
H270  H     H_    0.601510 0.411062 0.259264 0.244939
H271  H     H_    0.662720 0.440923 0.184149 0.202987
H272  H     H_    0.612696 0.471291 0.169018 0.237528
H273  H     H_    0.597709 0.425054 0.056222 0.198179
H274  H     H_    0.646569 0.395959 0.067840 0.192401
H275  H     H_    0.398921 0.430434 0.175443 0.269105
H276  H     H_    0.367502 0.379908 0.186946 0.255585
H277  H     H_    0.407208 0.396594 0.255713 0.245299
H278  H     H_    0.437899 0.336059 0.179477 0.203844
H279  H     H_    0.597659 0.003987 0.725380 0.218644
H280  H     H_    0.468702 0.386138 0.167383 0.237004
H281  H     H_    0.424558 0.402622 0.053595 0.198231
H282  H     H_    0.394640 0.353991 0.061996 0.192506
H283  H     H_    0.605920 0.952172 0.623277 0.188767
H284  H     H_    0.656520 0.956237 0.671664 0.192809
H285  H     H_    0.975249 0.678072 0.737709 0.250975
H286  H     H_    0.940477 0.671543 0.657293 0.258598
H287  H     H_    0.023548 0.721710 0.610721 0.137585
H288  H     H_    0.929243 0.640070 0.738849 0.240334
H289  H     H_    0.966086 0.593829 0.642363 0.228381
H290  H     H_    0.997773 0.597885 0.725329 0.218601
H291  H     H_    0.048852 0.606020 0.622568 0.188904
H292  H     H_    0.045155 0.656666 0.670909 0.192379
H293  H     H_    0.677612 0.973433 0.262555 0.251166
H294  H     H_    0.671333 0.939245 0.343417 0.258294
H295  H     H_    0.639716 0.927330 0.261968 0.240337
H296  H     H_    0.593599 0.964784 0.357911 0.230656
H297  H     H_    0.597408 0.995846 0.274513 0.218893
H298  H     H_    0.721381 0.022698 0.388810 0.137535
H299  H     H_    0.605575 0.047706 0.376642 0.188844
H300  H     H_    0.656127 0.043827 0.328389 0.192768
H301  H     H_    0.030493 0.412434 0.243550 0.268151
H302  H     H_    0.018894 0.356323 0.215369 0.247618
H303  H     H_    0.976029 0.397699 0.210259 0.261705
H304  H     H_    0.967333 0.346125 0.317553 0.223473
H305  H     H_    0.971943 0.403399 0.343968 0.227710
H306  H     H_    0.049569 0.394176 0.380651 0.215327
H307  H     H_    0.052639 0.341175 0.339229 0.201716
H308  H     H_    0.322128 0.025988 0.262405 0.251102
H309  H     H_    0.024956 0.276925 0.394767 0.135351
H310  H     H_    0.328518 0.060341 0.343381 0.258322
H311  H     H_    0.360109 0.072020 0.262099 0.240414
H312  H     H_    0.406242 0.034704 0.358074 0.230642
H313  H     H_    0.402278 0.003411 0.274658 0.218608
H314  H     H_    0.394076 0.951846 0.376675 0.188726
H315  H     H_    0.343458 0.955748 0.328337 0.192829
H316  H     H_    0.024952 0.677499 0.262176 0.250876
H317  H     H_    0.059688 0.671227 0.342639 0.258168
H318  H     H_    0.071032 0.639586 0.261044 0.240508
H319  H     H_    0.034214 0.593508 0.357386 0.229679
H320  H     H_    0.278355 0.977085 0.388795 0.137580
H321  H     H_    0.002580 0.597315 0.274337 0.218077
H322  H     H_    0.951437 0.605498 0.377091 0.188642
H323  H     H_    0.954986 0.656026 0.328802 0.192629
H324  H     H_    0.823576 0.480130 0.240738 0.250770
H325  H     H_    0.829117 0.443843 0.161969 0.258487
H326  H     H_    0.861050 0.433725 0.243636 0.240620
H327  H     H_    0.906945 0.468272 0.144676 0.227266
H328  H     H_    0.903920 0.501414 0.226301 0.219401
H329  H     H_    0.895680 0.550812 0.121311 0.190878
H330  H     H_    0.845437 0.548619 0.170573 0.192087
H331  H     H_    0.976593 0.721298 0.388891 0.137566
H332  H     H_    0.526499 0.822549 0.237584 0.251170
H333  H     H_    0.560759 0.828801 0.156765 0.258296
H334  H     H_    0.572597 0.860449 0.238232 0.240353
H335  H     H_    0.535220 0.906510 0.142215 0.230694
H336  H     H_    0.504111 0.902758 0.225613 0.218987
H337  H     H_    0.452314 0.894550 0.123453 0.188839
H338  H     H_    0.456137 0.844034 0.171753 0.192794
H339  H     H_    0.177458 0.523914 0.238815 0.250928
H340  H     H_    0.171195 0.558880 0.158839 0.258181
H341  H     H_    0.139386 0.569860 0.240258 0.240627
H342  H     H_    0.779595 0.526692 0.112930 0.136058
H343  H     H_    0.093522 0.533218 0.142961 0.229930
H344  H     H_    0.097428 0.501204 0.225380 0.217156
H345  H     H_    0.105951 0.450524 0.121867 0.189630
H346  H     H_    0.156498 0.454230 0.170426 0.192826
H347  H     H_    0.473816 0.177906 0.237669 0.251088
H348  H     H_    0.439532 0.171527 0.156645 0.258362
H349  H     H_    0.427790 0.139917 0.237859 0.240402
H350  H     H_    0.465192 0.093794 0.141878 0.230679
H351  H     H_    0.496438 0.097776 0.225304 0.218558
H352  H     H_    0.548062 0.106002 0.123333 0.188681
O1    O     O_R   0.434530 0.036970 0.500000 -0.629559
O2    O     O_R   0.463030 0.934530 0.000000 -0.629584
O3    O     O_R   0.065470 0.463030 0.000000 -0.629104
O4    O     O_R   0.536970 0.065470 0.000000 -0.629514
O5    O     O_R   0.065470 0.536970 0.000000 -0.629934
O6    O     O_R   0.536970 0.934530 0.000000 -0.629492
O7    O     O_R   0.934530 0.463030 0.000000 -0.629671
O8    O     O_R   0.463030 0.065470 0.000000 -0.629568
O9    O     O_R   0.500010 0.036970 0.392670 -0.624424
O10   O     O_R   0.963030 0.500010 0.392670 -0.623818
O11   O     O_R   0.499990 0.963030 0.392670 -0.624646
O12   O     O_R   0.963030 0.434530 0.500000 -0.629214
O13   O     O_R   0.036970 0.499990 0.392670 -0.626624
O14   O     O_R   0.499990 0.036970 0.607330 -0.624662
O15   O     O_R   0.036970 0.500010 0.607330 -0.623459
O16   O     O_R   0.500010 0.963030 0.607330 -0.624425
O17   O     O_R   0.963030 0.499990 0.607330 -0.627153
O18   O     O_R   0.000010 0.536970 0.892670 -0.623968
O19   O     O_R   0.463030 0.000010 0.892670 -0.624602
O20   O     O_R   0.999990 0.463030 0.892670 -0.626414
O21   O     O_R   0.536970 0.999990 0.892670 -0.624471
O22   O     O_R   0.999990 0.536970 0.107330 -0.624442
O23   O     O_R   0.565470 0.963030 0.500000 -0.629538
O24   O     O_R   0.536970 0.000010 0.107330 -0.624625
O25   O     O_R   0.000010 0.463030 0.107330 -0.626166
O26   O     O_R   0.463030 0.999990 0.107330 -0.624468
O27   O     O_R   0.999990 0.934550 0.439420 -0.623895
O28   O     O_R   0.065450 0.999990 0.439420 -0.623935
O29   O     O_R   0.000010 0.065450 0.439420 -0.623945
O30   O     O_R   0.934550 0.000010 0.439420 -0.624165
O31   O     O_R   0.000010 0.934550 0.560580 -0.623941
O32   O     O_R   0.934550 0.999990 0.560580 -0.624040
O33   O     O_R   0.999990 0.065450 0.560580 -0.623971
O34   O     O_R   0.036970 0.565470 0.500000 -0.629800
O35   O     O_R   0.065450 0.000010 0.560580 -0.624245
O36   O     O_R   0.499990 0.434550 0.939420 -0.623966
O37   O     O_R   0.565450 0.499990 0.939420 -0.623942
O38   O     O_R   0.500010 0.565450 0.939420 -0.624152
O39   O     O_R   0.434550 0.500010 0.939420 -0.623897
O40   O     O_R   0.500010 0.434550 0.060580 -0.624232
O41   O     O_R   0.434550 0.499990 0.060580 -0.623932
O42   O     O_R   0.499990 0.565450 0.060580 -0.624063
O43   O     O_R   0.565450 0.500010 0.060580 -0.623980
O44   O     O_R   0.565470 0.036970 0.500000 -0.629548
O45   O     O_R   0.036970 0.434530 0.500000 -0.628969
O46   O     O_R   0.434530 0.963030 0.500000 -0.629519
O47   O     O_R   0.963030 0.565470 0.500000 -0.630490
O48   O     O_R   0.934530 0.536970 0.000000 -0.629757
Zn1   Zn    Zn3+2 0.500000 0.049360 0.500000 0.926659
Zn2   Zn    Zn3+2 0.000000 0.000000 0.580910 0.916253
Zn3   Zn    Zn3+2 0.500000 0.500000 0.919090 0.916774
Zn4   Zn    Zn3+2 0.500000 0.500000 0.080910 0.916251
Zn5   Zn    Zn3+2 0.950640 0.500000 0.500000 0.921510
Zn6   Zn    Zn3+2 0.500000 0.950640 0.500000 0.926605
Zn7   Zn    Zn3+2 0.049360 0.500000 0.500000 0.927337
Zn8   Zn    Zn3+2 0.000000 0.549360 0.000000 0.925806
Zn9   Zn    Zn3+2 0.450640 0.000000 0.000000 0.926670
Zn10  Zn    Zn3+2 0.000000 0.450640 0.000000 0.923045
Zn11  Zn    Zn3+2 0.549360 0.000000 0.000000 0.926593
Zn12  Zn    Zn3+2 0.000000 0.000000 0.419090 0.916784

loop_
_geom_bond_atom_site_label_1
_geom_bond_atom_site_label_2
_ccdc_geom_bond_type
O2    Zn9   S    
C137  H145  S    
C109  H82   S    
C110  H94   S    
C224  O3    A    
C126  C127  S    
C46   C112  A    
C9    C64   S    
C187  C206  S    
C123  H111  S    
C245  C250  T    
C159  H202  S    
C160  H198  S    
C16   C269  A    
C70   H341  S    
C70   H339  S    
C156  H189  S    
C204  C215  A    
O46   Zn6   S    
C48   H299  S    
C147  H166  S    
O13   Zn7   S    
C167  H227  S    
C123  H114  S    
C84   H33   S    
C231  O18   A    
C69   H344  S    
C233  O25   A    
C86   H27   S    
C93   H44   S    
C16   C84   S    
C106  H73   S    
C108  C109  S    
C41   C272  S    
C31   C263  A    
C161  H210  S    
C163  H206  S    
C243  O39   A    
C32   C264  A    
C198  C209  A    
C182  C183  S    
C192  H278  S    
O11   Zn6   S    
C39   H201  S    
C155  H194  S    
O19   Zn9   S    
C26   C259  A    
C169  H225  S    
C141  C168  S    
C71   H3    S    
C167  C200  S    
C188  H271  S    
C90   C229  A    
C43   H257  S    
C38   C271  S    
C230  O17   A    
C59   C60   S    
C187  H274  S    
C36   H113  S    
C176  H239  S    
C142  H162  S    
O20   Zn10  S    
C6    C54   S    
C104  C105  S    
C233  C250  S    
C143  H161  S    
C134  C146  S    
C72   H350  S    
C60   H317  S    
C234  O26   A    
C51   C52   S    
C77   H18   S    
C128  H133  S    
C184  H266  S    
C15   C268  A    
C82   H22   S    
C221  O47   A    
C83   H19   S    
C144  C145  S    
O48   Zn8   S    
C66   H332  S    
C5    C18   A    
C228  O16   A    
C31   C267  A    
C265  H24   S    
C184  C205  S    
C6    C259  A    
C40   H179  S    
C140  H152  S    
C75   C76   S    
C189  H269  S    
C91   H48   S    
C226  C244  S    
C175  C176  S    
C269  H68   S    
C253  C270  A    
C119  C120  S    
C263  H2    S    
C2    C112  A    
C71   H352  S    
C68   C207  A    
C153  H184  S    
C68   C110  S    
C119  H108  S    
C147  H169  S    
C87   C262  S    
C154  C155  S    
C35   C196  A    
C241  O43   A    
C66   H333  S    
C133  H137  S    
C44   H291  S    
C104  H78   S    
C85   H31   S    
C205  C214  A    
C56   H310  S    
C158  C159  S    
C186  H260  S    
C45   H289  S    
C172  H232  S    
C39   H190  S    
C124  C128  S    
C91   C92   S    
C61   H330  S    
C37   H79   S    
C139  H154  S    
C107  H86   S    
C16   C25   A    
C156  H191  S    
C256  H287  S    
C79   C200  A    
C150  H175  S    
C168  C209  A    
C148  H180  S    
C72   C73   S    
C79   C218  A    
C165  H216  S    
C139  C140  S    
C134  H150  S    
C121  H118  S    
C49   H296  S    
C127  H121  S    
C24   C207  A    
C80   H14   S    
C186  H261  S    
O17   Zn5   S    
C13   C94   S    
C214  C242  S    
C30   C261  A    
O21   Zn11  S    
C192  H280  S    
C89   H34   S    
C238  O32   A    
C152  H186  S    
C111  H93   S    
C143  H160  S    
C189  H270  S    
C31   C229  S    
C25   C225  S    
C181  H258  S    
O23   Zn6   S    
C120  H106  S    
C113  C203  A    
C69   C70   S    
C12   C266  A    
C201  C214  A    
C219  O45   A    
C137  H143  S    
C223  O2    A    
C194  C212  A    
C55   H313  S    
O47   Zn5   S    
C88   C89   S    
C80   H11   S    
C98   C99   S    
C174  H243  S    
C34   C270  S    
C191  H282  S    
C222  O48   A    
C58   H323  S    
C168  C262  A    
C171  H236  S    
C136  H147  S    
C237  O33   A    
C200  C213  A    
O34   Zn7   S    
C98   H61   S    
C114  H91   S    
C79   C115  S    
C149  H178  S    
C96   H52   S    
C125  H126  S    
C65   C66   S    
C128  C129  S    
C97   C98   S    
C116  H99   S    
C167  C169  S    
C85   C86   S    
C36   H124  S    
C50   H294  S    
C161  C198  S    
C175  H241  S    
C105  H77   S    
C103  H66   S    
C36   C37   S    
C170  H221  S    
C162  H208  S    
C230  O15   A    
C108  H85   S    
C58   H322  S    
C97   H64   S    
C38   C39   S    
C217  O1    A    
C73   H347  S    
C47   H286  S    
C228  C246  S    
O33   Zn2   S    
C11   C25   A    
O5    Zn8   S    
C173  H229  S    
C115  C116  S    
C136  H148  S    
C254  C271  A    
C184  C185  S    
C50   H293  S    
C147  H167  S    
C174  C175  S    
C123  H115  S    
C84   H32   S    
C104  H80   S    
C65   H336  S    
C74   H9    S    
C233  O22   A    
C13   C196  A    
C107  C108  S    
C144  C179  S    
C100  H71   S    
C197  C210  A    
C163  H207  S    
O31   Zn2   S    
C164  C199  S    
C30   C218  S    
C56   H311  S    
C64   H338  S    
C111  H92   S    
C217  O46   A    
C87   H41   S    
O10   Zn5   S    
C268  H57   S    
C63   H325  S    
C225  O4    A    
C180  H245  S    
O3    Zn10  S    
C91   H49   S    
C157  C251  A    
C78   H16   S    
C96   H50   S    
C8    C21   A    
C255  C272  A    
C148  C190  S    
C3    C44   S    
C176  H238  S    
C158  H204  S    
C52   H304  S    
C89   H36   S    
C59   H319  S    
C39   C40   S    
C238  O30   A    
C67   H345  S    
C118  H110  S    
O1    Zn1   S    
C60   H316  S    
C243  O41   A    
C13   C190  A    
C133  H138  S    
C117  H96   S    
C40   H168  S    
C232  O19   A    
C146  C218  A    
C182  H256  S    
C165  H217  S    
C166  H215  S    
C1    C57   A    
C130  H130  S    
C24   C194  A    
C151  C152  S    
C193  H275  S    
C234  O24   A    
C171  H234  S    
O25   Zn10  S    
O40   Zn4   S    
C154  C195  S    
C82   C83   S    
C114  H89   S    
C177  H251  S    
C1    C26   S    
C41   H284  S    
C35   C100  S    
C155  C156  S    
C132  H139  S    
C52   C53   S    
C129  C130  S    
C222  O7    A    
C6    C17   A    
C109  H81   S    
C54   C55   S    
C129  H132  S    
C5    C51   S    
C59   H321  S    
C136  C137  S    
C26   C253  A    
C138  H158  S    
C73   H349  S    
C107  H87   S    
C99   H60   S    
C62   H327  S    
O39   Zn3   S    
C29   C207  S    
C135  C205  A    
C75   H8    S    
C14   C22   A    
C221  O34   A    
C220  O44   A    
C183  H254  S    
C81   H26   S    
C164  H219  S    
C40   H157  S    
C170  H220  S    
C86   H28   S    
C93   H43   S    
C122  H116  S    
C28   C196  S    
C34   C36   S    
C163  H205  S    
C120  H105  S    
C102  C103  S    
C27   C254  A    
C235  O31   A    
C1    C262  A    
O18   Zn8   S    
C155  H193  S    
C127  H120  S    
O15   Zn7   S    
C49   C50   S    
C2    C179  A    
C180  H247  S    
C254  H112  S    
C232  C249  S    
C8    C261  A    
C257  H298  S    
C230  C247  S    
C101  C240  A    
C246  C249  T    
C131  H142  S    
C55   C56   S    
C122  H117  S    
C4    C257  A    
C187  H273  S    
C12   C74   S    
C41   C42   S    
C142  H163  S    
C28   C255  A    
C267  H46   S    
O45   Zn7   S    
C161  C162  S    
C181  C182  S    
C14   C267  A    
C178  H249  S    
O38   Zn3   S    
C179  C210  A    
C60   H318  S    
C154  H195  S    
C76   H5    S    
C68   C199  A    
C90   C118  S    
C128  H134  S    
C164  C165  S    
C166  H213  S    
C82   H23   S    
C223  O6    A    
C226  O11   A    
C124  C240  A    
C11   C71   S    
C266  H35   S    
C185  H264  S    
C193  H277  S    
C224  O5    A    
C174  C202  S    
C162  H209  S    
C49   H297  S    
C38   H212  S    
C199  C212  A    
C144  H172  S    
C14   C77   S    
C103  H67   S    
C3    C256  A    
C237  O29   A    
C159  H200  S    
C108  H84   S    
C110  H95   S    
C53   H301  S    
C95   C96   S    
C151  H187  S    
C117  H97   S    
C43   H246  S    
C42   H268  S    
C20   C221  S    
C177  C203  S    
C153  H183  S    
C119  H107  S    
C202  C215  A    
O14   Zn1   S    
C244  C252  T    
C126  H125  S    
C55   H312  S    
C35   C195  A    
C145  H170  S    
C66   H334  S    
C33   C269  A    
C44   H292  S    
C45   C47   S    
C85   H30   S    
C109  H83   S    
C37   H90   S    
O36   Zn3   S    
C7    C260  A    
C160  H197  S    
C189  H267  S    
C145  C147  S    
C61   H329  S    
C48   H300  S    
C141  H165  S    
C219  O12   A    
C69   H343  S    
C99   H58   S    
C114  H88   S    
C156  H192  S    
C21   C222  S    
C150  H176  S    
C24   C97   S    
C180  H244  S    
C210  C237  S    
C43   H235  S    
C203  C216  A    
C42   H279  S    
C167  H228  S    
C9    C22   A    
C46   C197  A    
C58   C59   S    
C56   H308  S    
C46   C104  S    
C7    C20   A    
C101  C121  S    
C191  C192  S    
O4    Zn11  S    
C33   C265  A    
C161  H211  S    
C173  H230  S    
C190  C211  A    
C140  H153  S    
C227  C245  S    
C141  H164  S    
C159  C160  S    
O24   Zn11  S    
C143  H159  S    
C169  H226  S    
C236  O35   A    
O9    Zn1   S    
C225  O8    A    
C51   H306  S    
C211  C238  S    
O27   Zn12  S    
C51   H307  S    
C84   C85   S    
C139  H155  S    
C121  C122  S    
C206  C213  A    
C48   C49   S    
C127  H122  S    
C80   H12   S    
C125  C126  S    
O43   Zn4   S    
C191  H281  S    
C30   C268  A    
C144  H173  S    
C131  C132  S    
C172  H233  S    
C44   C45   S    
C151  C194  S    
C162  C163  S    
C87   H40   S    
C236  O28   A    
C27   C258  A    
C98   H62   S    
C88   H39   S    
C154  H196  S    
C120  H104  S    
C149  H177  S    
C184  H265  S    
O35   Zn2   S    
C113  C251  A    
C226  O9    A    
C178  C180  S    
C83   H20   S    
C116  H100  S    
C19   C272  A    
C76   H6    S    
C130  H128  S    
C105  C106  S    
C63   H324  S    
C215  C243  S    
C50   H295  S    
C239  O36   A    
C105  H76   S    
C64   C65   S    
C103  H65   S    
C140  H151  S    
C213  C241  S    
C170  H222  S    
C209  C236  S    
C187  C188  S    
C253  H1    S    
C149  C150  S    
C97   H63   S    
C235  O27   A    
C53   H303  S    
C185  C186  S    
C47   H285  S    
O6    Zn11  S    
C259  H320  S    
C92   C93   S    
C111  C114  S    
C78   C80   S    
C96   H51   S    
C94   C95   S    
O8    Zn9   S    
C126  H123  S    
C70   H340  S    
C220  O23   A    
C138  C139  S    
C242  O38   A    
C164  H218  S    
C54   H315  S    
C186  H262  S    
C65   H335  S    
C92   H45   S    
C74   H10   S    
C87   C88   S    
C227  O13   A    
C177  C178  S    
C135  C229  A    
C142  C143  S    
C100  H72   S    
C160  H199  S    
C102  H70   S    
C17   C270  A    
C171  C172  S    
C165  C166  S    
C57   C198  A    
C150  H174  S    
C169  C170  S    
C231  C248  S    
C146  C206  A    
C115  H102  S    
C81   C82   S    
C134  H149  S    
C15   C81   S    
C10   C67   S    
C121  H119  S    
C62   C63   S    
C124  C204  A    
C264  H13   S    
O42   Zn4   S    
C131  C135  S    
C101  C202  A    
C77   H17   S    
C152  H185  S    
C113  C125  S    
C185  H263  S    
C181  H259  S    
C158  C197  S    
C116  C117  S    
C76   H4    S    
C53   H302  S    
C29   C256  A    
C33   C251  S    
C118  C119  S    
C137  H144  S    
C106  H74   S    
C261  H342  S    
C4    C19   A    
C242  O42   A    
C47   H288  S    
C132  C133  S    
C34   H146  S    
C174  H242  S    
C32   C266  A    
C151  H188  S    
C7    C58   S    
C77   C78   S    
C8    C61   S    
C90   C201  A    
C239  O40   A    
C72   H351  S    
C208  C216  A    
C54   H314  S    
C177  H250  S    
C117  H98   S    
O26   Zn9   S    
O16   Zn6   S    
C41   H283  S    
C61   C62   S    
C157  C208  A    
C125  H127  S    
C227  O10   A    
C18   C219  S    
C18   C271  A    
C132  H140  S    
C129  H131  S    
C29   C260  A    
C74   C75   S    
O41   Zn4   S    
C38   H224  S    
C3    C20   A    
C37   H101  S    
C148  C149  S    
C234  C252  S    
C110  C111  S    
C73   H348  S    
C134  C136  S    
C32   C240  S    
C99   H59   S    
C62   H328  S    
O29   Zn12  S    
O12   Zn5   S    
C75   H7    S    
C188  C189  S    
C67   C69   S    
C171  C201  S    
C195  C211  A    
C183  H253  S    
C81   H25   S    
C231  O20   A    
C92   H47   S    
C34   H135  S    
C86   H29   S    
C93   H42   S    
C100  C102  S    
C106  H75   S    
C11   C265  A    
C175  H240  S    
C152  C153  S    
C95   H54   S    
O37   Zn3   S    
C173  H231  S    
C64   H337  S    
C57   C107  S    
C145  H171  S    
C27   C112  S    
C94   H55   S    
C94   H56   S    
C63   H326  S    
O22   Zn8   S    
C148  H181  S    
C181  C204  S    
C232  O21   A    
C2    C91   S    
C241  O37   A    
C78   H15   S    
C212  C235  S    
C17   C217  S    
C172  C173  S    
O30   Zn12  S    
C4    C48   S    
C131  H141  S    
C102  H69   S    
O32   Zn2   S    
C176  H237  S    
C216  C239  S    
C188  H272  S    
C158  H203  S    
C89   H37   S    
O44   Zn1   S    
C247  C248  T    
C67   H346  S    
C255  H223  S    
C19   C220  S    
C118  H109  S    
C10   C23   A    
C258  H309  S    
C22   C223  S    
C88   H38   S    
C95   H53   S    
C260  H331  S    
C192  C193  S    
C182  H255  S    
C166  H214  S    
C141  C142  S    
C130  H129  S    
C83   H21   S    
C138  C157  S    
C133  H136  S    
C45   H290  S    
C228  O14   A    
C9    C263  A    
C193  H276  S    
C5    C258  A    
C10   C264  A    
C191  C208  S    
C183  H252  S    
O7    Zn10  S    
C138  H156  S    
C12   C23   A    
C15   C21   A    
C71   C72   S    
C23   C224  S    
O28   Zn12  S    
C28   C257  A    
C42   C43   S    
C115  H103  S    
C178  H248  S    
C153  H182  S    
C122  C123  S    
C52   H305  S    
