data_mof_unit_51939.cif
_audit_creation_date              2012-12-10T18:54:29-0500
_audit_creation_method            fapswitch 2.2
_symmetry_space_group_name_H-M    P1
_symmetry_Int_Tables_number       1
_space_group_crystal_system       triclinic
_cell_length_a                    10.83719
_cell_length_b                    9.804954
_cell_length_c                    23.406974
_cell_angle_alpha                 90.191311
_cell_angle_beta                  90.318581
_cell_angle_gamma                 90.160414
_cell_volume                      2487.119551

loop_
_atom_site_label
_atom_site_type_symbol
_atom_type_description
_atom_site_fract_x
_atom_site_fract_y
_atom_site_fract_z
_atom_type_partial_charge
C1    C     C_R   0.259381 0.499941 0.499676 0.971959
C2    C     C_R   0.739902 0.500269 0.500300 0.946863
C3    C     C_R   0.495347 0.379315 0.237120 -0.102275
C4    C     C_R   0.542000 0.380217 0.761684 -0.109270
C5    C     C_R   0.489218 0.378383 0.296351 -0.222964
C6    C     C_R   0.531374 0.378634 0.702544 -0.237040
C7    C     C_R   0.506306 0.500142 0.327133 -0.029753
C8    C     C_R   0.512751 0.501141 0.672826 -0.031043
C9    C     C_R   0.530489 0.622382 0.298141 -0.235744
C10   C     C_R   0.507528 0.625248 0.702777 -0.219524
C11   C     C_R   0.536844 0.622839 0.239004 -0.124977
C12   C     C_R   0.518223 0.626396 0.761829 -0.122458
C13   C     C_R   0.519002 0.501525 0.208654 0.324570
C14   C     C_R   0.534360 0.503932 0.791144 0.325987
C15   C     C_R   0.060560 0.376880 0.506615 0.365961
C16   C     C_R   0.935917 0.618650 0.483248 0.355772
C17   C     C_R   0.936097 0.383682 0.517808 0.361467
C18   C     C_R   0.061558 0.624315 0.492578 0.357368
C19   C     C_R   0.871771 0.501051 0.500651 -0.454703
C20   C     C_R   0.126298 0.500263 0.499429 -0.466779
C21   C     C_R   0.546046 0.072509 0.545596 -0.035331
C22   C     C_R   0.454023 0.927457 0.454383 -0.073935
C23   C     C_R   0.454873 0.071493 0.454220 -0.092846
C24   C     C_R   0.546436 0.928456 0.545522 -0.074472
C25   C     C_R   0.500935 0.499879 0.389258 0.846064
C26   C     C_R   0.502359 0.500234 0.610751 0.847070
C27   C     C_R   0.641912 0.510068 0.880881 0.514961
C28   C     C_R   0.413570 0.508903 0.118760 0.515967
C29   C     C_R   0.421826 0.503793 0.878587 0.523443
C30   C     C_R   0.633625 0.503921 0.121394 0.521371
C31   C     C_R   0.416174 0.507043 0.938669 -0.096839
C32   C     C_R   0.639535 0.507477 0.061239 -0.094648
C33   C     C_R   0.528561 0.513458 0.969783 -0.094248
C34   C     C_R   0.527258 0.513445 0.030058 -0.094005
C35   C     C_R   0.642350 0.518270 0.940743 -0.118184
C36   C     C_R   0.413436 0.517827 0.059031 -0.119917
C37   C     C_R   0.303054 0.508150 0.968581 -0.166364
C38   C     C_R   0.752648 0.508891 0.031306 -0.167130
C39   C     C_R   0.302720 0.529652 0.027745 0.474847
C40   C     C_R   0.753121 0.530106 0.972109 0.474563
H1    H     H_    0.481312 0.285680 0.213261 0.131732
H2    H     H_    0.553812 0.285551 0.784749 0.131608
H3    H     H_    0.470478 0.283045 0.317923 0.150498
H4    H     H_    0.537195 0.281926 0.680237 0.149631
H5    H     H_    0.545059 0.717280 0.321066 0.151963
H6    H     H_    0.493982 0.721059 0.680741 0.152350
H7    H     H_    0.554965 0.717230 0.216623 0.129771
H8    H     H_    0.511563 0.721818 0.785033 0.126046
H9    H     H_    0.582606 0.127467 0.582057 0.108925
H10   H     H_    0.416751 0.872483 0.418036 0.138022
H11   H     H_    0.418869 0.125685 0.417613 0.114593
H12   H     H_    0.583801 0.874246 0.581838 0.126475
N1    N     N_R   0.533043 0.504594 0.851830 -0.361717
N2    N     N_R   0.522222 0.503473 0.147980 -0.361928
N3    N     N_R   0.500000 0.857200 0.500000 -0.083401
N4    N     N_R   0.500000 0.142800 0.500000 -0.073360
O1    O     O_R   0.316770 0.614620 0.500000 -0.591664
O2    O     O_R   0.683230 0.385380 0.500000 -0.584239
O3    O     O_R   0.683230 0.614620 0.500000 -0.585276
O4    O     O_R   0.316770 0.385380 0.500000 -0.588445
O5    O     O_R   0.499970 0.614690 0.416160 -0.636776
O6    O     O_R   0.500030 0.385310 0.583840 -0.633780
O7    O     O_R   0.500030 0.614690 0.583840 -0.641015
O8    O     O_R   0.499970 0.385310 0.416160 -0.635972
O9    O     O_2   0.748695 0.505166 0.851564 -0.516600
O10   O     O_2   0.306469 0.503383 0.147846 -0.511193
O11   O     O_2   0.317943 0.502055 0.846533 -0.558735
O12   O     O_2   0.737247 0.502752 0.153601 -0.563593
Zn1   Zn    Zn3+2 0.500000 0.653120 0.500000 0.953907
Zn2   Zn    Zn3+2 0.500000 0.346880 0.500000 0.963507
C41   C     C_1   0.186465 0.478747 0.940768 0.312318
N5    N     N_1   0.094187 0.452839 0.918131 -0.095297
C42   C     C_1   0.869011 0.479884 0.059154 0.311715
N6    N     N_1   0.961081 0.454271 0.081841 -0.093405
O13   O     O_3   0.193011 0.558096 0.055307 -0.587660
C43   C     C_3   0.162867 0.697678 0.047757 0.096203
H13   H     H_    0.061488 0.707359 0.052328 0.155780
H14   H     H_    0.185798 0.736599 0.004332 0.097601
C44   C     C_3   0.223958 0.787560 0.093660 -0.329232
H15   H     H_    0.198193 0.749872 0.136706 0.264748
H16   H     H_    0.325900 0.783066 0.089483 0.204765
C45   C     C_3   0.183372 0.935857 0.088032 -0.942291
H17   H     H_    0.209732 0.976633 0.045575 0.267295
H18   H     H_    0.229120 0.998411 0.121682 0.274172
H19   H     H_    0.081827 0.944156 0.093211 0.268744
O14   O     O_3   0.862952 0.558408 0.944584 -0.587624
C46   C     C_3   0.894209 0.697838 0.952679 0.097193
H20   H     H_    0.995623 0.707271 0.947950 0.156170
H21   H     H_    0.871953 0.736437 0.996314 0.097189
C47   C     C_3   0.833333 0.788326 0.907308 -0.329440
H22   H     H_    0.858522 0.751091 0.864042 0.265406
H23   H     H_    0.731392 0.783921 0.911630 0.204303
C48   C     C_3   0.874874 0.936507 0.913582 -0.942873
H24   H     H_    0.849019 0.976856 0.956265 0.267384
H25   H     H_    0.829323 0.999489 0.880285 0.273619
H26   H     H_    0.976437 0.944728 0.908316 0.268883
O15   O     O_3   0.116262 0.249876 0.507304 -0.593453
C49   C     C_3   0.133242 0.204330 0.450238 0.134745
H27   H     H_    0.202498 0.121385 0.451387 0.160963
H28   H     H_    0.171799 0.285671 0.422229 0.121633
C50   C     C_3   0.014405 0.145619 0.423661 -0.349350
H29   H     H_    0.983391 0.055741 0.448522 0.257541
H30   H     H_    0.939863 0.222949 0.424019 0.231825
C51   C     C_3   0.035646 0.102853 0.361755 -0.966667
H31   H     H_    0.059250 0.193270 0.335466 0.272143
H32   H     H_    0.950250 0.055673 0.344114 0.276800
H33   H     H_    0.112088 0.027916 0.359108 0.262749
O16   O     O_3   0.877242 0.733814 0.462333 -0.599403
C52   C     C_3   0.842869 0.712801 0.404400 0.153809
H34   H     H_    0.776923 0.794896 0.392810 0.164777
H35   H     H_    0.793017 0.614541 0.397525 0.110695
C53   C     C_3   0.954449 0.720829 0.364422 -0.399803
H36   H     H_    0.009810 0.812891 0.374868 0.262167
H37   H     H_    0.013890 0.629827 0.370589 0.214464
C54   C     C_3   0.913855 0.726240 0.301930 -0.904111
H38   H     H_    0.858702 0.634177 0.290699 0.284421
H39   H     H_    0.996412 0.729918 0.274086 0.279633
H40   H     H_    0.857509 0.818787 0.293965 0.255617
O17   O     O_3   0.878620 0.269574 0.540406 -0.594704
C55   C     C_3   0.846478 0.294294 0.598222 0.139704
H41   H     H_    0.790113 0.206169 0.612514 0.150324
H42   H     H_    0.787404 0.386234 0.603040 0.114321
C56   C     C_3   0.960130 0.306473 0.637571 -0.409817
H43   H     H_    0.024771 0.221610 0.628779 0.262430
H44   H     H_    0.009028 0.404100 0.629171 0.208324
C57   C     C_3   0.923124 0.303494 0.700378 -0.884549
H45   H     H_    0.858577 0.388313 0.709955 0.278654
H46   H     H_    0.006594 0.315214 0.727698 0.286203
H47   H     H_    0.877960 0.204855 0.710746 0.253514
O18   O     O_3   0.119488 0.750360 0.489741 -0.601954
C58   C     C_3   0.140271 0.800537 0.545975 0.146639
H48   H     H_    0.218021 0.874502 0.544018 0.169795
H49   H     H_    0.169710 0.719051 0.576314 0.119635
C59   C     C_3   0.026849 0.874904 0.569480 -0.340160
H50   H     H_    0.003485 0.962276 0.541454 0.265654
H51   H     H_    0.946482 0.804612 0.570816 0.232795
C60   C     C_3   0.050972 0.927225 0.629965 -0.959057
H52   H     H_    0.071736 0.840827 0.659024 0.266760
H53   H     H_    0.967643 0.980417 0.645962 0.271524
H54   H     H_    0.130051 0.999544 0.630353 0.271979

loop_
_geom_bond_atom_site_label_1
_geom_bond_atom_site_label_2
_ccdc_geom_bond_type
C24   H12   S    
C38   C40   A    
C46   H20   S    
C9    H5    S    
C50   H29   S    
C8    C26   S    
C42   N6    T    
C11   H7    S    
C43   C44   S    
C12   H8    S    
C58   C59   S    
C59   C60   S    
C53   H37   S    
O15   C49   S    
C23   N4    A    
C24   N3    A    
C60   H53   S    
C48   H24   S    
C4    H2    S    
C43   H14   S    
C52   H35   S    
C56   H44   S    
C54   H38   S    
O16   C52   S    
O6    Zn2   S    
C15   C17   A    
C40   O14   S    
C53   H36   S    
C45   H18   S    
C17   C19   A    
C29   O11   S    
C23   H11   S    
O7    Zn1   S    
C54   H39   S    
C10   H6    S    
C57   H46   S    
C31   C33   A    
C16   O16   S    
O8    Zn2   S    
C18   C20   A    
C3    C13   A    
C55   C56   S    
C22   H10   S    
C5    H3    S    
C50   H30   S    
C6    H4    S    
C15   O15   S    
C21   H9    S    
C51   H31   S    
C55   H42   S    
C16   C19   A    
C15   C20   A    
C60   H54   S    
C39   O13   S    
C56   H43   S    
C43   H13   S    
C4    C6    A    
C52   C53   S    
C5    C7    A    
C28   N2    A    
O14   C46   S    
O2    Zn2   S    
C56   C57   S    
C59   H51   S    
C57   H47   S    
C27   C35   A    
C31   C37   A    
C25   O8    A    
C32   C34   A    
C28   O10   S    
O13   C43   S    
C27   O9    S    
C1    O1    A    
C21   N4    A    
C30   N2    A    
C47   H23   S    
O4    Zn2   S    
C29   C31   A    
C54   H40   S    
C27   N1    A    
C33   C34   A    
C25   O5    A    
C9    C11   A    
C22   N3    A    
C10   C12   A    
O3    Zn1   S    
C16   C18   A    
C12   C14   A    
C49   H27   S    
C50   C51   S    
C32   C38   A    
C37   C41   S    
C1    O4    A    
C21   C24   A    
C58   H48   S    
C49   C50   S    
C3    C5    A    
C55   H41   S    
C47   C48   S    
C44   H16   S    
C13   N2    S    
O5    Zn1   S    
C7    C9    A    
C3    H1    S    
C1    C20   S    
C26   O7    A    
C2    C19   S    
C2    O3    A    
C36   C39   A    
C58   H49   S    
C44   C45   S    
C6    C8    A    
O17   C55   S    
C2    O2    A    
C51   H32   S    
C48   H26   S    
C45   H19   S    
C60   H52   S    
C59   H50   S    
N4    Zn2   S    
C7    C25   S    
N3    Zn1   S    
C46   H21   S    
O18   C58   S    
C26   O6    A    
C41   N5    T    
C37   C39   A    
C52   H34   S    
C30   C32   A    
C11   C13   A    
C47   H22   S    
C48   H25   S    
C29   N1    A    
C57   H45   S    
C33   C35   A    
C35   C40   A    
C34   C36   A    
C53   C54   S    
C4    C14   A    
C49   H28   S    
C18   O18   S    
C17   O17   S    
C44   H15   S    
C14   N1    S    
C28   C36   A    
C8    C10   A    
C45   H17   S    
C46   C47   S    
C22   C23   A    
O1    Zn1   S    
C51   H33   S    
C30   O12   S    
C38   C42   S    
