data_mof_unit_66109.cif
_audit_creation_date              2012-12-10T20:45:38-0500
_audit_creation_method            fapswitch 2.2
_symmetry_space_group_name_H-M    P1
_symmetry_Int_Tables_number       1
_space_group_crystal_system       triclinic
_cell_length_a                    28.310289
_cell_length_b                    25.914456
_cell_length_c                    15.13202
_cell_angle_alpha                 90.042763
_cell_angle_beta                  98.134966
_cell_angle_gamma                 89.970647
_cell_volume                      10989.8285723

loop_
_atom_site_label
_atom_site_type_symbol
_atom_type_description
_atom_site_fract_x
_atom_site_fract_y
_atom_site_fract_z
_atom_type_partial_charge
Br1   Br    Br    0.555404 0.784466 0.538054 -0.221390
Br2   Br    Br    0.313400 0.944201 0.551628 -0.332214
Br3   Br    Br    0.807508 0.557184 0.527068 -0.337188
Br4   Br    Br    0.886915 0.361691 0.682784 -0.274988
Br5   Br    Br    0.558295 0.215303 0.553469 -0.261458
Br6   Br    Br    0.057208 0.284655 0.548680 -0.276921
Br7   Br    Br    0.122417 0.650240 0.704769 -0.287649
Br8   Br    Br    0.618372 0.052307 0.035334 -0.295509
Br9   Br    Br    0.125118 0.529488 0.038765 -0.271865
Br10  Br    Br    0.418349 0.960785 0.805740 -0.280525
Br11  Br    Br    0.912700 0.485052 0.804258 -0.294757
Br12  Br    Br    0.375277 0.120323 0.680210 -0.326819
C1    C     C_R   0.408663 0.098551 0.490706 0.932148
C2    C     C_R   0.020991 0.519790 0.115441 0.389597
C3    C     C_R   0.452562 0.962630 0.116191 -0.265506
C4    C     C_R   0.947660 0.471086 0.113127 -0.259684
C5    C     C_R   0.449804 0.954812 0.024885 0.465221
C6    C     C_R   0.943384 0.465852 0.021065 0.460438
C7    C     C_R   0.628478 0.861238 0.514571 -0.217261
C8    C     C_R   0.628837 0.138418 0.515204 -0.212560
C9    C     C_R   0.128767 0.361466 0.515548 -0.213389
C10   C     C_R   0.127780 0.639464 0.513563 -0.218973
C11   C     C_R   0.675047 0.876799 0.506511 -0.282314
C12   C     C_R   0.408720 0.901495 0.490556 0.930020
C13   C     C_R   0.674400 0.122999 0.499343 -0.271269
C14   C     C_R   0.174731 0.376839 0.502281 -0.281299
C15   C     C_R   0.146146 0.651464 0.434756 -0.251246
C16   C     C_R   0.712283 0.841242 0.512924 0.381338
C17   C     C_R   0.712106 0.157851 0.507427 0.377834
C18   C     C_R   0.212386 0.341823 0.511663 0.375997
C19   C     C_R   0.178779 0.691478 0.432627 0.376025
C20   C     C_R   0.702784 0.788241 0.524875 0.099006
C21   C     C_R   0.704520 0.209402 0.530915 0.099842
C22   C     C_R   0.204300 0.290136 0.533744 0.100395
C23   C     C_R   0.908778 0.598596 0.490528 0.923037
C24   C     C_R   0.194175 0.719907 0.510842 0.095861
C25   C     C_R   0.656381 0.772574 0.535066 0.302590
C26   C     C_R   0.659265 0.225351 0.547712 0.313165
C27   C     C_R   0.158591 0.274275 0.547884 0.311330
C28   C     C_R   0.175739 0.708546 0.589953 0.319759
C29   C     C_R   0.590986 0.900970 0.508897 0.883236
C30   C     C_R   0.590967 0.099082 0.508820 0.895045
C31   C     C_R   0.090957 0.400912 0.508825 0.880736
C32   C     C_R   0.091660 0.598394 0.510608 0.901195
C33   C     C_R   0.619045 0.808669 0.529617 0.216157
C34   C     C_R   0.908640 0.401284 0.490501 0.919017
C35   C     C_R   0.620990 0.190304 0.538708 0.212050
C36   C     C_R   0.120428 0.309493 0.537633 0.208692
C37   C     C_R   0.143051 0.667921 0.592272 0.210600
C38   C     C_R   0.317461 0.188953 0.563812 -0.142942
C39   C     C_R   0.291220 0.838396 0.511401 -0.139845
C40   C     C_R   0.791313 0.665036 0.498232 -0.158959
C41   C     C_R   0.822075 0.303939 0.561052 -0.146532
C42   C     C_R   0.353585 0.152158 0.566990 0.215365
C43   C     C_R   0.326726 0.875800 0.512706 0.209335
C44   C     C_R   0.825614 0.626279 0.500440 0.207317
C45   C     C_R   0.481333 0.981619 0.975783 -0.103848
C46   C     C_R   0.858474 0.340393 0.565653 0.225162
C47   C     C_R   0.298488 0.212159 0.482169 0.226597
C48   C     C_R   0.299567 0.787253 0.485325 0.220859
C49   C     C_R   0.802968 0.716595 0.481396 0.205685
C50   C     C_R   0.798123 0.287385 0.477973 0.225706
C51   C     C_R   0.371403 0.137974 0.488063 -0.186006
C52   C     C_R   0.371266 0.862500 0.488160 -0.181187
C53   C     C_R   0.872306 0.638820 0.486185 -0.184052
C54   C     C_R   0.871622 0.361194 0.486403 -0.194908
C55   C     C_R   0.352821 0.161541 0.406566 0.340491
C56   C     C_R   0.978636 0.487369 0.974056 -0.105198
C57   C     C_R   0.379532 0.811692 0.461292 0.334848
C58   C     C_R   0.883842 0.690299 0.468179 0.328419
C59   C     C_R   0.848461 0.343420 0.403048 0.346647
C60   C     C_R   0.316829 0.198513 0.404454 -0.169650
C61   C     C_R   0.343721 0.774597 0.459997 -0.158885
C62   C     C_R   0.848959 0.728602 0.464765 -0.155818
C63   C     C_R   0.812247 0.306637 0.399713 -0.166423
C64   C     C_R   0.489487 0.000333 0.257672 0.909095
C65   C     C_R   0.989502 0.500629 0.257529 0.899775
C66   C     C_R   0.510354 0.000075 0.742152 0.872857
C67   C     C_R   0.519067 0.011879 0.023694 -0.103212
C68   C     C_R   0.010619 0.500080 0.742093 0.875862
C69   C     C_R   0.485557 0.996801 0.160738 -0.177154
C70   C     C_R   0.985470 0.498415 0.160219 -0.192637
C71   C     C_R   0.513469 0.000631 0.838584 -0.135626
C72   C     C_R   0.013667 0.500523 0.838334 -0.135980
C73   C     C_R   0.556756 0.029287 0.978598 0.376849
C74   C     C_R   0.060906 0.519129 0.979971 0.380386
C75   C     C_R   0.553238 0.023577 0.886995 -0.264910
C76   C     C_R   0.056801 0.514324 0.888035 -0.257943
C77   C     C_R   0.476944 0.979841 0.881244 0.288491
C78   C     C_R   0.020746 0.509144 0.023884 -0.106648
C79   C     C_R   0.973918 0.488119 0.879675 0.286612
C80   C     C_R   0.517655 0.023221 0.114646 0.389615
Cl1   Cl    Cl    0.547759 0.077234 0.168310 -0.455608
Cl2   Cl    Cl    0.197541 0.706720 0.329614 -0.432502
Cl3   Cl    Cl    0.412074 0.903705 0.982556 -0.423231
Cl4   Cl    Cl    0.898002 0.423400 0.973798 -0.401550
Cl5   Cl    Cl    0.645236 0.706503 0.552458 -0.416835
Cl6   Cl    Cl    0.650833 0.290216 0.577850 -0.396105
Cl7   Cl    Cl    0.149452 0.209272 0.576140 -0.407383
Cl8   Cl    Cl    0.195193 0.744964 0.687004 -0.393016
Cl9   Cl    Cl    0.058079 0.568622 0.170514 -0.467622
Cl10  Cl    Cl    0.374723 0.146972 0.306035 -0.482046
Cl11  Cl    Cl    0.433746 0.793648 0.425697 -0.476508
Cl12  Cl    Cl    0.941305 0.707966 0.447072 -0.497371
Cl13  Cl    Cl    0.864789 0.364612 0.300853 -0.497968
Cl14  Cl    Cl    0.770252 0.865872 0.511536 -0.476280
Cl15  Cl    Cl    0.769004 0.135080 0.492019 -0.456994
Cl16  Cl    Cl    0.269757 0.364582 0.499739 -0.464412
H1    H     H_    0.302690 0.216537 0.341668 0.210525
H2    H     H_    0.921545 0.452693 0.148654 0.237507
H3    H     H_    0.581995 0.037238 0.852758 0.186704
H4    H     H_    0.087571 0.521757 0.854637 0.192776
H5    H     H_    0.304157 0.198943 0.625257 0.212453
H6    H     H_    0.257389 0.849501 0.531289 0.216562
H7    H     H_    0.755526 0.654834 0.509317 0.225879
H8    H     H_    0.812468 0.288825 0.622780 0.213175
H9    H     H_    0.350267 0.735532 0.439220 0.215052
H10   H     H_    0.857822 0.768101 0.450422 0.223894
H11   H     H_    0.794538 0.293277 0.335618 0.213353
H12   H     H_    0.682809 0.917255 0.497464 0.224522
H13   H     H_    0.681075 0.083257 0.482480 0.227170
H14   H     H_    0.181730 0.416666 0.486612 0.228604
H15   H     H_    0.134119 0.630453 0.373755 0.246777
H16   H     H_    0.429527 0.940566 0.153519 0.215419
N1    N     N_2   0.738450 0.749444 0.528952 -0.086911
N2    N     N_2   0.742253 0.245507 0.540515 -0.085799
N3    N     N_2   0.241762 0.253613 0.543807 -0.086914
N4    N     N_2   0.227336 0.760800 0.511472 -0.084987
N5    N     N_2   0.260961 0.249007 0.474994 -0.080462
N6    N     N_2   0.265027 0.747354 0.484218 -0.079452
N7    N     N_2   0.768891 0.756866 0.478378 -0.073900
N8    N     N_2   0.760008 0.251318 0.470340 -0.076077
O1    O     O_3   0.500000 0.000000 0.500000 -0.547618
O2    O     O_R   0.057820 0.602510 0.558190 -0.592410
O3    O     O_R   0.402690 0.940060 0.437800 -0.619994
O4    O     O_R   0.402690 0.059940 0.437800 -0.591896
O5    O     O_R   0.902690 0.440060 0.437800 -0.589905
O6    O     O_R   0.902690 0.559940 0.437800 -0.610885
O7    O     O_R   0.592810 0.059930 0.457190 -0.625775
O8    O     O_R   0.592810 0.940070 0.457190 -0.641903
O9    O     O_R   0.092810 0.559930 0.457190 -0.629336
O10   O     O_R   0.092810 0.440070 0.457190 -0.638810
O11   O     O_R   0.451940 0.000000 0.295720 -0.623414
O12   O     O_3   0.000000 0.500000 0.500000 -0.548764
O13   O     O_R   0.951940 0.500000 0.295720 -0.628422
O14   O     O_R   0.508560 0.042600 0.700250 -0.614700
O15   O     O_R   0.508560 0.957400 0.700250 -0.614435
O16   O     O_R   0.008560 0.542600 0.700250 -0.613648
O17   O     O_R   0.008560 0.457400 0.700250 -0.606750
O18   O     O_R   0.530930 1.000000 0.303780 -0.598654
O19   O     O_R   0.030930 0.500000 0.303780 -0.594082
O20   O     O_R   0.446670 0.102520 0.546820 -0.597927
O21   O     O_R   0.446670 0.897480 0.546820 -0.586619
O22   O     O_R   0.946670 0.602520 0.546820 -0.595882
O23   O     O_R   0.946670 0.397480 0.546820 -0.596455
O24   O     O_R   0.557820 0.897490 0.558190 -0.602874
O25   O     O_R   0.557820 0.102510 0.558190 -0.610048
O26   O     O_R   0.057820 0.397490 0.558190 -0.605383
Zn1   Zn    Zn3+2 0.503210 0.939150 0.575020 1.081086
Zn2   Zn    Zn3+2 0.503210 0.060850 0.575020 1.078548
Zn3   Zn    Zn3+2 0.003210 0.439150 0.575020 1.078631
Zn4   Zn    Zn3+2 0.003210 0.560850 0.575020 1.087373
Zn5   Zn    Zn3+2 0.440370 0.000000 0.419230 1.090267
Zn6   Zn    Zn3+2 0.940370 0.500000 0.419230 1.085773
Zn7   Zn    Zn3+2 0.553220 0.000000 0.430750 1.044989
Zn8   Zn    Zn3+2 0.053220 0.500000 0.430750 1.046329

loop_
_geom_bond_atom_site_label_1
_geom_bond_atom_site_label_2
_ccdc_geom_bond_type
C71   C75   A    
C9    C14   A    
O20   Zn2   S    
O12   Zn3   S    
C6    Cl4   S    
C45   C67   A    
C23   O22   A    
C26   Cl6   S    
C31   O26   A    
O15   Zn1   S    
C65   O19   A    
C25   Cl5   S    
C4    H2    S    
C3    C69   A    
O23   Zn3   S    
C34   O23   A    
Br5   C35   S    
O9    Zn8   S    
C38   C42   A    
Br6   C36   S    
C38   C47   A    
Br8   C73   S    
Br2   C43   S    
C23   O6    A    
C74   C76   A    
O14   Zn2   S    
C8    C13   A    
C23   C53   S    
C6    C56   A    
C44   C53   A    
C17   C21   A    
C48   C61   A    
C56   C79   A    
C55   C60   A    
C41   C50   A    
O7    Zn7   S    
C2    C78   A    
C29   O8    A    
O26   Zn3   S    
C9    C31   S    
C69   C80   A    
C66   C71   S    
C46   C54   A    
C10   C32   S    
Br10  C77   S    
C16   Cl14  S    
C22   N3    S    
C58   C62   A    
C56   C78   A    
C57   C61   A    
C5    Cl3   S    
C72   C79   A    
C64   O18   A    
C39   C43   A    
C41   H8    S    
C68   C72   S    
C47   C60   A    
C9    C36   A    
C18   Cl16  S    
C73   C75   A    
C12   C52   S    
O12   Zn6   S    
C13   C17   A    
C24   N4    S    
C71   C77   A    
O1    Zn5   S    
C16   C20   A    
O11   Zn5   S    
C38   H5    S    
C57   Cl11  S    
C32   O2    A    
C68   O17   A    
C62   H10   S    
C51   C55   A    
C39   H6    S    
C61   H9    S    
C3    H16   S    
C18   C22   A    
C15   C19   A    
C22   C27   A    
C50   N8    S    
C24   C28   A    
C63   H11   S    
Br7   C37   S    
C21   N2    S    
C74   C78   A    
C48   N6    S    
C11   H12   S    
C15   H15   S    
C32   O9    A    
C2    Cl9   S    
C52   C57   A    
O18   Zn7   S    
O2    Zn4   S    
O12   Zn8   S    
O1    Zn1   S    
C20   N1    S    
O21   Zn1   S    
C7    C11   A    
N3    N5    D    
O1    Zn7   S    
Br9   C74   S    
O10   Zn8   S    
Br3   C44   S    
N1    N7    D    
C27   Cl7   S    
C54   C59   A    
C1    C51   S    
N2    N8    D    
C43   C52   A    
C4    C70   A    
C67   C80   A    
C20   C25   A    
C26   C35   A    
C45   C77   A    
C66   O15   A    
C10   C37   A    
C12   O3    A    
C14   C18   A    
O25   Zn2   S    
C10   C15   A    
C34   O5    A    
C1    O4    A    
C50   C63   A    
C30   O25   A    
O17   Zn3   S    
C11   C16   A    
C2    C70   A    
C66   O14   A    
C25   C33   A    
O19   Zn8   S    
C65   O13   A    
C67   C73   A    
C12   O21   A    
C40   H7    S    
O8    Zn7   S    
C3    C5    A    
C60   H1    S    
C47   N5    S    
O12   Zn4   S    
C30   O7    A    
O3    Zn5   S    
O22   Zn4   S    
O24   Zn1   S    
C72   C76   A    
C1    O20   A    
N4    N6    D    
C64   C69   S    
C28   Cl8   S    
O5    Zn6   S    
C8    C30   S    
C41   C46   A    
C7    C33   A    
C34   C54   S    
O13   Zn6   S    
C49   C62   A    
C19   Cl2   S    
C21   C26   A    
C40   C49   A    
O1    Zn2   S    
O16   Zn4   S    
C29   O24   A    
C59   Cl13  S    
C59   C63   A    
Br1   C33   S    
C28   C37   A    
C40   C44   A    
C65   C70   S    
C80   Cl1   S    
C58   Cl12  S    
C8    C35   A    
C49   N7    S    
C76   H4    S    
C64   O11   A    
Br11  C79   S    
C68   O16   A    
C75   H3    S    
C4    C6    A    
C42   C51   A    
Br4   C46   S    
C19   C24   A    
C17   Cl15  S    
C31   O10   A    
O6    Zn6   S    
C39   C48   A    
C14   H14   S    
C53   C58   A    
C13   H13   S    
Br12  C42   S    
C7    C29   S    
C55   Cl10  S    
C5    C45   A    
C27   C36   A    
O4    Zn5   S    
