data_mof_unit_49372.cif
_audit_creation_date              2013-03-05T16:00:49-0500
_audit_creation_method            fapswitch 2.2
_symmetry_space_group_name_H-M    P1
_symmetry_Int_Tables_number       1
_space_group_crystal_system       triclinic
_cell_length_a                    14.74109
_cell_length_b                    14.829062
_cell_length_c                    15.875308
_cell_angle_alpha                 75.692345
_cell_angle_beta                  102.665163
_cell_angle_gamma                 115.617932
_cell_volume                      3006.89561445

loop_
_atom_site_label
_atom_site_type_symbol
_atom_site_description
_atom_site_fract_x
_atom_site_fract_y
_atom_site_fract_z
_atom_type_partial_charge
O1    O     O_R   0.977910 0.338120 0.529720 -0.590599
O2    O     O_R   0.839850 0.379180 0.491640 -0.593118
C1    C     C_R   0.879957 0.312218 0.515497 0.790783
O3    O     O_R   0.069060 0.479460 0.639610 -0.599872
O4    O     O_R   0.931000 0.520530 0.601530 -0.558130
C2    C     C_R   0.999823 0.499888 0.659588 0.801575
Cu1   Cu    Cu3+1 0.081750 0.475690 0.522550 1.020127
Cu2   Cu    Cu3+1 0.918250 0.524310 0.477450 1.061815
O5    O     O_R   0.160150 0.620820 0.508360 -0.553781
O6    O     O_R   0.022090 0.661880 0.470280 -0.508489
O7    O     O_R   0.069000 0.479470 0.398470 -0.531548
O8    O     O_R   0.930940 0.520540 0.360390 -0.554617
C3    C     C_R   0.119468 0.687516 0.491570 0.896346
C4    C     C_R   0.000247 0.500262 0.340413 0.848501
C5    C     C_3   0.079490 0.461245 0.975210 -0.556655
C6    C     C_3   0.894606 0.429837 0.945876 -0.369157
C7    C     C_3   0.892588 0.435241 0.041620 0.523591
H1    H     H_    0.062316 0.384012 0.964020 0.256815
H2    H     H_    0.834947 0.452218 0.901938 0.204190
H3    H     H_    0.876364 0.350325 0.940129 0.235300
H4    H     H_    0.839951 0.471136 0.041240 0.166456
C8    C     C_1   0.000639 0.500546 0.250784 -0.033088
C9    C     C_3   0.000449 0.500627 0.917008 -0.042136
C10   C     C_3   0.080634 0.461624 0.073422 0.118220
C11   C     C_3   0.000607 0.500332 0.082984 -0.141580
C12   C     C_3   0.030920 0.610328 0.030089 0.310377
C13   C     C_3   0.028342 0.609939 0.931628 0.462053
C14   C     C_1   0.000724 0.500661 0.175229 0.140561
C15   C     C_1   0.999989 0.500468 0.824734 0.070808
C16   C     C_1   0.999771 0.500226 0.749178 -0.113215
H5    H     H_    0.104512 0.660821 0.911364 0.067763
H6    H     H_    0.109082 0.658982 0.056223 0.080596
H7    H     H_    0.156271 0.510800 0.955622 0.171892
H8    H     H_    0.156975 0.517243 0.096260 0.107030
C17   C     C_R   0.811514 0.204208 0.531646 -0.089234
C18   C     C_R   0.185782 0.794295 0.501205 -0.258072
C19   C     C_R   0.782186 0.026582 0.577249 -0.133730
C20   C     C_R   0.849025 0.128062 0.560083 -0.143007
C21   C     C_R   0.706926 0.177734 0.522131 -0.150012
C22   C     C_R   0.638939 0.077088 0.545957 0.106466
C23   C     C_R   0.677485 0.000460 0.569268 0.123334
C24   C     C_R   0.533213 0.049992 0.542954 -0.053614
C25   C     C_R   0.465967 0.946243 0.545941 0.040192
C26   C     C_R   0.506999 0.871761 0.570495 -0.117641
C27   C     C_R   0.611078 0.898675 0.583620 -0.172281
C28   C     C_R   0.492335 0.121515 0.540760 0.558921
C29   C     C_R   0.388120 0.093017 0.531392 -0.118713
C30   C     C_R   0.321113 0.993672 0.522773 -0.129638
C31   C     C_R   0.359609 0.919904 0.528041 0.003938
C32   C     C_R   0.215958 0.966450 0.511821 0.603313
C33   C     C_R   0.147867 0.866437 0.504298 0.253995
C34   C     C_R   0.290767 0.822637 0.512803 -0.236702
H9    H     H_    0.639575 0.839307 0.603107 0.170321
H10   H     H_    0.318042 0.767998 0.507949 0.236822
H11   H     H_    0.360073 0.149719 0.531020 0.226455
H12   H     H_    0.812317 0.968463 0.596749 0.177223
H13   H     H_    0.929673 0.146704 0.568039 0.184427
H14   H     H_    0.679410 0.236340 0.492640 0.220010
H15   H     H_    0.460069 0.791792 0.584399 0.182268
N1    N     N_R   0.795410 0.560790 0.443550 -0.240014
N2    N     N_R   0.204590 0.439170 0.556520 -0.230606
C35   C     C_R   0.692490 0.629024 0.332545 -0.301821
C36   C     C_R   0.784698 0.621010 0.364739 0.541981
C37   C     C_R   0.717748 0.511518 0.493989 0.002956
C38   C     C_R   0.622369 0.518908 0.465029 0.014269
C39   C     C_R   0.611224 0.577348 0.381175 0.073776
C40   C     C_R   0.537286 0.469809 0.514160 0.021083
C41   C     C_R   0.446665 0.485942 0.479594 0.085975
C42   C     C_R   0.436161 0.532990 0.391601 -0.074193
C43   C     C_R   0.517755 0.580740 0.344327 -0.138310
C44   C     C_R   0.537569 0.402859 0.594444 -0.192817
C45   C     C_R   0.450700 0.350438 0.637684 0.353441
C46   C     C_R   0.364991 0.375124 0.607540 -0.023321
C47   C     C_R   0.366137 0.449341 0.531751 -0.133230
C48   C     C_R   0.279911 0.331021 0.653200 -0.203873
C49   C     C_R   0.199172 0.361194 0.624327 0.016647
C50   C     C_R   0.288653 0.487728 0.512813 0.491316
H16   H     H_    0.507198 0.619738 0.277875 0.161547
H17   H     H_    0.133095 0.324603 0.658672 0.153692
H18   H     H_    0.684125 0.674539 0.268708 0.189375
H19   H     H_    0.730955 0.464735 0.554981 0.155641
H20   H     H_    0.363916 0.531508 0.357405 0.190140
H21   H     H_    0.602481 0.384768 0.622328 0.202293
H22   H     H_    0.274945 0.274031 0.711569 0.209151
N3    N     N_R   0.067319 0.362085 0.128039 0.201033
O9    O     O_R   0.131183 0.356412 0.198090 -0.325347
O10   O     O_R   0.998139 0.278459 0.103941 -0.235517
F1    F     F_    0.966757 0.652568 0.039362 -0.553163
N4    N     N_R   0.041956 0.838671 0.505435 0.175654
O11   O     O_R   0.996263 0.770016 0.568573 -0.327745
O12   O     O_R   0.997465 0.895736 0.455628 -0.233657
F2    F     F_    0.551419 0.216714 0.556935 -0.695636
F3    F     F_    0.179381 0.035995 0.512992 -0.607787
N5    N     N_R   0.308694 0.587427 0.461888 0.098491
O13   O     O_R   0.395122 0.661350 0.479705 -0.419040
O14   O     O_R   0.253032 0.600583 0.388087 -0.358369
N6    N     N_R   0.451947 0.273421 0.712900 0.134866
O15   O     O_R   0.380263 0.182564 0.716008 -0.325511
O16   O     O_R   0.533288 0.287969 0.769599 -0.316331
N7    N     N_R   0.865163 0.672301 0.311496 0.137118
O17   O     O_R   0.849924 0.653431 0.232593 -0.311912
O18   O     O_R   0.939168 0.755758 0.330694 -0.283071
F4    F     F_    0.853606 0.338581 0.090347 -0.587234
F5    F     F_    0.959183 0.647719 0.879980 -0.565794

loop_
_geom_bond_atom_site_label_1
_geom_bond_atom_site_label_2
_geom_bond_distance
_ccdc_geom_bond_type
C5    H1    1.112403 S    
C12   H6    1.113415 S    
C43   H16   1.084380 S    
C46   C47   1.413337 A    
C13   F5    1.387728 S    
C49   H17   1.081698 S    
C48   C49   1.395270 A    
N6    O15   1.301229 A    
Cu1   Cu2   2.707798 S    
N3    O9    1.301244 A    
C11   C14   1.465255 S    
Cu1   O7    1.926345 S    
C12   C13   1.556586 S    
C35   C36   1.388492 A    
N1    C36   1.367789 A    
C9    C15   1.463990 S    
C35   H18   1.084853 S    
C19   C20   1.393745 A    
O4    C2    1.300593 A    
O7    C4    1.300720 A    
C48   H22   1.080462 S    
C28   F2    1.354731 S    
C26   H15   1.077842 S    
C41   C47   1.428651 A    
C50   N5    1.436300 S    
C24   C28   1.419304 A    
O5    C3    1.312021 A    
Cu1   N2    2.034339 S    
C42   H20   1.077718 S    
C19   H12   1.083866 S    
N2    C50   1.376234 A    
C41   C42   1.406760 A    
C38   C40   1.438808 A    
C47   C50   1.430420 A    
C9    C13   1.555083 S    
N4    O12   1.301235 A    
C10   N3    1.469898 S    
C18   C34   1.398728 A    
C6    H3    1.113153 S    
C5    C9    1.549840 S    
C27   H9    1.084154 S    
C8    C14   1.199308 T    
C46   C48   1.407531 A    
C42   C43   1.381306 A    
O3    Cu1   1.924696 S    
N6    O16   1.301337 A    
C34   H10   1.072494 S    
C44   H21   1.077524 S    
C45   N6    1.437018 S    
N3    O10   1.301540 A    
N2    C49   1.358242 A    
C35   C39   1.391987 A    
C13   H5    1.113267 S    
C40   C41   1.425790 A    
C17   C20   1.401101 A    
C10   C11   1.565683 S    
C3    C18   1.483868 S    
O3    C2    1.300323 A    
C21   C22   1.403119 A    
C25   C31   1.421747 A    
C36   N7    1.428858 S    
C11   C12   1.556495 S    
C21   H14   1.076777 S    
C10   H8    1.115523 S    
O1    C1    1.305289 A    
C17   C21   1.399179 A    
C25   C26   1.413947 A    
C15   C16   1.199663 T    
C20   H13   1.083029 S    
C22   C24   1.424109 A    
C29   C30   1.395241 A    
C1    C17   1.470423 S    
Cu2   O8    1.924699 S    
C31   C34   1.402804 A    
N7    O18   1.299138 A    
C32   C33   1.403222 A    
N5    O14   1.299182 A    
C18   C33   1.419257 A    
C12   F1    1.388375 S    
C30   C31   1.412949 A    
C2    C16   1.423677 S    
O8    C4    1.299864 A    
C6    C9    1.551061 S    
C24   C25   1.420424 A    
C26   C27   1.388528 A    
C29   H11   1.084013 S    
Cu1   O5    1.934384 S    
C28   C29   1.389333 A    
C5    C10   1.556914 S    
O1    Cu1   1.943991 S    
O2    Cu2   1.934384 S    
C45   C46   1.416877 A    
O6    C3    1.303135 A    
O4    Cu2   1.926345 S    
C32   F3    1.359916 S    
N1    C37   1.369351 A    
C7    C11   1.556944 S    
C37   C38   1.423048 A    
C4    C8    1.423133 S    
O2    C1    1.304826 A    
C7    F4    1.384841 S    
C44   C45   1.405770 A    
Cu2   N1    2.033986 S    
C39   C43   1.391079 A    
C6    H2    1.113149 S    
C30   C32   1.404059 A    
N7    O17   1.301269 A    
C40   C44   1.409242 A    
C19   C23   1.403468 A    
N5    O13   1.300914 A    
C7    H4    1.113073 S    
C37   H19   1.076498 S    
Cu2   O6    1.943991 S    
C38   C39   1.416740 A    
C23   C27   1.392321 A    
C22   C23   1.417494 A    
N4    O11   1.301371 A    
C5    H7    1.113521 S    
C33   N4    1.435331 S    
C6    C7    1.549102 S    
