data_mof_unit_38885.cif
_audit_creation_date              2012-12-11T16:19:16-0500
_audit_creation_method            fapswitch 2.2
_symmetry_space_group_name_H-M    P1
_symmetry_Int_Tables_number       1
_space_group_crystal_system       monoclinic
_cell_length_a                    6.986641
_cell_length_b                    31.678959
_cell_length_c                    34.662477
_cell_angle_alpha                 90.0
_cell_angle_beta                  90.000033
_cell_angle_gamma                 90.0
_cell_volume                      7671.82918105

loop_
_atom_site_label
_atom_site_type_symbol
_atom_type_description
_atom_site_fract_x
_atom_site_fract_y
_atom_site_fract_z
_atom_type_partial_charge
O1    O     O_R   0.417270 0.211480 0.210950 -0.532590
O2    O     O_R   0.582730 0.788520 0.789050 -0.526832
O3    O     O_R   0.582730 0.788520 0.710950 -0.532590
O4    O     O_R   0.417270 0.211480 0.289050 -0.526832
O5    O     O_R   0.917270 0.288520 0.289050 -0.532590
O6    O     O_R   0.082730 0.711480 0.710950 -0.526832
O7    O     O_R   0.082730 0.711480 0.789050 -0.532590
O8    O     O_R   0.917270 0.288520 0.210950 -0.526832
O9    O     O_R   0.746940 0.206370 0.288750 -0.539068
O10   O     O_R   0.253060 0.793630 0.711250 -0.531300
O11   O     O_R   0.253060 0.793630 0.788750 -0.539068
O12   O     O_R   0.746940 0.206370 0.211250 -0.531300
O13   O     O_R   0.246940 0.293630 0.211250 -0.539068
O14   O     O_R   0.753060 0.706370 0.788750 -0.531300
O15   O     O_R   0.753060 0.706370 0.711250 -0.539068
O16   O     O_R   0.246940 0.293630 0.288750 -0.531300
C1    C     C_R   0.579232 0.196077 0.301757 0.768714
C2    C     C_R   0.423100 0.804203 0.698499 0.770593
C3    C     C_R   0.420768 0.803923 0.801757 0.768713
C4    C     C_R   0.576899 0.195797 0.198499 0.770593
C5    C     C_R   0.079231 0.303923 0.198243 0.768713
C6    C     C_R   0.923101 0.695797 0.801501 0.770593
C7    C     C_R   0.920768 0.696077 0.698243 0.768714
C8    C     C_R   0.076899 0.304203 0.301501 0.770593
O17   O     O_3   0.583760 0.276950 0.250000 -0.373244
O18   O     O_3   0.416240 0.723050 0.750000 -0.373244
O19   O     O_3   0.083760 0.223050 0.250000 -0.373244
O20   O     O_3   0.916240 0.776950 0.750000 -0.373244
V1    V     V_3+5 0.858600 0.245000 0.250000 1.542335
V2    V     V_3+5 0.141400 0.755000 0.750000 1.542335
V3    V     V_3+5 0.358600 0.255000 0.250000 1.542335
V4    V     V_3+5 0.641400 0.745000 0.750000 1.542335
C9    C     C_R   0.899984 0.586137 0.538513 0.553408
C10   C     C_R   0.954087 0.415061 0.458065 0.563878
C11   C     C_R   0.100015 0.413862 0.038513 0.553408
C12   C     C_R   0.045913 0.584939 0.958065 0.563876
C13   C     C_R   0.399985 0.913862 0.961487 0.553409
C14   C     C_R   0.454087 0.084939 0.041935 0.563877
C15   C     C_R   0.600015 0.086137 0.461487 0.553408
C16   C     C_R   0.545913 0.915061 0.541935 0.563877
N1    N     N_R   0.933462 0.572721 0.575570 -0.541718
N2    N     N_R   0.993349 0.429287 0.421517 -0.541958
N3    N     N_R   0.066537 0.427279 0.075570 -0.541719
N4    N     N_R   0.006650 0.570712 0.921517 -0.541958
N5    N     N_R   0.433463 0.927279 0.924430 -0.541719
N6    N     N_R   0.493351 0.070712 0.078483 -0.541958
N7    N     N_R   0.566537 0.072721 0.424430 -0.541719
N8    N     N_R   0.506650 0.929287 0.578483 -0.541958
C17   C     C_R   0.959924 0.530472 0.583098 0.576408
C18   C     C_R   0.001460 0.471915 0.414152 0.580881
C19   C     C_R   0.040076 0.469528 0.083098 0.576407
C20   C     C_R   0.998539 0.528085 0.914152 0.580881
C21   C     C_R   0.459924 0.969528 0.916902 0.576407
C22   C     C_R   0.501462 0.028085 0.085848 0.580880
C23   C     C_R   0.540076 0.030472 0.416902 0.576407
C24   C     C_R   0.498539 0.971915 0.585848 0.580881
C25   C     C_R   0.955493 0.500143 0.552747 -0.100414
C26   C     C_R   0.973216 0.501897 0.444292 -0.101517
C27   C     C_R   0.044506 0.499857 0.052747 -0.100415
C28   C     C_R   0.026783 0.498103 0.944292 -0.101518
C29   C     C_R   0.455494 0.999857 0.947252 -0.100415
C30   C     C_R   0.473218 0.998103 0.055707 -0.101518
C31   C     C_R   0.544506 0.000143 0.447252 -0.100415
C32   C     C_R   0.526783 0.001897 0.555707 -0.101517
C33   C     C_R   0.945716 0.515071 0.514249 -0.015949
C34   C     C_R   0.958067 0.486689 0.482638 -0.020695
C35   C     C_R   0.054284 0.484929 0.014249 -0.015949
C36   C     C_R   0.041932 0.513310 0.982638 -0.020695
C37   C     C_R   0.445717 0.984929 0.985751 -0.015949
C38   C     C_R   0.458068 0.013310 0.017361 -0.020695
C39   C     C_R   0.554283 0.015071 0.485751 -0.015949
C40   C     C_R   0.541932 0.986689 0.517361 -0.020694
C41   C     C_R   0.921767 0.558368 0.507221 -0.047579
C42   C     C_R   0.952747 0.443051 0.489484 -0.054861
C43   C     C_R   0.078231 0.441632 0.007221 -0.047578
C44   C     C_R   0.047253 0.556949 0.989484 -0.054860
C45   C     C_R   0.421769 0.941632 0.992779 -0.047578
C46   C     C_R   0.452747 0.056949 0.010516 -0.054860
C47   C     C_R   0.578231 0.058368 0.492779 -0.047578
C48   C     C_R   0.547253 0.943051 0.510516 -0.054861
C49   C     C_R   0.959469 0.455681 0.558982 -0.024844
C50   C     C_R   0.957913 0.546230 0.437989 -0.028117
C51   C     C_R   0.040531 0.544319 0.058982 -0.024844
C52   C     C_R   0.042085 0.453770 0.937989 -0.028117
C53   C     C_R   0.459470 0.044319 0.941018 -0.024844
C54   C     C_R   0.457915 0.953770 0.062011 -0.028116
C55   C     C_R   0.540531 0.955681 0.441018 -0.024844
C56   C     C_R   0.542085 0.046230 0.562010 -0.028118
C57   C     C_R   0.948377 0.428041 0.527501 -0.184473
C58   C     C_R   0.923030 0.573333 0.469170 -0.177826
C59   C     C_R   0.051624 0.571959 0.027501 -0.184473
C60   C     C_R   0.076968 0.426666 0.969171 -0.177825
C61   C     C_R   0.448377 0.071959 0.972499 -0.184473
C62   C     C_R   0.423032 0.926667 0.030829 -0.177825
C63   C     C_R   0.551623 0.928041 0.472499 -0.184473
C64   C     C_R   0.576968 0.073333 0.530829 -0.177825
O21   O     O_2   0.844814 0.626323 0.531855 -0.519247
O22   O     O_2   0.915328 0.373830 0.464070 -0.517997
O23   O     O_2   0.155184 0.373677 0.031855 -0.519246
O24   O     O_2   0.084672 0.626170 0.964070 -0.517997
O25   O     O_2   0.344816 0.873677 0.968144 -0.519247
O26   O     O_2   0.415328 0.126170 0.035930 -0.517997
O27   O     O_2   0.655184 0.126323 0.468145 -0.519246
O28   O     O_2   0.584672 0.873830 0.535930 -0.517997
O29   O     O_2   0.992675 0.518092 0.619662 -0.500041
O30   O     O_2   0.038313 0.485039 0.377968 -0.500919
O31   O     O_2   0.007325 0.481907 0.119662 -0.500041
O32   O     O_2   0.961685 0.514961 0.877968 -0.500918
O33   O     O_2   0.492675 0.981907 0.880338 -0.500040
O34   O     O_2   0.538316 0.014961 0.122032 -0.500919
O35   O     O_2   0.507325 0.018092 0.380337 -0.500040
O36   O     O_2   0.461685 0.985039 0.622032 -0.500919
H1    H     H_    0.946682 0.394316 0.532893 0.182181
H2    H     H_    0.907212 0.606857 0.463660 0.181841
H3    H     H_    0.053319 0.605684 0.032893 0.182181
H4    H     H_    0.092786 0.393143 0.963660 0.181841
H5    H     H_    0.446682 0.105684 0.967107 0.182181
H6    H     H_    0.407214 0.893143 0.036340 0.181840
H7    H     H_    0.553319 0.894316 0.467107 0.182181
H8    H     H_    0.592786 0.106857 0.536340 0.181841
C65   C     C_R   0.920459 0.401682 0.355961 -0.123680
C66   C     C_R   0.825765 0.597194 0.640177 -0.131003
C67   C     C_R   0.079541 0.598318 0.855961 -0.123680
C68   C     C_R   0.174235 0.402806 0.140178 -0.131002
C69   C     C_R   0.420460 0.098318 0.144039 -0.123681
C70   C     C_R   0.325765 0.902806 0.859822 -0.131002
C71   C     C_R   0.579541 0.901682 0.644038 -0.123680
C72   C     C_R   0.674235 0.097193 0.359822 -0.131002
H9    H     H_    0.819952 0.427212 0.351462 0.161950
H10   H     H_    0.738088 0.569210 0.643107 0.168992
H11   H     H_    0.180047 0.572788 0.851462 0.161951
H12   H     H_    0.261911 0.430790 0.143107 0.168992
H13   H     H_    0.319954 0.072788 0.148538 0.161951
H14   H     H_    0.238089 0.930790 0.856893 0.168992
H15   H     H_    0.680047 0.927212 0.648538 0.161950
H16   H     H_    0.761911 0.069209 0.356893 0.168993
C73   C     C_R   0.949079 0.372321 0.326354 -0.218807
C74   C     C_R   0.830403 0.626287 0.670528 -0.231019
C75   C     C_R   0.050920 0.627678 0.826354 -0.218808
C76   C     C_R   0.169596 0.373713 0.170528 -0.231019
C77   C     C_R   0.449080 0.127678 0.173646 -0.218808
C78   C     C_R   0.330404 0.873713 0.829472 -0.231020
C79   C     C_R   0.550920 0.872321 0.673646 -0.218807
C80   C     C_R   0.669596 0.126287 0.329472 -0.231021
H17   H     H_    0.876206 0.376758 0.299064 0.136801
H18   H     H_    0.753401 0.619270 0.696887 0.141962
H19   H     H_    0.123793 0.623241 0.799064 0.136801
H20   H     H_    0.246599 0.380729 0.196887 0.141962
H21   H     H_    0.376208 0.123241 0.200936 0.136802
H22   H     H_    0.253401 0.880729 0.803113 0.141962
H23   H     H_    0.623793 0.876759 0.700936 0.136801
H24   H     H_    0.746599 0.119270 0.303113 0.141962
C81   C     C_R   0.061071 0.336185 0.332617 -0.126297
C82   C     C_R   0.924979 0.665056 0.666211 -0.131045
C83   C     C_R   0.938930 0.663815 0.832617 -0.126297
C84   C     C_R   0.075021 0.334944 0.166211 -0.131045
C85   C     C_R   0.561070 0.163815 0.167383 -0.126297
C86   C     C_R   0.424979 0.834944 0.833789 -0.131045
C87   C     C_R   0.438929 0.836185 0.667383 -0.126297
C88   C     C_R   0.575021 0.165056 0.333788 -0.131044
C89   C     C_R   0.138331 0.329535 0.369844 -0.082009
C90   C     C_R   0.007565 0.674691 0.630042 -0.082233
C91   C     C_R   0.861669 0.670465 0.869844 -0.082009
C92   C     C_R   0.992435 0.325309 0.130042 -0.082233
C93   C     C_R   0.638330 0.170465 0.130156 -0.082010
C94   C     C_R   0.507565 0.825309 0.869958 -0.082233
C95   C     C_R   0.361669 0.829535 0.630156 -0.082009
C96   C     C_R   0.492436 0.174691 0.369958 -0.082233
C97   C     C_R   0.153428 0.364459 0.395199 0.085552
C98   C     C_R   0.047308 0.641173 0.604183 0.092556
C99   C     C_R   0.846572 0.635541 0.895199 0.085553
C100  C     C_R   0.952691 0.358827 0.104183 0.092556
C101  C     C_R   0.653428 0.135541 0.104801 0.085554
C102  C     C_R   0.547309 0.858827 0.895817 0.092556
C103  C     C_R   0.346572 0.864459 0.604800 0.085553
C104  C     C_R   0.452692 0.141173 0.395817 0.092556
C105  C     C_R   0.024159 0.398749 0.390669 0.319659
C106  C     C_R   0.937382 0.603505 0.606840 0.327758
C107  C     C_R   0.975841 0.601251 0.890669 0.319660
C108  C     C_R   0.062617 0.396495 0.106840 0.327759
C109  C     C_R   0.524160 0.101251 0.109331 0.319660
C110  C     C_R   0.437384 0.896495 0.893159 0.327759
C111  C     C_R   0.475841 0.898749 0.609331 0.319659
C112  C     C_R   0.562616 0.103505 0.393159 0.327760
C113  C     C_2   0.971152 0.435963 0.597493 0.879632
O37   O     O_2   0.118545 0.438687 0.616352 -0.506048
O38   O     O_R   0.816727 0.412323 0.611244 -0.644234
H25   H     H_    0.842336 0.399756 0.637643 0.321039
C114  C     C_2   0.973617 0.566292 0.399680 0.879920
O39   O     O_2   0.127139 0.566584 0.382742 -0.504737
O40   O     O_R   0.814906 0.586903 0.383976 -0.642671
H26   H     H_    0.843560 0.600067 0.357950 0.321340
C115  C     C_2   0.028850 0.564037 0.097493 0.879633
O41   O     O_2   0.881457 0.561314 0.116352 -0.506048
O42   O     O_R   0.183276 0.587677 0.111245 -0.644234
H27   H     H_    0.157667 0.600244 0.137643 0.321039
C116  C     C_2   0.026380 0.433708 0.899680 0.879921
O43   O     O_2   0.872858 0.433416 0.882742 -0.504737
O44   O     O_R   0.185090 0.413097 0.883976 -0.642670
H28   H     H_    0.156436 0.399933 0.857950 0.321340
C117  C     C_2   0.471152 0.064037 0.902507 0.879632
O45   O     O_2   0.618545 0.061313 0.883648 -0.506048
O46   O     O_R   0.316728 0.087677 0.888755 -0.644234
H29   H     H_    0.342337 0.100244 0.862357 0.321039
C118  C     C_2   0.473619 0.933708 0.100320 0.879921
O47   O     O_2   0.627141 0.933416 0.117258 -0.504737
O48   O     O_R   0.314908 0.913097 0.116024 -0.642670
H30   H     H_    0.343562 0.899933 0.142050 0.321340
C119  C     C_2   0.528848 0.935963 0.402507 0.879632
O49   O     O_2   0.381455 0.938687 0.383648 -0.506048
O50   O     O_R   0.683273 0.912323 0.388755 -0.644235
H31   H     H_    0.657664 0.899755 0.362357 0.321039
C120  C     C_2   0.526380 0.066291 0.600320 0.879921
O51   O     O_2   0.372858 0.066584 0.617258 -0.504737
O52   O     O_R   0.685091 0.086903 0.616024 -0.642670
H32   H     H_    0.656437 0.100067 0.642050 0.321341
C121  C     C_2   0.143988 0.286123 0.386560 0.785411
O53   O     O_2   0.123673 0.255055 0.366024 -0.566970
O54   O     O_R   0.151110 0.280929 0.426626 -0.649706
H33   H     H_    0.136390 0.250410 0.434859 0.315843
C122  C     C_2   0.998629 0.718653 0.614637 0.788325
O55   O     O_2   0.973216 0.748730 0.636157 -0.562086
O56   O     O_R   0.000720 0.725267 0.574726 -0.648465
H34   H     H_    0.979712 0.755935 0.567509 0.318252
C123  C     C_2   0.856013 0.713877 0.886559 0.785411
O57   O     O_2   0.876328 0.744945 0.866024 -0.566970
O58   O     O_R   0.848892 0.719071 0.926626 -0.649706
H35   H     H_    0.863612 0.749590 0.934859 0.315843
C124  C     C_2   0.001370 0.281347 0.114637 0.788325
O59   O     O_2   0.026783 0.251270 0.136157 -0.562086
O60   O     O_R   0.999279 0.274732 0.074726 -0.648465
H36   H     H_    0.020287 0.244065 0.067509 0.318252
C125  C     C_2   0.643986 0.213877 0.113440 0.785411
O61   O     O_2   0.623670 0.244945 0.133975 -0.566970
O62   O     O_R   0.651106 0.219071 0.073374 -0.649705
H37   H     H_    0.636386 0.249590 0.065141 0.315843
C126  C     C_2   0.498629 0.781347 0.885363 0.788326
O63   O     O_2   0.473216 0.751270 0.863843 -0.562086
O64   O     O_R   0.500720 0.774732 0.925274 -0.648465
H38   H     H_    0.479712 0.744065 0.932491 0.318252
C127  C     C_2   0.356013 0.786122 0.613440 0.785412
O65   O     O_2   0.376328 0.755055 0.633975 -0.566970
O66   O     O_R   0.348892 0.780929 0.573374 -0.649705
H39   H     H_    0.363612 0.750409 0.565141 0.315842
C128  C     C_2   0.501372 0.218653 0.385363 0.788325
O67   O     O_2   0.526785 0.248730 0.363843 -0.562086
O68   O     O_R   0.499282 0.225267 0.425274 -0.648465
H40   H     H_    0.520290 0.255935 0.432491 0.318252
C129  C     C_3   0.315652 0.366195 0.424567 -0.287571
C130  C     C_3   0.448217 0.404604 0.417888 -0.337977
C131  C     C_3   0.478255 0.430392 0.454616 -0.673799
H41   H     H_    0.340926 0.443766 0.464844 0.221944
H42   H     H_    0.540400 0.410338 0.477708 0.249405
H43   H     H_    0.577037 0.457007 0.448562 0.215367
H44   H     H_    0.589889 0.393320 0.407624 0.209558
H45   H     H_    0.391879 0.425995 0.395146 0.221685
H46   H     H_    0.259055 0.365600 0.454383 0.232164
H47   H     H_    0.406293 0.337478 0.422145 0.180626
C132  C     C_3   0.219408 0.644356 0.577286 -0.289274
C133  C     C_3   0.373889 0.611043 0.586974 -0.335644
C134  C     C_3   0.418889 0.582242 0.552816 -0.656337
H48   H     H_    0.290617 0.564299 0.543887 0.217551
H49   H     H_    0.471020 0.601078 0.527937 0.252939
H50   H     H_    0.530631 0.559140 0.561266 0.214187
H51   H     H_    0.508082 0.627466 0.595427 0.213395
H52   H     H_    0.331313 0.591093 0.611941 0.215452
H53   H     H_    0.175923 0.642714 0.546635 0.229080
H54   H     H_    0.288132 0.675775 0.580457 0.174217
C135  C     C_3   0.684348 0.633805 0.924567 -0.287571
C136  C     C_3   0.551782 0.595396 0.917888 -0.337975
C137  C     C_3   0.521745 0.569608 0.954615 -0.673797
H55   H     H_    0.659074 0.556234 0.964843 0.221944
H56   H     H_    0.459602 0.589661 0.977708 0.249404
H57   H     H_    0.422962 0.542993 0.948561 0.215367
H58   H     H_    0.410110 0.606681 0.907624 0.209558
H59   H     H_    0.608118 0.574006 0.895145 0.221684
H60   H     H_    0.740945 0.634400 0.954383 0.232163
H61   H     H_    0.593708 0.662522 0.922145 0.180625
C138  C     C_3   0.780591 0.355644 0.077286 -0.289274
C139  C     C_3   0.626109 0.388957 0.086974 -0.335646
C140  C     C_3   0.581110 0.417758 0.052817 -0.656338
H62   H     H_    0.709382 0.435701 0.043888 0.217552
H63   H     H_    0.528979 0.398922 0.027938 0.252938
H64   H     H_    0.469367 0.440860 0.061267 0.214187
H65   H     H_    0.491916 0.372533 0.095427 0.213395
H66   H     H_    0.668685 0.408906 0.111942 0.215452
H67   H     H_    0.824076 0.357286 0.046635 0.229080
H68   H     H_    0.711868 0.324225 0.080457 0.174217
C141  C     C_3   0.815652 0.133805 0.075433 -0.287571
C142  C     C_3   0.948219 0.095397 0.082113 -0.337976
C143  C     C_3   0.978256 0.069608 0.045386 -0.673797
H69   H     H_    0.840926 0.056233 0.035158 0.221944
H70   H     H_    0.040397 0.089661 0.022292 0.249403
H71   H     H_    0.077039 0.042993 0.051440 0.215367
H72   H     H_    0.089892 0.106682 0.092376 0.209559
H73   H     H_    0.891886 0.074007 0.104856 0.221684
H74   H     H_    0.759056 0.134400 0.045617 0.232163
H75   H     H_    0.906291 0.162522 0.077855 0.180625
C144  C     C_3   0.719409 0.855644 0.922713 -0.289275
C145  C     C_3   0.873891 0.888957 0.913026 -0.335646
C146  C     C_3   0.918891 0.917758 0.947183 -0.656337
H76   H     H_    0.790618 0.935701 0.956112 0.217551
H77   H     H_    0.971021 0.898922 0.972062 0.252938
H78   H     H_    0.030633 0.940860 0.938733 0.214187
H79   H     H_    0.008084 0.872533 0.904573 0.213396
H80   H     H_    0.831316 0.908906 0.888058 0.215451
H81   H     H_    0.675925 0.857286 0.953364 0.229080
H82   H     H_    0.788132 0.824225 0.919543 0.174217
C147  C     C_3   0.184348 0.866194 0.575433 -0.287572
C148  C     C_3   0.051783 0.904604 0.582112 -0.337975
C149  C     C_3   0.021744 0.930392 0.545384 -0.673796
H83   H     H_    0.159074 0.943765 0.535156 0.221943
H84   H     H_    0.959600 0.910338 0.522291 0.249404
H85   H     H_    0.922963 0.957007 0.551438 0.215367
H86   H     H_    0.910111 0.893319 0.592376 0.209557
H87   H     H_    0.108120 0.925995 0.604854 0.221684
H88   H     H_    0.240945 0.865599 0.545617 0.232164
H89   H     H_    0.093707 0.837478 0.577855 0.180625
C150  C     C_3   0.280592 0.144356 0.422713 -0.289274
C151  C     C_3   0.126108 0.111043 0.413026 -0.335646
C152  C     C_3   0.081110 0.082241 0.447183 -0.656339
H90   H     H_    0.209382 0.064298 0.456111 0.217552
H91   H     H_    0.028980 0.101077 0.472062 0.252938
H92   H     H_    0.969367 0.059140 0.438732 0.214187
H93   H     H_    0.991915 0.127467 0.404573 0.213396
H94   H     H_    0.168682 0.091094 0.388057 0.215451
H95   H     H_    0.324076 0.142714 0.453364 0.229080
H96   H     H_    0.211869 0.175775 0.419543 0.174217

loop_
_geom_bond_atom_site_label_1
_geom_bond_atom_site_label_2
_ccdc_geom_bond_type
C93   C125  S    
C89   C121  S    
C143  H69   S    
C10   N2    A    
O15   V4    S    
C148  H87   S    
C146  H76   S    
O16   V3    S    
C98   C106  A    
C9    C41   A    
N6    C109  S    
C103  C111  A    
C26   C50   A    
C137  H55   S    
C30   C38   A    
C104  C112  A    
C97   C129  S    
C116  O44   S    
C1    C88   S    
C139  H65   S    
C2    C87   S    
O56   H34   S    
C104  C150  S    
C151  H94   S    
C80   C88   A    
C74   C82   A    
C79   H23   S    
O44   H28   S    
C128  O67   D    
C78   C86   A    
N4    C107  S    
N1    C17   A    
C68   C76   A    
N5    C110  S    
C120  O52   S    
O17   V1    S    
C57   H1    S    
N3    C108  S    
C94   C102  A    
O19   V3    S    
O40   H26   S    
O20   V4    S    
C65   H9    S    
C14   C46   A    
C63   H7    S    
C81   C89   A    
C140  H64   S    
O52   H32   S    
C124  O59   D    
O10   V2    S    
O58   H35   S    
C103  C147  S    
O12   C4    A    
C73   C81   A    
C71   C79   A    
C15   O27   S    
C60   H4    S    
C29   C53   A    
C76   C84   A    
C77   C85   A    
O6    V2    S    
C31   C39   A    
C12   N4    A    
C133  H52   S    
C145  C146  S    
C15   N7    A    
C146  H78   S    
C21   O33   S    
C16   N8    A    
O1    C4    A    
C23   O35   S    
O2    C3    A    
C27   C51   A    
C52   C116  S    
O7    C6    A    
C51   C59   A    
C141  H74   S    
C47   C64   A    
C144  H81   S    
O10   C2    A    
C87   C95   A    
C9    O21   S    
C58   H2    S    
C37   C38   A    
O42   H27   S    
O14   V4    S    
C70   H14   S    
C19   O31   S    
C115  O41   D    
C91   C123  S    
C123  O57   D    
C145  H79   S    
O17   V3    S    
O18   V4    S    
O12   V1    S    
O19   V1    S    
C37   C45   A    
C129  H47   S    
C102  C110  A    
C39   C47   A    
C30   C54   A    
C129  C130  S    
C142  H73   S    
O8    V1    S    
C143  H70   S    
C41   C58   A    
C134  H48   S    
C113  O38   S    
C34   C42   A    
C67   C75   A    
C45   C62   A    
O1    V3    S    
C17   C25   A    
C68   H12   S    
O2    V4    S    
C127  O65   D    
C65   C73   A    
C114  O40   S    
C132  H54   S    
C20   C28   A    
C27   C35   A    
C21   C29   A    
C69   C77   A    
C23   C31   A    
C24   C32   A    
C11   N3    A    
C125  O61   D    
C89   C97   A    
N4    C20   A    
C88   C96   A    
C96   C128  S    
N5    C21   A    
C126  O63   D    
C117  O46   S    
C99   C107  A    
C114  O39   D    
C61   H5    S    
C54   C118  S    
C97   C105  A    
C119  O49   D    
C6    C83   S    
C118  O48   S    
C130  H45   S    
C56   C120  S    
C139  C140  S    
C67   C107  A    
C85   C93   A    
C131  H43   S    
C65   C105  A    
C83   C91   A    
C121  O53   D    
C138  H67   S    
C51   C115  S    
C122  O55   D    
C147  H89   S    
C90   C122  S    
C75   C83   A    
C138  C139  S    
C152  H92   S    
C25   C33   A    
C141  C142  S    
C135  H60   S    
C48   C63   A    
N2    C18   A    
C150  H95   S    
C152  H90   S    
C149  H84   S    
C50   C114  S    
C92   C100  A    
C35   C43   A    
C95   C103  A    
C96   C104  A    
C3    C86   S    
C136  H58   S    
C82   C90   A    
C133  C134  S    
C134  H50   S    
O18   V2    S    
C36   C44   A    
O14   C6    A    
C39   C40   A    
C40   C48   A    
C13   O25   S    
C62   H6    S    
C74   H18   S    
C123  O58   S    
C116  O43   D    
C139  H66   S    
C14   N6    A    
C100  C138  S    
C70   C110  A    
C44   C59   A    
C52   C60   A    
C137  H57   S    
C56   C64   A    
O64   H38   S    
O46   H29   S    
C131  H41   S    
C120  O51   D    
O11   C3    A    
C73   H17   S    
C71   H15   S    
C72   H16   S    
C29   C37   A    
O66   H39   S    
C137  H56   S    
C142  C143  S    
O11   V2    S    
C95   C127  S    
O62   H37   S    
C98   C132  S    
C91   C99   A    
C53   C117  S    
C49   C57   A    
C100  C108  A    
C101  C109  A    
O7    V2    S    
C135  C136  S    
C55   C119  S    
C148  H86   S    
C146  H77   S    
C69   C109  A    
C35   C36   A    
C18   C26   A    
C66   C74   A    
O54   H33   S    
C17   O29   S    
C22   C30   A    
C130  C131  S    
C118  O47   D    
C13   C45   A    
C70   C78   A    
O48   H30   S    
C92   C124  S    
C15   C47   A    
C144  C145  S    
O50   H31   S    
C90   C98   A    
C75   H19   S    
N6    C22   A    
C12   O24   S    
C151  H93   S    
C10   C42   A    
O4    C1    A    
C4    C85   S    
C128  O68   S    
C140  H63   S    
C8    C81   S    
C86   C94   A    
C145  H80   S    
C66   C106  A    
C101  C141  S    
C148  C149  S    
C67   H11   S    
O13   V3    S    
C129  H46   S    
N7    C112  S    
N8    C111  S    
C79   C87   A    
C50   C58   A    
C9    N1    A    
C78   H22   S    
O38   H25   S    
C124  O60   S    
C138  H68   S    
N3    C19   A    
C113  O37   D    
C10   O22   S    
C59   H3    S    
O3    V4    S    
O4    V3    S    
C132  H53   S    
C150  C151  S    
C28   C36   A    
C80   H24   S    
C7    C82   S    
C18   O30   S    
C136  C137  S    
N2    C105  S    
C133  H51   S    
C32   C56   A    
C149  H83   S    
C38   C46   A    
C71   C111  A    
C117  O45   D    
C72   C112  A    
C76   H20   S    
C77   H21   S    
C147  C148  S    
C94   C126  S    
C22   O34   S    
C141  H75   S    
C42   C57   A    
C144  H82   S    
C131  H42   S    
C46   C61   A    
C93   C101  A    
C33   C41   A    
C102  C144  S    
O3    C2    A    
C54   C62   A    
C147  H88   S    
C26   C34   A    
C115  O42   S    
C16   C48   A    
C12   C44   A    
O9    V1    S    
C14   O26   S    
O15   C7    A    
O16   C8    A    
C53   C61   A    
C11   O23   S    
C49   C113  S    
O5    V1    S    
O13   C5    A    
C142  H72   S    
C136  H59   S    
N1    C106  S    
C143  H71   S    
C134  H49   S    
C152  H91   S    
C140  H62   S    
C55   C63   A    
C127  O66   S    
C16   O28   S    
C72   C80   A    
O8    C5    A    
C125  O62   S    
C84   C92   A    
C43   C60   A    
O9    C1    A    
C126  O64   S    
C25   C49   A    
C99   C135  S    
C19   C27   A    
C132  C133  S    
N7    C23   A    
C69   H13   S    
C130  H44   S    
N8    C24   A    
C31   C55   A    
C64   H8    S    
C11   C43   A    
O68   H40   S    
C121  O54   S    
C151  C152  S    
O20   V2    S    
C122  O56   S    
C28   C52   A    
O5    C8    A    
O6    C7    A    
C119  O50   S    
C5    C84   S    
C24   O36   S    
C135  H61   S    
C32   C40   A    
C68   C108  A    
C150  H96   S    
C20   O32   S    
C33   C34   A    
C149  H85   S    
O60   H36   S    
C13   N5    A    
C66   H10   S    
