data_mof_unit_38758.cif
_audit_creation_date              2012-12-10T18:20:40-0500
_audit_creation_method            fapswitch 2.2
_symmetry_space_group_name_H-M    P1
_symmetry_Int_Tables_number       1
_space_group_crystal_system       triclinic
_cell_length_a                    15.840905
_cell_length_b                    10.646832
_cell_length_c                    9.418075
_cell_angle_alpha                 90.542457
_cell_angle_beta                  90.063237
_cell_angle_gamma                 89.822388
_cell_volume                      1588.32997985

loop_
_atom_site_label
_atom_site_type_symbol
_atom_type_description
_atom_site_fract_x
_atom_site_fract_y
_atom_site_fract_z
_atom_type_partial_charge
C1    C     C_R   0.501565 0.259748 0.499114 0.858450
C2    C     C_R   0.498436 0.740252 0.500886 0.858453
C3    C     C_3   0.569149 0.952757 0.434875 -0.291558
C4    C     C_3   0.430851 0.047243 0.565125 -0.291558
C5    C     C_3   0.497246 0.876646 0.502813 -0.125424
C6    C     C_3   0.502754 0.123354 0.497186 -0.125425
C7    C     C_3   0.498313 0.962461 0.634936 -0.027496
C8    C     C_3   0.501687 0.037538 0.365064 -0.027497
C9    C     C_3   0.502188 0.614361 0.051956 -0.187041
C10   C     C_3   0.497812 0.385639 0.948044 -0.187038
C11   C     C_3   0.434824 0.560844 0.949607 -0.191509
C12   C     C_3   0.565176 0.439156 0.050393 -0.191507
C13   C     C_3   0.566194 0.552542 0.951879 0.609188
C14   C     C_3   0.433806 0.447458 0.048121 0.609188
C15   C     C_R   0.340023 0.499590 0.499992 0.844141
C16   C     C_R   0.659977 0.500410 0.500008 0.844139
C17   C     C_3   0.970934 0.416357 0.590468 0.469868
C18   C     C_3   0.029066 0.583643 0.409532 0.469867
C19   C     C_3   0.028275 0.383273 0.462073 -0.393829
C20   C     C_3   0.971725 0.616727 0.537927 -0.393826
C21   C     C_1   0.250473 0.498823 0.500418 -0.112518
C22   C     C_1   0.749527 0.501177 0.499582 -0.112516
C23   C     C_3   0.026337 0.529290 0.631493 -0.086005
C24   C     C_3   0.973663 0.470711 0.368507 -0.086005
C25   C     C_3   0.083398 0.498154 0.503069 0.003347
C26   C     C_3   0.916602 0.501846 0.496931 0.003345
C27   C     C_1   0.174983 0.498287 0.501703 0.081661
C28   C     C_1   0.825017 0.501713 0.498297 0.081662
C29   C     C_3   0.569465 0.039635 0.567574 -0.020975
C30   C     C_3   0.430535 0.960365 0.432426 -0.020973
Cu1   Cu    Cu3+1 0.500020 0.499990 0.643150 1.021245
Cu2   Cu    Cu3+1 0.499980 0.500010 0.356850 1.021245
H1    H     H_    0.052419 0.288941 0.431109 0.169813
H2    H     H_    0.947581 0.711060 0.568891 0.169814
H3    H     H_    0.625563 0.912047 0.381476 0.165955
H4    H     H_    0.374438 0.087953 0.618524 0.165954
H5    H     H_    0.380081 0.610468 0.902116 0.173849
H6    H     H_    0.619919 0.389532 0.097884 0.173850
H7    H     H_    0.504885 0.709828 0.100043 0.158931
H8    H     H_    0.495115 0.290171 0.899957 0.158931
N1    N     N_3   0.500060 0.499970 0.858290 -0.195490
N2    N     N_3   0.499940 0.500030 0.141710 -0.195490
O1    O     O_R   0.500040 0.316850 0.620870 -0.580055
O2    O     O_R   0.499960 0.683150 0.379130 -0.580056
O3    O     O_R   0.500000 0.316860 0.379090 -0.555801
O4    O     O_R   0.500000 0.683140 0.620910 -0.555800
O5    O     O_R   0.379090 0.499980 0.620870 -0.599358
O6    O     O_R   0.620910 0.500020 0.379130 -0.599359
O7    O     O_R   0.379060 0.499990 0.379090 -0.507246
O8    O     O_R   0.620940 0.500010 0.620910 -0.507245
O9    O     O_3   0.933578 0.332317 0.686798 -0.566408
C31   C     C_3   0.995146 0.248287 0.738282 0.080139
H9    H     H_    0.050204 0.299101 0.784415 0.153211
H10   H     H_    0.017120 0.184281 0.651813 0.141703
C32   C     C_3   0.956344 0.168562 0.854261 -0.716723
H11   H     H_    0.902412 0.113907 0.810764 0.252452
H12   H     H_    0.004349 0.102332 0.896299 0.195274
H13   H     H_    0.933507 0.229631 0.942462 0.269855
O10   O     O_3   0.066422 0.667684 0.313203 -0.566408
C33   C     C_3   0.004853 0.751710 0.261713 0.080139
H14   H     H_    0.982874 0.815714 0.348181 0.141700
H15   H     H_    0.949799 0.700892 0.215574 0.153215
C34   C     C_3   0.043658 0.831439 0.145740 -0.716717
H16   H     H_    0.066501 0.770372 0.057541 0.269852
H17   H     H_    0.995651 0.897665 0.103696 0.195273
H18   H     H_    0.097585 0.886099 0.189244 0.252450
C35   C     C_2   0.946309 0.438978 0.220106 0.871410
O11   O     O_2   0.999530 0.414289 0.130188 -0.571982
O12   O     O_R   0.860613 0.438511 0.184973 -0.783623
H19   H     H_    0.850414 0.417114 0.081246 0.340396
C36   C     C_2   0.053691 0.561021 0.779894 0.871417
O13   O     O_2   0.000470 0.585712 0.869812 -0.571981
O14   O     O_R   0.139387 0.561487 0.815028 -0.783625
H20   H     H_    0.149586 0.582884 0.918754 0.340395
C37   C     C_2   0.649395 0.080963 0.639687 0.877808
O15   O     O_2   0.698098 0.002063 0.686014 -0.585941
O16   O     O_R   0.668386 0.208589 0.652395 -0.764227
H21   H     H_    0.724128 0.224128 0.702480 0.346090
C38   C     C_2   0.350605 0.919037 0.360315 0.877805
O17   O     O_2   0.301902 0.997937 0.313985 -0.585939
O18   O     O_R   0.331613 0.791411 0.347611 -0.764230
H22   H     H_    0.275870 0.775873 0.297530 0.346091
C39   C     C_2   0.491324 0.921851 0.786537 0.902809
O19   O     O_2   0.550387 0.937088 0.868359 -0.584241
O20   O     O_R   0.416187 0.868125 0.833564 -0.750594
H23   H     H_    0.417495 0.848516 0.938618 0.339282
C40   C     C_2   0.508675 0.078149 0.213463 0.902809
O21   O     O_2   0.449612 0.062911 0.131642 -0.584239
O22   O     O_R   0.583812 0.131874 0.166434 -0.750594
H24   H     H_    0.582503 0.151483 0.061380 0.339282
O23   O     O_3   0.637628 0.608792 0.890097 -0.548648
C41   C     C_3   0.691760 0.654495 0.997606 0.025575
H25   H     H_    0.709350 0.579240 0.073528 0.157406
H26   H     H_    0.661388 0.733745 0.056364 0.162949
C42   C     C_3   0.772544 0.702282 0.929922 -0.659797
H27   H     H_    0.757747 0.779445 0.855264 0.274399
H28   H     H_    0.815938 0.738246 0.013519 0.197617
H29   H     H_    0.804469 0.624808 0.870874 0.261653
O24   O     O_3   0.362373 0.391207 0.109903 -0.548648
C43   C     C_3   0.308238 0.345508 0.002393 0.025578
H30   H     H_    0.338611 0.266260 0.943630 0.162944
H31   H     H_    0.290646 0.420766 0.926476 0.157407
C44   C     C_3   0.227456 0.297718 0.070080 -0.659790
H32   H     H_    0.195531 0.375189 0.129132 0.261651
H33   H     H_    0.184061 0.261755 0.986481 0.197618
H34   H     H_    0.242255 0.220551 0.144733 0.274400

loop_
_geom_bond_atom_site_label_1
_geom_bond_atom_site_label_2
_ccdc_geom_bond_type
C7    C39   S    
C40   O21   D    
C4    H4    S    
C7    C29   S    
Cu2   O3    S    
C42   H27   S    
C15   O5    A    
C32   H11   S    
C17   O9    S    
C34   H17   S    
O18   H22   S    
C42   H29   S    
C14   O24   S    
O16   H21   S    
C2    O4    A    
C9    N2    S    
C17   C23   S    
Cu1   O1    S    
C33   C34   S    
C18   C24   S    
C17   C26   S    
C33   H15   S    
C24   C26   S    
C11   C14   S    
C9    H7    S    
C10   H8    S    
O14   H20   S    
C3    C29   S    
C9    C13   S    
C41   H25   S    
C12   N2    S    
C24   C35   S    
C1    O1    A    
C39   O19   D    
C2    O2    A    
Cu1   O4    S    
C31   C32   S    
C14   N2    S    
C20   H2    S    
C23   C25   S    
C21   C27   T    
C34   H18   S    
O10   C33   S    
C22   C28   T    
C13   O23   S    
C10   N1    S    
Cu2   O6    S    
C16   O6    A    
C18   C25   S    
C4    C7    S    
C43   H31   S    
C31   H10   S    
C35   O11   D    
C23   C36   S    
C4    C6    S    
C3    C8    S    
C10   C14   S    
O23   C41   S    
C5    C7    S    
C6    C8    S    
O20   H23   S    
C43   C44   S    
O9    C31   S    
C33   H14   S    
C35   O12   S    
C37   O15   D    
C9    C11   S    
Cu1   Cu2   S    
C20   C23   S    
C3    H3    S    
C41   H26   S    
Cu2   O2    S    
C44   H33   S    
C37   O16   S    
C10   C12   S    
C30   C38   S    
C39   O20   S    
C40   O22   S    
C19   H1    S    
C2    C5    S    
C41   C42   S    
Cu1   O8    S    
C44   H32   S    
C31   H9    S    
C11   H5    S    
C5    C30   S    
C16   C22   S    
Cu1   N1    S    
C26   C28   S    
C16   O8    A    
C34   H16   S    
C3    C5    S    
C42   H28   S    
C13   N1    S    
C29   C37   S    
C25   C27   S    
C38   O18   S    
O24   C43   S    
C8    C40   S    
C8    C30   S    
C32   H12   S    
C19   C24   S    
C36   O13   D    
C1    O3    A    
C20   C26   S    
C43   H30   S    
C17   C19   S    
C11   N1    S    
C44   H34   S    
C18   C20   S    
C15   O7    A    
C12   H6    S    
O12   H19   S    
C19   C25   S    
Cu2   O7    S    
C38   O17   D    
C18   O10   S    
C15   C21   S    
C6    C29   S    
C12   C13   S    
C32   H13   S    
C36   O14   S    
C1    C6    S    
Cu2   N2    S    
Cu1   O5    S    
O22   H24   S    
C4    C30   S    
