data_mof_unit_15404.cif
_audit_creation_date              2012-12-11T14:42:00-0500
_audit_creation_method            fapswitch 2.2
_symmetry_space_group_name_H-M    P1
_symmetry_Int_Tables_number       1
_space_group_crystal_system       triclinic
_cell_length_a                    18.941708
_cell_length_b                    10.95299
_cell_length_c                    18.834531
_cell_angle_alpha                 89.971659
_cell_angle_beta                  89.646022
_cell_angle_gamma                 90.054288
_cell_volume                      3907.49203277

loop_
_atom_site_label
_atom_site_type_symbol
_atom_type_description
_atom_site_fract_x
_atom_site_fract_y
_atom_site_fract_z
_atom_type_partial_charge
C1    C     C_R   0.725531 0.959052 0.855129 0.535146
C2    C     C_R   0.274481 0.959135 0.144865 0.546013
C3    C     C_R   0.225531 0.459052 0.855129 0.535146
C4    C     C_R   0.774481 0.459135 0.144865 0.546013
C5    C     C_R   0.697224 0.462290 0.038346 -0.136067
C6    C     C_R   0.302835 0.462234 0.961595 -0.135716
C7    C     C_R   0.197224 0.962290 0.038346 -0.136067
C8    C     C_R   0.802835 0.962234 0.961595 -0.135716
C9    C     C_R   0.761272 0.431284 0.070721 0.034786
C10   C     C_R   0.238740 0.431183 0.929272 0.036488
C11   C     C_R   0.261272 0.931284 0.070721 0.034786
C12   C     C_R   0.738740 0.931183 0.929272 0.036488
C13   C     C_R   0.818882 0.394449 0.028993 -0.127202
C14   C     C_R   0.181103 0.394405 0.971046 -0.127207
C15   C     C_R   0.318882 0.894449 0.028993 -0.127202
C16   C     C_R   0.681103 0.894405 0.971046 -0.127207
C17   C     C_R   0.813201 0.389073 0.956412 -0.128043
C18   C     C_R   0.186790 0.389191 0.043632 -0.128075
C19   C     C_R   0.313201 0.889073 0.956412 -0.128043
C20   C     C_R   0.686790 0.889191 0.043632 -0.128075
C21   C     C_R   0.748228 0.411738 0.923980 0.031173
C22   C     C_R   0.251804 0.411876 0.076021 0.029066
C23   C     C_R   0.248228 0.911738 0.923980 0.031173
C24   C     C_R   0.751804 0.911876 0.076021 0.029066
C25   C     C_R   0.529803 0.272264 0.527805 -0.168449
C26   C     C_R   0.527088 0.265976 0.455620 -0.194899
C27   C     C_R   0.029804 0.772263 0.527804 -0.168448
C28   C     C_R   0.027088 0.765976 0.455620 -0.194898
C29   C     C_R   0.502385 0.160287 0.423519 0.035297
C30   C     C_R   0.513431 0.169639 0.569507 0.076757
C31   C     C_R   0.002385 0.660287 0.423519 0.035299
C32   C     C_R   0.013431 0.669639 0.569507 0.076758
C33   C     C_R   0.489563 0.052713 0.463738 0.242775
C34   C     C_R   0.496505 0.057450 0.537894 0.267012
C35   C     C_R   0.989564 0.552713 0.463738 0.242776
C36   C     C_R   0.996505 0.557450 0.537894 0.267012
C37   C     C_R   0.782907 0.297949 0.524690 0.269666
C38   C     C_R   0.220876 0.450140 0.450299 0.239937
C39   C     C_R   0.282907 0.797949 0.524690 0.269666
C40   C     C_R   0.720875 0.950139 0.450299 0.239937
C41   C     C_R   0.779352 0.308162 0.450809 0.204528
C42   C     C_R   0.211672 0.487014 0.521476 0.254219
C43   C     C_R   0.279352 0.808162 0.450809 0.204528
C44   C     C_R   0.711672 0.987013 0.521476 0.254218
C45   C     C_R   0.529651 0.177620 0.850856 0.546748
C46   C     C_R   0.470336 0.177713 0.149137 0.549490
C47   C     C_R   0.029651 0.677620 0.850856 0.546749
C48   C     C_R   0.970335 0.677713 0.149137 0.549490
C49   C     C_R   0.747938 0.412073 0.421191 -0.066235
C50   C     C_R   0.245447 0.421461 0.575605 0.021261
C51   C     C_R   0.247938 0.912073 0.421191 -0.066234
C52   C     C_R   0.745447 0.921461 0.575605 0.021261
C53   C     C_R   0.710380 0.494391 0.464105 -0.110709
C54   C     C_R   0.289745 0.323638 0.560195 -0.116298
C55   C     C_R   0.210379 0.994390 0.464105 -0.110705
C56   C     C_R   0.789746 0.823639 0.560195 -0.116298
C57   C     C_R   0.710371 0.483011 0.537331 0.182268
C58   C     C_R   0.300342 0.287093 0.490184 0.171112
C59   C     C_R   0.210370 0.983010 0.537331 0.182269
C60   C     C_R   0.800343 0.787094 0.490184 0.171113
C61   C     C_R   0.746923 0.384435 0.568367 0.027099
C62   C     C_R   0.265828 0.351340 0.434882 0.033942
C63   C     C_R   0.246923 0.884435 0.568367 0.027099
C64   C     C_R   0.765828 0.851340 0.434882 0.033943
C65   C     C_R   0.738135 0.364443 0.852686 0.540763
C66   C     C_R   0.261870 0.364549 0.147324 0.563607
C67   C     C_R   0.238135 0.864443 0.852686 0.540763
C68   C     C_R   0.761870 0.864549 0.147324 0.563607
C69   C     C_R   0.728867 0.953275 0.648408 0.586408
C70   C     C_R   0.270700 0.953511 0.351468 0.527083
C71   C     C_R   0.228867 0.453275 0.648408 0.586408
C72   C     C_R   0.770700 0.453511 0.351468 0.527082
C73   C     C_R   0.531949 0.176573 0.643407 0.598803
C74   C     C_R   0.471453 0.174802 0.354236 0.564714
C75   C     C_R   0.031949 0.676573 0.643407 0.598803
C76   C     C_R   0.971453 0.674802 0.354236 0.564717
C77   C     C_R   0.738494 0.356109 0.643854 0.574226
C78   C     C_R   0.273771 0.312991 0.361204 0.572008
C79   C     C_R   0.238494 0.856109 0.643854 0.574225
C80   C     C_R   0.773772 0.812991 0.361204 0.572008
C81   C     C_2   0.497366 0.168919 0.921356 -0.108106
C82   C     C_2   0.502617 0.169144 0.078635 -0.106200
C83   C     C_2   0.997366 0.668919 0.921356 -0.108106
C84   C     C_2   0.002617 0.669144 0.078635 -0.106200
C85   C     C_2   0.493106 0.069214 0.038463 -0.162874
C86   C     C_2   0.507038 0.069170 0.961658 -0.163244
C87   C     C_2   0.993106 0.569214 0.038463 -0.162874
C88   C     C_2   0.007038 0.569170 0.961658 -0.163244
C89   C     C_R   0.690384 0.450981 0.965014 -0.135266
C90   C     C_R   0.309684 0.451036 0.034935 -0.136433
C91   C     C_R   0.190384 0.950981 0.965014 -0.135266
C92   C     C_R   0.809684 0.951036 0.034935 -0.136433
Cr1   Cr    Cr6+3 0.769270 0.163730 0.750710 1.072223
Cr2   Cr    Cr6+3 0.230730 0.163730 0.249290 1.032016
Cr3   Cr    Cr6+3 0.269270 0.663730 0.750710 1.072223
Cr4   Cr    Cr6+3 0.730730 0.663730 0.249290 1.032016
Cr5   Cr    Cr6+3 0.612620 0.009790 0.748780 1.078068
Cr6   Cr    Cr6+3 0.387380 0.009790 0.251220 1.066490
Cr7   Cr    Cr6+3 0.112620 0.509790 0.748780 1.078068
Cr8   Cr    Cr6+3 0.887380 0.509790 0.251220 1.066490
Cr9   Cr    Cr6+3 0.614160 0.322500 0.747710 1.041442
Cr10  Cr    Cr6+3 0.385840 0.322500 0.252290 1.045855
Cr11  Cr    Cr6+3 0.114160 0.822500 0.747710 1.041442
Cr12  Cr    Cr6+3 0.885840 0.822500 0.252290 1.045856
H1    H     H_    0.473923 0.985018 0.061975 0.141841
H2    H     H_    0.526348 0.985079 0.938255 0.141497
H3    H     H_    0.973923 0.485018 0.061975 0.141841
H4    H     H_    0.026348 0.485079 0.938255 0.141497
H5    H     H_    0.524985 0.251721 0.055706 0.105794
H6    H     H_    0.474881 0.251372 0.944184 0.105301
H7    H     H_    0.024985 0.751722 0.055706 0.105794
H8    H     H_    0.974881 0.751372 0.944184 0.105301
H9    H     H_    0.639462 0.467656 0.941049 0.131232
H10   H     H_    0.360635 0.467716 0.058869 0.131171
H11   H     H_    0.139462 0.967656 0.941049 0.131232
H12   H     H_    0.860635 0.967716 0.058869 0.131171
H13   H     H_    0.652734 0.494111 0.069624 0.124744
H14   H     H_    0.347349 0.494014 0.930271 0.123905
H15   H     H_    0.152735 0.994111 0.069624 0.124744
H16   H     H_    0.847349 0.994014 0.930271 0.123905
H17   H     H_    0.547315 0.357855 0.550574 0.182162
H18   H     H_    0.538747 0.347745 0.425238 0.159992
H19   H     H_    0.047316 0.857855 0.550574 0.182162
H20   H     H_    0.038748 0.847745 0.425238 0.159991
O1    O     O_R   0.784320 0.290430 0.830510 -0.526151
O2    O     O_R   0.215680 0.290430 0.169490 -0.514872
O3    O     O_R   0.284320 0.790430 0.830510 -0.526151
O4    O     O_R   0.715680 0.790430 0.169490 -0.514872
O5    O     O_R   0.554640 0.080370 0.673500 -0.423413
O6    O     O_R   0.445360 0.080370 0.326500 -0.440078
O7    O     O_R   0.054640 0.580370 0.673500 -0.423414
O8    O     O_R   0.945360 0.580370 0.326500 -0.440079
O9    O     O_R   0.543920 0.282180 0.666790 -0.535629
O10   O     O_R   0.456080 0.282180 0.333210 -0.532506
O11   O     O_R   0.043920 0.782180 0.666790 -0.535629
O12   O     O_R   0.956080 0.782180 0.333210 -0.532505
O13   O     O_R   0.679040 0.374160 0.674430 -0.503246
O14   O     O_R   0.320960 0.374160 0.325570 -0.460229
O15   O     O_R   0.179040 0.874160 0.674430 -0.503247
O16   O     O_R   0.820960 0.874160 0.325570 -0.460228
O17   O     O_3   0.665350 0.165340 0.749070 -0.262149
O18   O     O_3   0.334650 0.165340 0.250930 -0.294229
O19   O     O_3   0.165350 0.665340 0.749070 -0.262149
O20   O     O_3   0.834650 0.665340 0.250930 -0.294229
O21   O     O_R   0.762640 0.040960 0.825200 -0.512230
O22   O     O_R   0.237360 0.040960 0.174800 -0.503725
O23   O     O_R   0.262640 0.540960 0.825200 -0.512230
O24   O     O_R   0.737360 0.540960 0.174800 -0.503725
O25   O     O_R   0.667400 0.923970 0.829950 -0.534853
O26   O     O_R   0.332600 0.923970 0.170050 -0.525699
O27   O     O_R   0.167400 0.423970 0.829950 -0.534853
O28   O     O_R   0.832600 0.423970 0.170050 -0.525699
O29   O     O_R   0.553960 0.081340 0.821780 -0.503258
O30   O     O_R   0.446040 0.081340 0.178220 -0.498352
O31   O     O_R   0.053960 0.581340 0.821780 -0.503258
O32   O     O_R   0.946040 0.581340 0.178220 -0.498352
O33   O     O_R   0.543180 0.283240 0.826740 -0.519637
O34   O     O_R   0.456820 0.283240 0.173260 -0.520138
O35   O     O_R   0.043180 0.783240 0.826740 -0.519637
O36   O     O_R   0.956820 0.783240 0.173260 -0.520138
O37   O     O_R   0.678360 0.375140 0.822710 -0.508856
O38   O     O_R   0.321640 0.375140 0.177290 -0.498078
O39   O     O_R   0.178360 0.875140 0.822710 -0.508856
O40   O     O_R   0.821640 0.875140 0.177290 -0.498078
O41   O     O_R   0.785050 0.289380 0.670560 -0.437102
O42   O     O_R   0.214950 0.289380 0.329440 -0.465605
O43   O     O_R   0.285050 0.789380 0.670560 -0.437101
O44   O     O_R   0.714950 0.789380 0.329440 -0.465605
O45   O     O_R   0.763320 0.039990 0.676930 -0.459879
O46   O     O_R   0.236680 0.039990 0.323070 -0.538365
O47   O     O_R   0.263320 0.539990 0.676930 -0.459879
O48   O     O_R   0.736680 0.539990 0.323070 -0.538366
O49   O     O_R   0.668130 0.922920 0.670000 -0.477528
O50   O     O_R   0.331870 0.922920 0.330000 -0.456502
O51   O     O_R   0.168130 0.422920 0.670000 -0.477528
O52   O     O_R   0.831870 0.422920 0.330000 -0.456503
O53   O     O_3   0.808248 0.216997 0.408986 -0.676140
H21   H     H_    0.785030 0.218190 0.361960 0.355727
O54   O     O_3   0.170575 0.586194 0.540388 -0.692156
H22   H     H_    0.166488 0.642298 0.499495 0.320597
O55   O     O_3   0.308248 0.716997 0.408986 -0.676140
H23   H     H_    0.285030 0.718190 0.361960 0.355726
O56   O     O_3   0.670575 0.086194 0.540388 -0.692155
H24   H     H_    0.666487 0.142297 0.499495 0.320597
H25   H     H_    0.686189 0.574996 0.441411 0.178895
H26   H     H_    0.314656 0.273409 0.602840 0.141130
H27   H     H_    0.186188 0.074995 0.441411 0.178896
H28   H     H_    0.814657 0.773412 0.602840 0.141129
O57   O     O_3   0.677058 0.573146 0.576252 -0.683046
H29   H     H_    0.698647 0.577447 0.623915 0.330863
O58   O     O_3   0.342498 0.186077 0.479016 -0.705808
H30   H     H_    0.340811 0.161545 0.428605 0.314687
O59   O     O_3   0.177058 0.073145 0.576252 -0.683045
H31   H     H_    0.198647 0.077447 0.623915 0.330863
O60   O     O_3   0.842500 0.686079 0.479016 -0.705808
H32   H     H_    0.840809 0.661542 0.428606 0.314687
H33   H     H_    0.869383 0.372094 0.052099 0.127582
H34   H     H_    0.130580 0.371991 0.947968 0.127232
H35   H     H_    0.369383 0.872094 0.052099 0.127582
H36   H     H_    0.630580 0.871991 0.947968 0.127232
H37   H     H_    0.858893 0.359360 0.926133 0.134183
H38   H     H_    0.141071 0.359537 0.073957 0.135666
H39   H     H_    0.358893 0.859360 0.926133 0.134183
H40   H     H_    0.641071 0.859537 0.073957 0.135666
O61   O     O_3   0.466823 0.947492 0.430380 -0.658893
H41   H     H_    0.433888 0.903401 0.462443 0.350245
O62   O     O_3   0.486992 0.955414 0.580123 -0.673349
H42   H     H_    0.501333 0.882101 0.552864 0.344339
O63   O     O_3   0.966823 0.447492 0.430380 -0.658894
H43   H     H_    0.933888 0.403401 0.462443 0.350245
O64   O     O_3   0.986992 0.455414 0.580123 -0.673350
H44   H     H_    0.001334 0.382101 0.552864 0.344340
O65   O     O_3   0.818441 0.201004 0.555482 -0.640294
H45   H     H_    0.845315 0.154268 0.519415 0.366575
O66   O     O_3   0.186171 0.506761 0.395011 -0.667684
H46   H     H_    0.138742 0.531686 0.411849 0.326847
O67   O     O_3   0.318442 0.701004 0.555482 -0.640293
H47   H     H_    0.345315 0.654268 0.519415 0.366575
O68   O     O_3   0.686170 0.006760 0.395011 -0.667684
H48   H     H_    0.638741 0.031684 0.411849 0.326847

loop_
_geom_bond_atom_site_label_1
_geom_bond_atom_site_label_2
_ccdc_geom_bond_type
Cr2   O22   S    
C79   O15   A    
C87   C88   S    
Cr6   O30   S    
C15   C19   A    
C58   C62   A    
C55   C59   A    
C48   C84   S    
Cr3   O43   S    
C14   C18   A    
C5    C89   A    
C1    O21   A    
C35   C36   A    
C84   C87   D    
C38   O66   S    
O66   H46   S    
Cr11  O35   S    
Cr10  O34   S    
C32   C75   S    
Cr4   O44   S    
C76   O12   A    
C21   C89   A    
O61   H41   S    
Cr8   O28   S    
C90   H10   S    
Cr3   O19   S    
C14   H34   S    
C33   O61   S    
C31   C76   S    
C50   C54   A    
C13   H33   S    
C2    O26   A    
C32   C36   A    
Cr7   O19   S    
C56   C60   A    
C77   O13   A    
C38   C42   A    
Cr11  O15   S    
C85   C86   S    
Cr6   O50   S    
C75   O11   A    
C70   O46   A    
C77   O41   A    
C46   O34   A    
C29   C33   A    
C66   O38   A    
Cr10  O14   S    
C37   O65   S    
C56   H28   S    
Cr11  O11   S    
C22   C66   S    
C9    C13   A    
C52   C69   S    
C46   C82   S    
C11   C15   A    
C28   H20   S    
C12   C16   A    
C61   C77   S    
C49   C72   S    
Cr7   O31   S    
Cr8   O52   S    
Cr12  O20   S    
Cr1   O21   S    
C8    C92   A    
C51   C70   S    
C55   H27   S    
C8    C12   A    
C3    O27   A    
C68   O4    A    
C51   C55   A    
C81   C86   D    
C16   H36   S    
Cr10  O38   S    
Cr8   O32   S    
C68   O40   A    
C83   C88   D    
C48   O32   A    
Cr9   O33   S    
Cr6   O18   S    
C37   C41   A    
C64   C80   S    
Cr2   O42   S    
C86   H2    S    
C1    C12   S    
C69   O49   A    
Cr12  O36   S    
C85   H1    S    
C2    C11   S    
C24   C92   A    
C41   C49   A    
C62   C78   S    
O63   H43   S    
C73   O5    A    
Cr2   O2    S    
C39   C43   A    
Cr4   O24   S    
C89   H9    S    
C78   O42   A    
C84   H7    S    
Cr5   O49   S    
C30   C34   A    
O62   H42   S    
Cr2   O18   S    
C82   H5    S    
C7    H15   S    
C80   O44   A    
Cr3   O23   S    
C20   H40   S    
C53   C57   A    
C10   C14   A    
O68   H48   S    
C59   O59   S    
C30   C73   S    
Cr9   O13   S    
C19   C23   A    
C47   O35   A    
C29   C74   S    
C57   O57   S    
C6    C90   A    
Cr7   O27   S    
Cr5   O29   S    
C43   O55   S    
C17   C21   A    
O58   H30   S    
C5    H13   S    
Cr11  O39   S    
C65   O1    A    
O55   H23   S    
C7    C11   A    
C50   C71   S    
Cr10  O10   S    
O56   H24   S    
C5    C9    A    
C67   O3    A    
Cr4   O20   S    
Cr4   O4    S    
C15   H35   S    
O64   H44   S    
O65   H45   S    
C42   O54   S    
C16   C20   A    
Cr1   O45   S    
Cr6   O6    S    
C19   H39   S    
C33   C34   A    
C22   C90   A    
C45   O33   A    
C18   H38   S    
C69   O45   A    
C4    O28   A    
C17   H37   S    
C70   O50   A    
C44   O56   S    
Cr5   O17   S    
O54   H22   S    
C42   C50   A    
C46   O30   A    
O67   H47   S    
C73   O9    A    
O53   H21   S    
Cr6   O26   S    
C47   C83   S    
C25   H17   S    
C74   O6    A    
C40   O68   S    
Cr8   O20   S    
C23   C91   A    
C45   O29   A    
Cr4   O48   S    
C72   O48   A    
C7    C91   A    
C27   C28   A    
Cr1   O17   S    
C8    H16   S    
C54   C58   A    
C41   O53   S    
C25   C30   A    
Cr5   O25   S    
C27   H19   S    
Cr12  O12   S    
C21   C65   S    
C27   C32   A    
C18   C22   A    
Cr9   O17   S    
C39   O67   S    
C28   C31   A    
C45   C81   S    
C1    O25   A    
Cr11  O19   S    
C44   C52   A    
C6    C10   A    
C37   C61   A    
Cr8   O8    S    
C57   C61   A    
C63   C79   S    
Cr9   O9    S    
C34   O62   S    
C2    O22   A    
C82   C85   D    
C39   C63   A    
C59   C63   A    
C92   H12   S    
C13   C17   A    
C60   C64   A    
C48   O36   A    
Cr9   O37   S    
C25   C26   A    
C66   O2    A    
Cr5   O5    S    
C3    C10   S    
C80   O16   A    
C3    O23   A    
C78   O14   A    
C76   O8    A    
C43   C51   A    
Cr12  O40   S    
Cr7   O51   S    
C47   O31   A    
C6    H14   S    
C88   H4    S    
C40   C64   A    
C74   O10   A    
C31   C35   A    
C26   H18   S    
C91   H11   S    
C71   O47   A    
C72   O52   A    
C35   O63   S    
O57   H29   S    
Cr1   O1    S    
C71   O51   A    
C49   C53   A    
C23   C67   S    
C24   C68   S    
C36   O64   S    
Cr1   O41   S    
O60   H32   S    
C67   O39   A    
Cr3   O3    S    
C40   C44   A    
C87   H3    S    
C81   H6    S    
C75   O7    A    
C26   C29   A    
O59   H31   S    
C54   H26   S    
C65   O37   A    
C58   O58   S    
C53   H25   S    
C83   H8    S    
Cr10  O18   S    
Cr7   O7    S    
C79   O43   A    
C4    C9    S    
Cr3   O47   S    
C20   C24   A    
Cr2   O46   S    
C52   C56   A    
C60   O60   S    
Cr12  O16   S    
C38   C62   A    
C4    O24   A    
