data_mof_unit_10473.cif
_audit_creation_date              2012-12-10T17:24:10-0500
_audit_creation_method            fapswitch 2.2
_symmetry_space_group_name_H-M    P1
_symmetry_Int_Tables_number       1
_space_group_crystal_system       triclinic
_cell_length_a                    10.07812
_cell_length_b                    10.828659
_cell_length_c                    16.88127
_cell_angle_alpha                 90.523418
_cell_angle_beta                  78.732688
_cell_angle_gamma                 95.113612
_cell_volume                      1799.53193301

loop_
_atom_site_label
_atom_site_type_symbol
_atom_type_description
_atom_site_fract_x
_atom_site_fract_y
_atom_site_fract_z
_atom_type_partial_charge
C1    C     C_R   0.556820 0.732525 0.492646 0.965769
C2    C     C_R   0.516462 0.503958 0.346153 0.919124
C3    C     C_R   0.491749 0.535560 0.738509 -0.139525
C4    C     C_R   0.520672 0.526228 0.261488 -0.114813
C5    C     C_R   0.609228 0.520310 0.771066 0.328381
C6    C     C_R   0.455270 0.626586 0.238633 0.323738
C7    C     C_R   0.619185 0.571374 0.846438 -0.060723
C8    C     C_R   0.429812 0.631938 0.160272 -0.055040
C9    C     C_R   0.509284 0.630094 0.890379 0.066649
C10   C     C_R   0.477095 0.539860 0.104871 0.081914
C11   C     C_R   0.393363 0.642836 0.859022 -0.168527
C12   C     C_R   0.443445 0.267470 0.503192 0.944761
C13   C     C_R   0.547581 0.444553 0.127332 -0.167211
C14   C     C_R   0.385004 0.596877 0.783364 -0.259034
C15   C     C_R   0.569626 0.437765 0.205508 -0.276944
C16   C     C_2   0.499152 0.644560 0.976369 -0.192444
C17   C     C_2   0.459692 0.542716 0.021680 -0.224711
C18   C     C_R   0.345335 0.727110 0.138440 0.173842
C19   C     C_R   0.217315 0.691112 0.120188 -0.121428
C20   C     C_R   0.139060 0.779917 0.097456 -0.154895
C21   C     C_R   0.187978 0.905058 0.092739 -0.110777
C22   C     C_R   0.315249 0.941617 0.110763 -0.135172
C23   C     C_2   0.589533 0.864131 0.481429 -0.353252
C24   C     C_R   0.393908 0.853088 0.133473 -0.106126
C25   C     C_R   0.741691 0.559584 0.881510 0.186712
C26   C     C_R   0.765327 0.445332 0.912410 -0.084684
C27   C     C_R   0.879259 0.435812 0.947094 -0.132407
C28   C     C_R   0.969996 0.540085 0.951196 -0.109906
C29   C     C_R   0.946575 0.654184 0.920943 -0.152754
C30   C     C_R   0.832482 0.664188 0.886492 -0.142599
C31   C     C_2   0.411702 0.135724 0.498159 -0.365616
C32   C     C_2   0.488843 0.933845 0.477001 -0.083556
C33   C     C_2   0.514035 0.065726 0.474228 -0.152016
C34   C     C_2   0.926890 0.510620 0.506262 -0.059004
C35   C     C_2   0.073356 0.490154 0.493224 -0.089058
C36   C     C_R   0.486000 0.505180 0.654519 0.909153
Cl1   Cl    Cl    0.743513 0.435158 0.721125 -0.636646
Cl2   Cl    Cl    0.400902 0.743570 0.308839 -0.646692
H1    H     H_    0.618845 0.360451 0.223324 0.161173
H2    H     H_    0.693475 0.904055 0.477787 0.148916
H3    H     H_    0.114110 0.422167 0.449634 0.156409
H4    H     H_    0.886309 0.579136 0.549505 0.178842
H5    H     H_    0.112091 0.615542 0.573882 0.171731
H6    H     H_    0.887706 0.383827 0.426541 0.158106
H7    H     H_    0.178547 0.594351 0.123336 0.123731
H8    H     H_    0.040552 0.751700 0.083437 0.136329
H9    H     H_    0.127337 0.973677 0.075029 0.125042
H10   H     H_    0.353178 0.038525 0.106848 0.128018
H11   H     H_    0.493047 0.882289 0.146367 0.142829
H12   H     H_    0.294548 0.610091 0.759922 0.188728
H13   H     H_    0.695106 0.364238 0.910068 0.128925
H14   H     H_    0.897060 0.347651 0.970933 0.124575
H15   H     H_    0.058231 0.532594 0.977971 0.124328
H16   H     H_    0.016691 0.734914 0.924348 0.126416
H17   H     H_    0.814871 0.753161 0.863610 0.125814
H18   H     H_    0.431821 0.455493 0.993947 0.156736
H19   H     H_    0.540995 0.729855 0.999905 0.158276
H20   H     H_    0.307206 0.684191 0.894601 0.155314
H21   H     H_    0.584518 0.374634 0.084256 0.141321
H22   H     H_    0.618970 0.105099 0.457641 0.189322
H23   H     H_    0.384592 0.894369 0.480829 0.209034
H24   H     H_    0.307044 0.095901 0.514805 0.156841
N1    N     N_2   0.846390 0.448330 0.467170 -0.191768
N2    N     N_2   0.153610 0.551670 0.532830 -0.181628
O1    O     O_R   0.430310 0.692580 0.506610 -0.595319
O2    O     O_R   0.569690 0.307420 0.493390 -0.606592
O3    O     O_R   0.652740 0.659410 0.485540 -0.621350
O4    O     O_R   0.347260 0.340590 0.514460 -0.614512
O5    O     O_R   0.375640 0.518570 0.627580 -0.623600
O6    O     O_R   0.624360 0.481430 0.372420 -0.621549
O7    O     O_R   0.598070 0.485390 0.606510 -0.555012
O8    O     O_R   0.401930 0.514610 0.393490 -0.578301
Zn1   Zn    Zn3+2 0.351480 0.522150 0.514070 0.985064
Zn2   Zn    Zn3+2 0.648520 0.477850 0.485930 0.983327

loop_
_geom_bond_atom_site_label_1
_geom_bond_atom_site_label_2
_ccdc_geom_bond_type
O6    Zn2   S    
O7    Zn2   S    
C22   H10   S    
N2    Zn1   S    
C31   C33   D    
C12   O2    A    
O5    Zn1   S    
C29   C30   A    
C13   H21   S    
N1    Zn2   S    
C5    Cl1   S    
C8    C18   S    
C11   H20   S    
C9    C11   A    
C30   H17   S    
C2    C4    S    
C19   C20   A    
C34   H4    S    
C36   O7    A    
C28   H15   S    
C32   C33   S    
C4    C15   A    
C19   H7    S    
C36   O5    A    
C25   C26   A    
C5    C7    A    
C12   C31   S    
O3    Zn2   S    
C14   H12   S    
C21   C22   A    
C23   C32   D    
C12   O4    A    
C31   H24   S    
C15   H1    S    
C26   C27   A    
C35   N2    D    
C3    C14   A    
C2    O6    A    
C3    C36   S    
C18   C24   A    
C25   C30   A    
C22   C24   A    
C8    C10   A    
C34   N1    D    
C1    O3    A    
C9    C16   S    
H5    N2    S    
C1    C23   S    
C33   H22   S    
C17   H18   S    
C16   H19   S    
C13   C15   A    
H6    N1    S    
C27   H14   S    
C35   H3    S    
C11   C14   A    
C2    O8    A    
C16   C17   D    
C29   H16   S    
C10   C17   S    
C23   H2    S    
O2    Zn2   S    
C27   C28   A    
O1    Zn1   S    
C20   C21   A    
C4    C6    A    
C34   C35   S    
C24   H11   S    
C7    C9    A    
C18   C19   A    
C28   C29   A    
C6    C8    A    
C21   H9    S    
O4    Zn1   S    
C26   H13   S    
C6    Cl2   S    
C1    O1    A    
C20   H8    S    
C32   H23   S    
O8    Zn1   S    
C3    C5    A    
C10   C13   A    
C7    C25   S    
