data_mof_unit_56837.cif
_audit_creation_date              2012-12-11T14:44:22-0500
_audit_creation_method            fapswitch 2.2
_symmetry_space_group_name_H-M    P1
_symmetry_Int_Tables_number       1
_space_group_crystal_system       triclinic
_cell_length_a                    25.004078
_cell_length_b                    16.626662
_cell_length_c                    15.640588
_cell_angle_alpha                 90.255121
_cell_angle_beta                  49.21686
_cell_angle_gamma                 89.806158
_cell_volume                      4923.26272072

loop_
_atom_site_label
_atom_site_type_symbol
_atom_type_description
_atom_site_fract_x
_atom_site_fract_y
_atom_site_fract_z
_atom_type_partial_charge
C1    C     C_R   0.335501 0.121212 0.797221 -0.122670
C2    C     C_3   0.743988 0.780801 0.604385 0.595916
C3    C     C_3   0.329246 0.701150 0.462515 -0.964673
C4    C     C_3   0.901880 0.885094 0.424901 -1.000417
C5    C     C_3   0.157100 0.208151 0.583309 -1.002250
C6    C     C_3   0.112775 0.893524 0.534540 -1.004792
C7    C     C_3   0.832287 0.203628 0.455636 -0.973492
C8    C     C_3   0.392006 0.399125 0.229785 0.142191
C9    C     C_3   0.355776 0.481993 0.273940 -0.279025
C10   C     C_3   0.410276 0.548717 0.221821 -1.051562
C11   C     C_3   0.642137 0.796495 0.791338 0.147676
C12   C     C_3   0.615568 0.795615 0.911056 -0.166451
C13   C     C_3   0.684862 0.335838 0.601162 0.582891
C14   C     C_3   0.539100 0.824781 0.996301 -1.117349
C15   C     C_3   0.640919 0.452395 0.710976 0.180649
C16   C     C_3   0.617125 0.486324 0.822325 -0.298138
C17   C     C_3   0.619445 0.577956 0.821218 -1.048472
C18   C     C_3   0.346632 0.769476 0.203419 0.141118
C19   C     C_3   0.310813 0.805615 0.161658 -0.279391
C20   C     C_3   0.359771 0.863389 0.064161 -0.938946
C21   C     C_3   0.891707 0.896506 0.225703 0.147456
C22   C     C_3   0.853659 0.978416 0.270116 -0.287983
C23   C     C_3   0.906316 0.046891 0.219505 -1.056417
C24   C     C_3   0.260005 0.765489 0.400452 0.613177
C25   C     C_3   0.147445 0.301365 0.799782 0.183021
C26   C     C_3   0.158515 0.353277 0.868016 -0.239297
C27   C     C_3   0.090193 0.395343 0.966894 -1.044696
C28   C     C_3   0.141969 0.954904 0.707388 0.184494
C29   C     C_3   0.120610 0.990905 0.816220 -0.312341
C30   C     C_3   0.126035 0.082322 0.810150 -1.026573
C31   C     C_3   0.860564 0.270642 0.205690 0.145117
C32   C     C_3   0.847680 0.315290 0.135136 -0.241912
C33   C     C_3   0.913218 0.360967 0.038488 -1.027695
C34   C     C_3   0.443149 0.673280 0.850912 0.202726
C35   C     C_3   0.814387 0.818433 0.389182 0.596483
C36   C     C_3   0.437105 0.581246 0.862599 -0.306686
C37   C     C_3   0.446321 0.540538 0.765912 -0.959834
C38   C     C_3   0.606645 0.259210 0.046742 0.198164
C39   C     C_3   0.587492 0.207392 0.988699 -0.346846
C40   C     C_3   0.508290 0.210044 0.053699 -0.994370
C41   C     C_3   0.569632 0.652817 0.141691 0.170786
C42   C     C_3   0.596121 0.566711 0.095021 -0.310992
C43   C     C_3   0.591282 0.512015 0.178062 -0.956848
C44   C     C_3   0.376588 0.301444 0.913399 0.202959
C45   C     C_3   0.420454 0.286992 0.948165 -0.363959
C46   C     C_3   0.243412 0.281081 0.607199 0.603487
C47   C     C_3   0.492865 0.325034 0.864351 -0.961811
C48   C     C_3   0.945643 0.172184 0.844221 0.212710
C49   C     C_3   0.940393 0.080215 0.856579 -0.313874
C50   C     C_3   0.945149 0.038658 0.764508 -0.952334
C51   C     C_3   0.106662 0.757221 0.044898 0.199314
C52   C     C_3   0.088061 0.704307 0.986878 -0.347822
C53   C     C_3   0.008920 0.706329 0.051293 -0.989704
C54   C     C_3   0.074336 0.167710 0.120738 0.205386
C55   C     C_3   0.093343 0.077973 0.090154 -0.315990
C56   C     C_3   0.080953 0.029525 0.184505 -0.948397
C57   C     C_3   0.184402 0.836582 0.601507 0.584012
C58   C     C_3   0.876518 0.800533 0.914503 0.207322
C59   C     C_3   0.921453 0.786117 0.947268 -0.365793
C60   C     C_3   0.993191 0.825718 0.863700 -0.959950
C61   C     C_3   0.760543 0.268132 0.397962 0.611901
C62   C     C_2   0.691639 0.175820 0.025527 0.519729
C63   C     C_2   0.362759 0.729100 0.841911 0.560807
C64   C     C_2   0.306948 0.184773 0.969310 0.545952
C65   C     C_R   0.646754 0.850648 0.246888 -0.134790
C66   C     C_2   0.639225 0.726794 0.159195 0.568135
C67   C     C_2   0.191761 0.674954 0.024851 0.519025
C68   C     C_2   0.863333 0.228421 0.840027 0.556540
C69   C     C_2   0.806451 0.684051 0.970285 0.541329
C70   C     C_2   0.141915 0.229770 0.152010 0.577671
C71   C     C_2   0.757901 0.145685 0.953476 -0.201492
C72   C     C_2   0.312808 0.689260 0.850219 -0.216663
C73   C     C_2   0.247189 0.144550 0.048481 -0.194874
C74   C     C_2   0.688043 0.685928 0.153981 -0.218689
C75   C     C_2   0.258112 0.645126 0.953129 -0.201530
C76   C     C_R   0.664292 0.119294 0.201334 -0.141391
C77   C     C_2   0.812474 0.189389 0.850005 -0.216420
C78   C     C_2   0.746411 0.644100 0.049269 -0.194411
C79   C     C_2   0.188084 0.187031 0.151474 -0.222451
C80   C     C_R   0.588779 0.148593 0.593019 -0.148453
C81   C     C_R   0.384129 0.896274 0.408235 -0.148421
C82   C     C_R   0.412461 0.149992 0.408649 -0.147310
C83   C     C_R   0.616618 0.894940 0.589977 -0.155497
C84   C     C_R   0.088103 0.648718 0.593489 -0.145529
C85   C     C_R   0.883992 0.397608 0.408111 -0.146246
C86   C     C_R   0.913126 0.650211 0.408419 -0.148430
C87   C     C_R   0.354002 0.850980 0.752761 -0.142316
C88   C     C_R   0.116337 0.396734 0.590965 -0.149018
C89   C     C_R   0.663828 0.147211 0.405369 -0.097391
C90   C     C_R   0.309332 0.896582 0.595245 -0.155693
C91   C     C_R   0.335837 0.147579 0.596148 -0.131974
C92   C     C_R   0.690424 0.893606 0.402920 -0.152350
C93   C     C_R   0.162892 0.647892 0.405963 -0.090985
C94   C     C_R   0.809174 0.397419 0.594990 -0.155473
C95   C     C_R   0.835838 0.647706 0.595926 -0.129036
C96   C     C_R   0.190778 0.395474 0.404054 -0.152423
C97   C     C_R   0.576137 0.113550 0.200438 -0.156105
C98   C     C_R   0.835376 0.621029 0.797377 -0.118693
C99   C     C_R   0.442319 0.854622 0.755283 -0.097729
C100  C     C_R   0.423732 0.117689 0.798389 -0.144226
C101  C     C_R   0.558010 0.853079 0.245714 -0.091131
C102  C     C_R   0.076259 0.613059 0.200112 -0.158497
C103  C     C_R   0.942586 0.354264 0.754477 -0.103672
C104  C     C_R   0.923468 0.617288 0.798837 -0.143685
C105  C     C_R   0.059047 0.354423 0.242665 -0.101974
C106  C     C_R   0.355961 0.147660 0.855498 -0.086847
C107  C     C_R   0.614251 0.806079 0.217242 -0.039769
C108  C     C_R   0.643670 0.143064 0.141698 -0.049799
C109  C     C_R   0.147373 0.351254 0.245132 -0.131117
C110  C     C_R   0.386811 0.807455 0.783229 -0.049815
C111  C     C_R   0.855607 0.647171 0.856124 -0.086976
C112  C     C_R   0.115569 0.307651 0.213354 -0.041213
C113  C     C_R   0.143816 0.642453 0.141176 -0.048054
C114  C     C_R   0.887220 0.307014 0.781951 -0.045522
C115  C     C_R   0.640121 0.192430 0.498295 0.116102
C116  C     C_R   0.315649 0.883273 0.502853 0.136327
C117  C     C_R   0.360489 0.193632 0.504357 0.131439
C118  C     C_R   0.684718 0.878748 0.493924 0.152001
C119  C     C_R   0.138950 0.693017 0.499252 0.112598
C120  C     C_R   0.164381 0.618980 0.201021 -0.148553
C121  C     C_R   0.815388 0.385064 0.502463 0.136643
C122  C     C_R   0.861109 0.693930 0.503835 0.130694
C123  C     C_R   0.184767 0.381814 0.495974 0.147742
C124  C     C_3   0.337043 0.342106 0.460662 0.174926
C125  C     C_3   0.722098 0.756291 0.537011 0.199711
C126  C     C_3   0.669596 0.345549 0.520784 0.189575
C127  C     C_3   0.272201 0.754922 0.483190 0.226388
C128  C     C_3   0.837814 0.841129 0.456547 0.170840
C129  C     C_3   0.221118 0.258705 0.539988 0.210675
C130  C     C_3   0.170461 0.845670 0.519375 0.189470
C131  C     C_R   0.854259 0.350780 0.751977 -0.139747
C132  C     C_3   0.774073 0.256690 0.478928 0.212025
C133  C     C_3   0.760492 0.867474 0.558902 -0.435175
C134  C     C_3   0.296594 0.234439 0.437065 -0.365771
C135  C     C_3   0.251215 0.857647 0.419494 -0.480437
C136  C     C_3   0.695340 0.244442 0.579164 -0.364205
C137  C     C_3   0.259736 0.368413 0.564047 -0.448193
C138  C     C_3   0.797932 0.732258 0.434868 -0.361116
C139  C     C_3   0.749872 0.359818 0.420197 -0.458769
C140  C     C_3   0.193074 0.744829 0.582696 -0.367730
C141  C     C_3   0.738008 0.842011 0.490844 -0.103013
C142  C     C_3   0.313440 0.321172 0.393048 0.596666
C143  C     C_3   0.319185 0.255801 0.505885 -0.057847
C144  C     C_3   0.263637 0.846092 0.503580 -0.112687
C145  C     C_3   0.681533 0.254538 0.496701 -0.062963
C146  C     C_3   0.237229 0.344979 0.495256 -0.100884
C147  C     C_3   0.820000 0.755542 0.504068 -0.052805
C148  C     C_3   0.763696 0.347573 0.502570 -0.118853
C149  C     C_3   0.180612 0.754227 0.498480 -0.066031
C150  C     C_3   0.401433 0.384842 0.429523 -1.010460
C151  C     C_3   0.660303 0.703501 0.574581 -1.015734
C152  C     C_3   0.610586 0.392326 0.538533 -1.001250
H1    H     H_    0.282005 0.121412 0.828935 0.112382
H2    H     H_    0.405574 0.897117 0.321741 0.092842
H3    H     H_    0.409118 0.832048 0.992780 0.269766
H4    H     H_    0.920354 0.894117 0.133882 0.124626
H5    H     H_    0.933412 0.889874 0.231230 0.123457
H6    H     H_    0.820730 0.986957 0.246517 0.198840
H7    H     H_    0.818972 0.982024 0.363434 0.204708
H8    H     H_    0.938008 0.042349 0.245698 0.273618
H9    H     H_    0.877299 0.104824 0.251279 0.308795
H10   H     H_    0.941623 0.045781 0.125894 0.263449
H11   H     H_    0.104072 0.258433 0.857618 0.129612
H12   H     H_    0.129639 0.339691 0.764379 0.072802
H13   H     H_    0.440298 0.166393 0.322187 0.102107
H14   H     H_    0.177739 0.314862 0.901181 0.249768
H15   H     H_    0.199293 0.399240 0.812159 0.183758
H16   H     H_    0.070214 0.434712 0.935741 0.268124
H17   H     H_    0.100284 0.432992 0.013840 0.276901
H18   H     H_    0.049359 0.350265 0.025708 0.266087
H19   H     H_    0.100708 0.971349 0.703134 0.127168
H20   H     H_    0.193185 0.981456 0.633877 0.103585
H21   H     H_    0.065466 0.973596 0.889134 0.195249
H22   H     H_    0.155635 0.966913 0.830666 0.205810
H23   H     H_    0.181245 0.100211 0.739118 0.300724
H24   H     H_    0.595954 0.896234 0.675979 0.083920
H25   H     H_    0.110504 0.106972 0.889619 0.267636
H26   H     H_    0.090626 0.108555 0.797962 0.259456
H27   H     H_    0.903954 0.226345 0.149867 0.126027
H28   H     H_    0.879681 0.312392 0.236284 0.086172
H29   H     H_    0.833071 0.271212 0.100018 0.245356
H30   H     H_    0.803020 0.358418 0.189187 0.190186
H31   H     H_    0.927001 0.407391 0.072444 0.265880
H32   H     H_    0.902578 0.391232 0.987728 0.279914
H33   H     H_    0.958697 0.319057 0.982560 0.258385
H34   H     H_    0.465898 0.694912 0.888483 0.073168
H35   H     H_    0.061020 0.663719 0.680503 0.107205
H36   H     H_    0.481770 0.691094 0.760305 0.076103
H37   H     H_    0.478776 0.557519 0.862280 0.163890
H38   H     H_    0.385370 0.564434 0.944665 0.211294
H39   H     H_    0.443680 0.474314 0.776201 0.249376
H40   H     H_    0.498592 0.555524 0.683627 0.260503
H41   H     H_    0.404036 0.559594 0.765371 0.271729
H42   H     H_    0.600427 0.323195 0.034195 0.119779
H43   H     H_    0.569702 0.252321 0.139749 0.099701
H44   H     H_    0.616252 0.230006 0.901749 0.221849
H45   H     H_    0.603978 0.143885 0.981477 0.191980
H46   H     H_    0.905553 0.399780 0.321704 0.089934
H47   H     H_    0.478601 0.182564 0.138038 0.261757
H48   H     H_    0.496797 0.175795 0.006319 0.270222
H49   H     H_    0.490023 0.273046 0.064861 0.270933
H50   H     H_    0.536442 0.672358 0.121575 0.103486
H51   H     H_    0.533207 0.654679 0.236020 0.086847
H52   H     H_    0.563848 0.539704 0.076960 0.171993
H53   H     H_    0.651381 0.567663 0.013473 0.217721
H54   H     H_    0.612939 0.451592 0.139145 0.262582
H55   H     H_    0.535342 0.505250 0.256305 0.257845
H56   H     H_    0.621730 0.536849 0.200695 0.271653
H57   H     H_    0.941174 0.666566 0.321852 0.102873
H58   H     H_    0.367474 0.367271 0.917136 0.127808
H59   H     H_    0.405417 0.283817 0.824146 0.102965
H60   H     H_    0.392550 0.313566 0.033350 0.230238
H61   H     H_    0.426915 0.221541 0.952642 0.196911
H62   H     H_    0.522566 0.296551 0.779915 0.276503
H63   H     H_    0.523142 0.316033 0.892550 0.299761
H64   H     H_    0.487449 0.390606 0.858348 0.260480
H65   H     H_    0.969813 0.194685 0.879105 0.077331
H66   H     H_    0.982893 0.189571 0.753340 0.076491
H67   H     H_    0.984472 0.057262 0.850625 0.161378
H68   H     H_    0.094968 0.399291 0.677205 0.088783
H69   H     H_    0.890314 0.063434 0.941066 0.213123
H70   H     H_    0.943631 0.972490 0.774682 0.248729
H71   H     H_    0.995578 0.053955 0.679706 0.259843
H72   H     H_    0.900247 0.056663 0.770073 0.271988
H73   H     H_    0.100248 0.820921 0.031606 0.119420
H74   H     H_    0.069515 0.750843 0.137985 0.098173
H75   H     H_    0.116971 0.726369 0.899634 0.220261
H76   H     H_    0.104752 0.641004 0.980401 0.194139
H77   H     H_    0.979113 0.679256 0.135920 0.261775
H78   H     H_    0.997831 0.671393 0.003824 0.269844
H79   H     H_    0.704895 0.161844 0.317910 0.153456
H80   H     H_    0.990398 0.769142 0.061865 0.271167
H81   H     H_    0.051495 0.188893 0.083153 0.081701
H82   H     H_    0.031439 0.177093 0.213746 0.073013
H83   H     H_    0.060244 0.051632 0.073340 0.170546
H84   H     H_    0.149215 0.070912 0.011121 0.215749
H85   H     H_    0.092556 0.964995 0.159612 0.258290
H86   H     H_    0.025185 0.035296 0.263904 0.254477
H87   H     H_    0.115704 0.050079 0.200687 0.270270
H88   H     H_    0.867036 0.866329 0.918998 0.128231
H89   H     H_    0.904691 0.783261 0.825371 0.102267
H90   H     H_    0.261852 0.896178 0.682966 0.131050
H91   H     H_    0.893676 0.811467 0.033005 0.231610
H92   H     H_    0.928998 0.720694 0.949733 0.197855
H93   H     H_    0.986736 0.891462 0.860619 0.260543
H94   H     H_    0.022547 0.799016 0.778322 0.276418
H95   H     H_    0.024373 0.815909 0.890151 0.300194
H96   H     H_    0.293349 0.161237 0.683714 0.161641
H97   H     H_    0.693164 0.834705 0.234769 0.128394
H98   H     H_    0.737114 0.891782 0.314818 0.138184
H99   H     H_    0.203528 0.663171 0.318632 0.143739
H100  H     H_    0.761691 0.397002 0.682725 0.131392
H101  H     H_    0.792656 0.661246 0.683378 0.157121
H102  H     H_    0.237838 0.394452 0.316125 0.141453
H103  H     H_    0.548429 0.108317 0.169411 0.105152
H104  H     H_    0.478819 0.839510 0.767804 0.090457
H105  H     H_    0.451228 0.116064 0.830148 0.091988
H106  H     H_    0.520959 0.836187 0.235196 0.096751
H107  H     H_    0.048599 0.607436 0.169046 0.105464
H108  H     H_    0.717641 0.119908 0.170196 0.105410
H109  H     H_    0.979202 0.338922 0.766683 0.097867
H110  H     H_    0.950840 0.615313 0.830787 0.091905
H111  H     H_    0.022905 0.338717 0.229639 0.097804
H112  H     H_    0.744513 0.924467 0.607688 0.165834
H113  H     H_    0.311613 0.179405 0.384895 0.167109
H114  H     H_    0.274992 0.906491 0.356319 0.171017
H115  H     H_    0.673305 0.197745 0.644913 0.161306
H116  H     H_    0.243405 0.424527 0.614626 0.165128
H117  H     H_    0.813400 0.676661 0.383464 0.167848
H118  H     H_    0.772603 0.409373 0.358287 0.166905
H119  H     H_    0.308011 0.834843 0.763944 0.123432
H120  H     H_    0.169698 0.699241 0.650141 0.161267
H121  H     H_    0.301240 0.704407 0.796341 0.121405
H122  H     H_    0.773809 0.095106 0.976403 0.125172
H123  H     H_    0.697507 0.701417 0.210550 0.113865
H124  H     H_    0.239262 0.083937 0.032587 0.114340
H125  H     H_    0.800122 0.205090 0.797316 0.122101
H126  H     H_    0.273991 0.594683 0.976266 0.123838
H127  H     H_    0.194229 0.199889 0.212733 0.110850
H128  H     H_    0.738199 0.583973 0.032633 0.118752
H129  H     H_    0.398451 0.385383 0.503505 0.267547
H130  H     H_    0.781969 0.621358 0.828707 0.107425
H131  H     H_    0.450433 0.352542 0.358903 0.244013
H132  H     H_    0.402643 0.447889 0.405637 0.253173
H133  H     H_    0.662043 0.693730 0.502551 0.262915
H134  H     H_    0.664435 0.644399 0.602525 0.255725
H135  H     H_    0.609245 0.732555 0.644317 0.229081
H136  H     H_    0.611000 0.378331 0.468661 0.263876
H137  H     H_    0.558762 0.375265 0.619774 0.251779
H138  H     H_    0.618791 0.457845 0.538505 0.243598
H139  H     H_    0.328978 0.707918 0.533417 0.248280
H140  H     H_    0.318683 0.637439 0.456862 0.260095
H141  H     H_    0.193878 0.335213 0.232831 0.128528
H142  H     H_    0.381833 0.718146 0.382390 0.240299
H143  H     H_    0.898959 0.886738 0.498810 0.268512
H144  H     H_    0.951103 0.852981 0.354531 0.241863
H145  H     H_    0.902587 0.947784 0.400401 0.253167
H146  H     H_    0.149964 0.207731 0.520338 0.258777
H147  H     H_    0.165513 0.145473 0.596476 0.254999
H148  H     H_    0.108958 0.233362 0.664354 0.229295
H149  H     H_    0.113797 0.879263 0.464098 0.261067
H150  H     H_    0.060366 0.877651 0.615610 0.252973
H151  H     H_    0.121951 0.958873 0.533454 0.244495
H152  H     H_    0.217727 0.619559 0.169916 0.100136
H153  H     H_    0.832816 0.210001 0.525740 0.252848
H154  H     H_    0.822275 0.139837 0.449269 0.259950
H155  H     H_    0.884358 0.221520 0.375262 0.236028
H156  H     H_    0.420495 0.396984 0.137993 0.124914
H157  H     H_    0.433595 0.390442 0.235238 0.124470
H158  H     H_    0.322428 0.492060 0.251363 0.200033
H159  H     H_    0.321580 0.485763 0.367179 0.203665
H160  H     H_    0.441274 0.543198 0.249279 0.268510
H161  H     H_    0.383302 0.607948 0.250559 0.314212
H162  H     H_    0.446140 0.546008 0.128183 0.262394
H163  H     H_    0.808394 0.334701 0.762782 0.122315
H164  H     H_    0.605552 0.760608 0.789581 0.119110
H165  H     H_    0.641475 0.860078 0.770124 0.090083
H166  H     H_    0.619167 0.733389 0.932017 0.230405
H167  H     H_    0.649360 0.834757 0.916189 0.211544
H168  H     H_    0.534502 0.887853 0.978522 0.277220
H169  H     H_    0.520469 0.821995 0.082867 0.275247
H170  H     H_    0.504985 0.785768 0.992061 0.261910
H171  H     H_    0.600301 0.468744 0.705226 0.127761
H172  H     H_    0.691984 0.480526 0.639730 0.104930
H173  H     H_    0.562342 0.466555 0.893157 0.195441
H174  H     H_    0.561769 0.163861 0.679925 0.106872
H175  H     H_    0.651993 0.462963 0.837444 0.203951
H176  H     H_    0.674759 0.598681 0.756913 0.295898
H177  H     H_    0.597809 0.600538 0.905266 0.265036
H178  H     H_    0.587251 0.603451 0.802155 0.262771
H179  H     H_    0.390585 0.730007 0.135352 0.138199
H180  H     H_    0.371337 0.816407 0.218676 0.102942
H181  H     H_    0.295553 0.756287 0.133306 0.231074
H182  H     H_    0.261870 0.838533 0.231290 0.193806
H183  H     H_    0.373272 0.914814 0.092422 0.248476
H184  H     H_    0.332994 0.886949 0.034119 0.274806
N1    N     N_R   0.389620 0.081040 0.705440 -0.036263
N2    N     N_R   0.417680 0.920160 0.443370 -0.042982
N3    N     N_R   0.417680 0.079840 0.443370 -0.041396
N4    N     N_R   0.582320 0.920160 0.556630 -0.041103
N5    N     N_R   0.082320 0.579840 0.556630 -0.042054
N6    N     N_R   0.917680 0.420160 0.443370 -0.042062
N7    N     N_R   0.917680 0.579840 0.443370 -0.041302
N8    N     N_R   0.082320 0.420160 0.556630 -0.042643
N9    N     N_R   0.627920 0.078930 0.443400 -0.052561
N10   N     N_R   0.372080 0.921070 0.556600 -0.045759
N11   N     N_R   0.372080 0.078930 0.556600 -0.050112
N12   N     N_R   0.610380 0.918960 0.294560 -0.040911
N13   N     N_R   0.627920 0.921070 0.443400 -0.048532
N14   N     N_R   0.127920 0.578930 0.443400 -0.051616
N15   N     N_R   0.872080 0.421070 0.556600 -0.046110
N16   N     N_R   0.872080 0.578930 0.556600 -0.050472
N17   N     N_R   0.127920 0.421070 0.443400 -0.049504
N18   N     N_R   0.555090 0.077730 0.294590 -0.028008
N19   N     N_R   0.444910 0.922270 0.705410 -0.038735
N20   N     N_R   0.444910 0.077730 0.705410 -0.028376
N21   N     N_R   0.555090 0.922270 0.294590 -0.041330
N22   N     N_R   0.055090 0.577730 0.294590 -0.027467
N23   N     N_R   0.610380 0.081040 0.294560 -0.035085
N24   N     N_R   0.944910 0.422270 0.705410 -0.039668
N25   N     N_R   0.944910 0.577730 0.705410 -0.029010
N26   N     N_R   0.055090 0.422270 0.294590 -0.039932
N27   N     N_R   0.389620 0.918960 0.705440 -0.038669
N28   N     N_R   0.889620 0.581040 0.705440 -0.036052
N29   N     N_R   0.110380 0.418960 0.294560 -0.040580
N30   N     N_R   0.110380 0.581040 0.294560 -0.033777
N31   N     N_R   0.889620 0.418960 0.705440 -0.038460
N32   N     N_R   0.582320 0.079840 0.556630 -0.041624
Ni1   Ni    Ni4+2 0.382970 0.000000 0.629840 0.209561
Ni2   Ni    Ni4+2 0.617030 0.000000 0.370160 0.210181
Ni3   Ni    Ni4+2 0.882970 0.500000 0.629840 0.209385
Ni4   Ni    Ni4+2 0.117030 0.500000 0.370160 0.210340
Ni5   Ni    Ni4+2 0.514540 0.000000 0.629840 0.206786
Ni6   Ni    Ni4+2 0.485460 0.000000 0.370160 0.207380
Ni7   Ni    Ni4+2 0.014540 0.500000 0.629840 0.205916
Ni8   Ni    Ni4+2 0.985460 0.500000 0.370160 0.205829
O1    O     O_3   0.343209 0.335394 0.280273 -0.679852
O2    O     O_3   0.678064 0.247518 0.995519 -0.660564
O3    O     O_3   0.627035 0.706792 0.087260 -0.660083
O4    O     O_3   0.309696 0.265588 0.991746 -0.658077
O5    O     O_3   0.877642 0.207855 0.909110 -0.656061
O6    O     O_3   0.178011 0.746280 0.994445 -0.660274
O7    O     O_3   0.135562 0.213959 0.072005 -0.653557
O8    O     O_3   0.809897 0.764300 0.993880 -0.658829
O9    O     O_3   0.710330 0.761660 0.717240 -0.679795
O10   O     O_3   0.646735 0.367877 0.711057 -0.675921
O11   O     O_3   0.298919 0.720754 0.298472 -0.689806
O12   O     O_3   0.844320 0.831357 0.276054 -0.679218
O13   O     O_3   0.209459 0.256092 0.718329 -0.685539
O14   O     O_3   0.146314 0.870422 0.710440 -0.675709
O15   O     O_3   0.799360 0.227721 0.292766 -0.688353
O16   O     O_3   0.375627 0.709709 0.913170 -0.655134

loop_
_geom_bond_atom_site_label_1
_geom_bond_atom_site_label_2
_ccdc_geom_bond_type
C119  C149  S    
C133  H112  S    
C101  C107  A    
C142  C146  S    
C83   N4    A    
C15   H171  S    
C46   C129  S    
C76   H108  S    
C50   H72   S    
C136  H115  S    
N3    Ni6   S    
C56   H86   S    
C62   C108  S    
C22   H7    S    
C25   H12   S    
C62   O2    S    
C38   H43   S    
C114  C131  A    
N10   Ni1   S    
C34   H34   S    
C18   H180  S    
N29   Ni4   S    
C134  C143  S    
C100  H105  S    
C19   C20   S    
C7    H154  S    
C24   C127  S    
C45   H61   S    
N16   Ni3   S    
C85   C121  A    
C90   C116  A    
C27   H17   S    
C63   O16   S    
C70   C79   D    
C59   C60   S    
C21   C22   S    
C104  H110  S    
C92   N13   A    
C14   H169  S    
C48   H65   S    
C45   C47   S    
C94   N15   A    
C126  C139  S    
N25   N28   A    
C45   H60   S    
C51   C52   S    
C124  C137  S    
C120  N30   A    
C103  N24   A    
C100  N20   A    
N14   Ni4   S    
C66   O3    S    
C99   C110  A    
N11   Ni1   S    
C57   C140  S    
C94   H100  S    
C37   H41   S    
C5    H146  S    
C93   N14   A    
C6    H149  S    
C113  C120  A    
C57   C130  S    
C52   H75   S    
C95   N16   A    
C105  H111  S    
C47   H64   S    
C103  H109  S    
C142  O1    S    
C89   H79   S    
C7    C132  S    
C70   C112  S    
N12   N21   A    
C95   C122  A    
C105  C112  A    
N22   N30   A    
N22   Ni8   S    
C68   C77   D    
C19   H181  S    
C8    H156  S    
C91   H96   S    
C50   H70   S    
N26   Ni8   S    
C43   H56   S    
C152  H138  S    
C3    H142  S    
C151  H135  S    
N24   N31   A    
C152  H136  S    
C128  C147  S    
C64   C106  S    
C9    H159  S    
C40   H47   S    
C92   H98   S    
C125  C138  S    
C10   H160  S    
C100  C106  A    
C31   H28   S    
C2    C147  S    
C96   H102  S    
N7    Ni8   S    
C138  H117  S    
C109  H141  S    
C84   C119  A    
C150  H131  S    
C85   H46   S    
C10   H161  S    
C31   O15   S    
C72   H121  S    
C22   C23   S    
C84   H35   S    
C41   H50   S    
C82   H13   S    
C89   C115  A    
C42   H52   S    
C86   H57   S    
C55   H84   S    
C6    C130  S    
C87   C110  A    
C38   O2    S    
C49   H67   S    
C36   H38   S    
C36   C37   S    
C5    H148  S    
C17   H178  S    
C57   O14   S    
C66   C74   D    
C47   H62   S    
C42   H53   S    
C92   C118  A    
N27   Ni1   S    
C101  N21   A    
C125  C151  S    
C20   H183  S    
C116  C144  S    
C126  C152  S    
C28   H20   S    
C16   H173  S    
N15   Ni3   S    
C64   C73   D    
C9    C10   S    
N8    N17   A    
C61   C132  S    
C53   H78   S    
N13   Ni2   S    
C134  H113  S    
C7    H155  S    
C60   H93   S    
C83   H24   S    
C43   H54   S    
C127  C144  S    
C3    H140  S    
C51   H74   S    
C72   C75   S    
C151  H133  S    
C126  C145  S    
C73   C79   S    
C26   H15   S    
C32   H29   S    
C103  C114  A    
C17   H176  S    
C82   N3    A    
C39   C40   S    
N4    Ni5   S    
C25   C26   S    
C131  N31   A    
C59   H92   S    
C150  H129  S    
C65   N12   A    
C99   H104  S    
N5    N14   A    
C31   C32   S    
C132  C136  S    
C33   H32   S    
C81   N2    A    
C30   H26   S    
C40   H49   S    
N8    Ni7   S    
C46   C137  S    
C90   H90   S    
C91   N11   A    
C8    O1    S    
C67   C75   D    
C127  C140  S    
N2    Ni6   S    
C71   C77   S    
C52   C53   S    
C102  N22   A    
C95   H101  S    
C54   C55   S    
C57   C144  S    
C49   H69   S    
N3    N11   A    
C44   H59   S    
C80   H174  S    
C23   H10   S    
C76   N23   A    
C16   H175  S    
C25   H11   S    
C11   O9    S    
C81   C116  A    
C62   C71   D    
C34   C36   S    
C53   H80   S    
C2    C125  S    
C37   H40   S    
C7    H153  S    
C60   H95   S    
C49   C50   S    
C12   H167  S    
C54   H82   S    
N31   Ni3   S    
C93   C119  A    
N12   Ni2   S    
C140  C149  S    
C65   C107  A    
C55   C56   S    
C20   H3    S    
C109  N29   A    
C41   C42   S    
C130  C135  S    
C4    H143  S    
C34   O16   S    
C29   H22   S    
C118  C141  S    
C96   N17   A    
C14   H170  S    
C48   H66   S    
C26   C27   S    
N28   Ni3   S    
C28   C29   S    
C137  H116  S    
C73   H124  S    
C11   H164  S    
C74   H123  S    
C61   O15   S    
C18   C19   S    
C61   C145  S    
C6    H150  S    
C52   H76   S    
C16   C17   S    
C47   H63   S    
C86   C122  A    
C135  H114  S    
C91   C117  A    
C124  C143  S    
C29   C30   S    
C54   O7    S    
C66   C107  S    
C96   C123  A    
C27   H16   S    
C97   H103  S    
N24   Ni7   S    
C41   O3    S    
C5    C129  S    
C39   H45   S    
C76   C108  A    
C24   O11   S    
C15   H172  S    
N18   Ni6   S    
C139  H118  S    
C50   H71   S    
C2    C133  S    
C4    C128  S    
C75   H126  S    
C43   H55   S    
C56   H85   S    
C9    H158  S    
C22   H6    S    
C58   C59   S    
C35   O12   S    
C38   H42   S    
C31   H27   S    
C58   O8    S    
C18   H179  S    
N19   Ni5   S    
C137  C146  S    
C80   C115  A    
C101  H106  S    
C121  C148  S    
C139  C148  S    
C150  H132  S    
C85   N6    A    
C1    H1    S    
C27   H18   S    
C129  C146  S    
C13   C126  S    
C48   C49   S    
C10   H162  S    
C42   C43   S    
N30   Ni4   S    
C30   H23   S    
C2    O9    S    
C98   N28   A    
C44   C45   S    
C124  C150  S    
C48   O5    S    
C69   O8    S    
C55   H83   S    
C13   O10   S    
C98   H130  S    
C46   O13   S    
C40   H48   S    
C39   H44   S    
C115  C145  S    
C133  C141  S    
C32   C33   S    
C5    H147  S    
C102  C113  A    
C17   H177  S    
C38   C39   S    
C104  N25   A    
C44   H58   S    
N4    N13   A    
C35   C128  S    
N6    N15   A    
C20   H184  S    
C129  C134  S    
C94   C121  A    
C88   H68   S    
C63   C72   D    
C79   H127  S    
C74   C78   S    
C33   H33   S    
N20   Ni5   S    
C88   N8    A    
C82   C117  A    
C64   O4    S    
C120  H152  S    
N18   N23   A    
C53   H77   S    
N26   N29   A    
C19   H182  S    
C21   O12   S    
C60   H94   S    
C65   H97   S    
C12   H166  S    
C56   H87   S    
C152  H137  S    
C3    H139  S    
C14   H168  S    
C80   N32   A    
N9    N32   A    
N21   Ni6   S    
C83   C118  A    
C32   H30   S    
C117  C143  S    
C35   C138  S    
N32   Ni5   S    
C3    C127  S    
C134  C142  S    
C89   N9    A    
C15   C16   S    
C71   H122  S    
C102  H107  S    
C59   H91   S    
C77   H125  S    
N5    Ni7   S    
C54   H81   S    
C87   H119  S    
C97   C108  A    
C21   H4    S    
C8    C9    S    
C11   H165  S    
C131  H163  S    
C8    H157  S    
C33   H31   S    
C123  C146  S    
C41   H51   S    
C136  C145  S    
C1    C106  A    
N7    N16   A    
C51   O6    S    
C124  C142  S    
C69   C78   D    
C15   O10   S    
C88   C123  A    
C58   H88   S    
C36   H37   S    
C132  C148  S    
N23   Ni2   S    
C87   N27   A    
C24   C149  S    
C109  C112  A    
C125  C141  S    
C61   C139  S    
C122  C147  S    
C68   O5    S    
C81   H2    S    
C140  H120  S    
C70   O7    S    
C58   H89   S    
C51   H73   S    
C28   H19   S    
C138  C147  S    
C23   H8    S    
C130  C149  S    
C97   N18   A    
N17   Ni4   S    
C34   H36   S    
C35   C141  S    
C28   O14   S    
C24   C135  S    
C135  C144  S    
C37   H39   S    
C12   C14   S    
C13   C136  S    
C90   N10   A    
C1    N1    A    
C151  H134  S    
C105  N26   A    
N9    Ni2   S    
C26   H14   S    
C98   C111  A    
C21   H5    S    
C99   N19   A    
C4    H144  S    
C29   H21   S    
C104  C111  A    
C11   C12   S    
C46   C143  S    
N1    N20   A    
N19   N27   A    
N2    N10   A    
C63   C110  S    
C67   C113  S    
C78   H128  S    
C128  C133  S    
C69   C111  S    
C18   O11   S    
C30   H25   S    
C6    H151  S    
C84   N5    A    
C4    H145  S    
C67   O6    S    
N1    Ni1   S    
C25   O13   S    
C86   N7    A    
N25   Ni7   S    
N6    Ni8   S    
C13   C148  S    
C44   O4    S    
C93   H99   S    
C68   C114  S    
C23   H9    S    
