data_mof_unit_65517.cif
_audit_creation_date              2012-12-10T19:20:44-0500
_audit_creation_method            fapswitch 2.2
_symmetry_space_group_name_H-M    P1
_symmetry_Int_Tables_number       1
_space_group_crystal_system       triclinic
_cell_length_a                    25.834536
_cell_length_b                    34.573483
_cell_length_c                    21.576199
_cell_angle_alpha                 90.000305
_cell_angle_beta                  126.763764
_cell_angle_gamma                 90.000183
_cell_volume                      15438.7068678

loop_
_atom_site_label
_atom_site_type_symbol
_atom_type_description
_atom_site_fract_x
_atom_site_fract_y
_atom_site_fract_z
_atom_type_partial_charge
C1    C     C_R   0.999993 0.021298 0.000054 0.138704
C2    C     C_R   0.999990 0.978545 0.000047 0.147956
C3    C     C_R   0.500010 0.521296 0.999929 0.139039
C4    C     C_R   0.500014 0.478542 0.999938 0.147778
C5    C     C_R   0.929605 0.148319 0.140885 -0.196890
C6    C     C_R   0.078634 0.857648 0.874223 -0.197447
C7    C     C_R   0.070569 0.148213 0.859219 -0.196822
C8    C     C_R   0.921595 0.857503 0.126166 -0.197507
C9    C     C_R   0.429190 0.648093 0.140757 -0.196699
C10   C     C_R   0.578425 0.357519 0.873897 -0.197570
C11   C     C_R   0.570477 0.648268 0.859164 -0.196891
C12   C     C_R   0.421380 0.357644 0.125820 -0.197512
C13   C     C_R   0.890579 0.181266 0.115483 -0.228042
C14   C     C_R   0.113905 0.823350 0.893487 -0.223212
C15   C     C_R   0.109547 0.181183 0.884587 -0.228018
C16   C     C_R   0.886235 0.823236 0.106787 -0.223278
C17   C     C_R   0.390260 0.681083 0.115435 -0.227969
C18   C     C_R   0.613755 0.323240 0.893264 -0.223237
C19   C     C_R   0.609487 0.681222 0.884531 -0.228002
C20   C     C_R   0.386120 0.323341 0.106551 -0.223171
C21   C     C_R   0.828232 0.180733 0.045096 0.195847
C22   C     C_R   0.176279 0.820525 0.963397 0.200052
C23   C     C_R   0.171852 0.180706 0.955052 0.195876
C24   C     C_R   0.823859 0.820481 0.036861 0.199933
C25   C     C_R   0.328063 0.680692 0.044797 0.195907
C26   C     C_R   0.676153 0.320483 0.963151 0.199919
C27   C     C_R   0.671803 0.680724 0.954976 0.195890
C28   C     C_R   0.323739 0.320516 0.036647 0.200011
C29   C     C_R   0.805793 0.146939 0.000038 -0.117787
C30   C     C_R   0.202379 0.852142 0.014383 -0.119605
C31   C     C_R   0.194293 0.146949 0.000227 -0.117678
C32   C     C_R   0.797841 0.852138 0.985978 -0.119649
C33   C     C_R   0.305683 0.647008 0.999393 -0.117563
C34   C     C_R   0.702219 0.352149 0.014009 -0.119704
C35   C     C_R   0.694225 0.646959 0.000130 -0.117764
C36   C     C_R   0.297621 0.352139 0.985673 -0.119646
C37   C     C_R   0.844871 0.113945 0.025788 -0.204883
C38   C     C_R   0.167008 0.886403 0.994950 -0.186024
C39   C     C_R   0.155261 0.113933 0.974516 -0.204904
C40   C     C_R   0.833301 0.886367 0.005527 -0.185985
C41   C     C_R   0.344672 0.613976 0.025045 -0.204854
C42   C     C_R   0.666790 0.386390 0.994471 -0.185886
C43   C     C_R   0.655160 0.613959 0.974422 -0.204774
C44   C     C_R   0.332981 0.386405 0.005111 -0.185901
C45   C     C_R   0.906658 0.114552 0.096393 0.463276
C46   C     C_R   0.105386 0.889308 0.924582 0.463432
C47   C     C_R   0.093519 0.114481 0.903828 0.463250
C48   C     C_R   0.894929 0.889201 0.075908 0.463416
C49   C     C_R   0.406303 0.614432 0.095912 0.463295
C50   C     C_R   0.605143 0.389227 0.924127 0.463454
C51   C     C_R   0.593406 0.614529 0.903756 0.463295
C52   C     C_R   0.394609 0.389310 0.075474 0.463460
C53   C     C_R   0.231756 0.715681 0.017701 0.344059
C54   C     C_R   0.768575 0.284306 0.982865 0.342990
C55   C     C_R   0.768167 0.715695 0.982149 0.343897
C56   C     C_R   0.231379 0.284318 0.017045 0.343010
C57   C     C_R   0.731849 0.215699 0.017887 0.343859
C58   C     C_R   0.268643 0.784330 0.983001 0.343040
C59   C     C_R   0.268201 0.215688 0.982210 0.343926
C60   C     C_R   0.731417 0.784311 0.017114 0.343027
C61   C     C_R   0.196006 0.749969 0.999700 -0.200182
C62   C     C_R   0.804227 0.250031 0.000697 -0.201036
C63   C     C_R   0.803987 0.749964 0.000287 -0.200064
C64   C     C_R   0.195772 0.250030 0.999302 -0.201088
C65   C     C_R   0.696016 0.249964 0.999718 -0.200008
C66   C     C_R   0.304222 0.750034 0.000688 -0.201146
C67   C     C_R   0.303987 0.249967 0.000288 -0.200068
C68   C     C_R   0.695775 0.750033 0.999306 -0.201072
C69   C     C_R   0.214501 0.784506 0.983068 -0.129703
C70   C     C_R   0.786706 0.215707 0.019166 -0.126037
C71   C     C_R   0.785561 0.784484 0.017053 -0.129679
C72   C     C_R   0.213341 0.215695 0.980923 -0.126080
C73   C     C_R   0.714435 0.284481 0.982937 -0.129675
C74   C     C_R   0.286614 0.715691 0.018991 -0.126201
C75   C     C_R   0.285517 0.284496 0.016971 -0.129718
C76   C     C_R   0.713311 0.715704 0.980871 -0.126074
C77   C     C_R   0.812442 0.281504 0.583697 -0.169897
C78   C     C_R   0.165960 0.734683 0.416332 -0.167711
C79   C     C_R   0.187548 0.281500 0.416304 -0.169889
C80   C     C_R   0.834037 0.734680 0.583667 -0.167715
C81   C     C_R   0.312442 0.781504 0.583697 -0.169890
C82   C     C_R   0.665963 0.234681 0.416332 -0.167709
C83   C     C_R   0.687562 0.781505 0.416304 -0.169900
C84   C     C_R   0.334045 0.234691 0.583668 -0.167698
C85   C     C_R   0.140078 0.250161 0.000200 0.899997
C86   C     C_R   0.859893 0.749852 0.999771 0.898718
C87   C     C_R   0.859919 0.250164 0.999795 0.900061
C88   C     C_R   0.140103 0.749855 0.000221 0.898562
C89   C     C_R   0.640081 0.750164 0.000205 0.900048
C90   C     C_R   0.359896 0.249855 0.999776 0.898634
C91   C     C_R   0.359923 0.750160 0.999803 0.900015
C92   C     C_R   0.640107 0.249852 0.000228 0.898730
C93   C     C_R   0.853050 0.281365 0.664213 -0.176346
C94   C     C_R   0.125847 0.734448 0.335809 -0.181293
C95   C     C_R   0.146939 0.281361 0.335789 -0.176355
C96   C     C_R   0.874150 0.734445 0.664190 -0.181284
C97   C     C_R   0.353051 0.781365 0.664213 -0.176365
C98   C     C_R   0.625849 0.234447 0.335810 -0.181282
C99   C     C_R   0.646952 0.781366 0.335788 -0.176368
C100  C     C_R   0.374158 0.234456 0.664191 -0.181288
C101  C     C_R   0.852574 0.249958 0.704979 -0.002970
C102  C     C_R   0.147482 0.750027 0.295020 -0.002050
C103  C     C_R   0.147425 0.249958 0.295021 -0.002988
C104  C     C_R   0.852518 0.750026 0.704980 -0.002060
C105  C     C_R   0.352574 0.749958 0.704979 -0.002973
C106  C     C_R   0.647483 0.250026 0.295020 -0.002064
C107  C     C_R   0.647426 0.749959 0.295021 -0.002958
C108  C     C_R   0.352518 0.250027 0.704980 -0.002054
C109  C     C_R   0.811374 0.218537 0.664222 -0.176618
C110  C     C_R   0.209887 0.765612 0.335752 -0.172335
C111  C     C_R   0.188636 0.218541 0.335778 -0.176601
C112  C     C_R   0.790114 0.765614 0.664248 -0.172310
C113  C     C_R   0.311373 0.718537 0.664222 -0.176634
C114  C     C_R   0.709887 0.265612 0.335752 -0.172304
C115  C     C_R   0.688624 0.718537 0.335777 -0.176641
C116  C     C_R   0.290108 0.265604 0.664249 -0.172309
C117  C     C_R   0.771446 0.218409 0.583700 -0.167569
C118  C     C_R   0.250354 0.765336 0.416267 -0.169873
C119  C     C_R   0.228566 0.218414 0.416299 -0.167560
C120  C     C_R   0.749647 0.765338 0.583734 -0.169890
C121  C     C_R   0.271443 0.718410 0.583700 -0.167583
C122  C     C_R   0.750355 0.265336 0.416267 -0.169872
C123  C     C_R   0.728553 0.718410 0.416299 -0.167608
C124  C     C_R   0.249641 0.265328 0.583734 -0.169860
C125  C     C_R   0.771407 0.249965 0.542665 0.109656
C126  C     C_R   0.228696 0.749992 0.457333 0.110867
C127  C     C_R   0.228594 0.249966 0.457335 0.109653
C128  C     C_R   0.771304 0.749992 0.542667 0.110860
C129  C     C_R   0.271406 0.749966 0.542665 0.109651
C130  C     C_R   0.728697 0.249991 0.457333 0.110859
C131  C     C_R   0.728594 0.749966 0.457335 0.109661
C132  C     C_R   0.271305 0.249992 0.542667 0.110861
C133  C     C_R   0.058395 0.041896 0.037737 -0.089179
C134  C     C_R   0.948669 0.957945 0.936164 -0.079305
C135  C     C_R   0.941593 0.041899 0.962365 -0.089505
C136  C     C_R   0.051314 0.957941 0.063915 -0.078868
C137  C     C_R   0.558425 0.541899 0.037811 -0.089481
C138  C     C_R   0.448761 0.457935 0.936000 -0.078900
C139  C     C_R   0.441591 0.541894 0.962051 -0.089078
C140  C     C_R   0.551263 0.457943 0.063895 -0.079283
C141  C     C_R   0.058429 0.082122 0.038687 -0.134575
C142  C     C_R   0.948302 0.917715 0.936605 -0.128451
C143  C     C_R   0.941561 0.082124 0.961386 -0.134686
C144  C     C_R   0.051690 0.917711 0.063443 -0.127975
C145  C     C_R   0.558452 0.582124 0.038789 -0.134751
C146  C     C_R   0.448382 0.417706 0.936477 -0.128131
C147  C     C_R   0.441559 0.582119 0.961108 -0.134547
C148  C     C_R   0.551633 0.417713 0.063458 -0.128484
C149  C     C_R   0.999996 0.102507 0.000023 0.023754
C150  C     C_R   0.999998 0.897379 0.000016 0.014522
C151  C     C_R   0.500004 0.602506 0.999967 0.023798
C152  C     C_R   0.500004 0.397377 0.999979 0.014393
C153  C     C_R   0.105118 0.249983 0.210297 0.789233
C154  C     C_R   0.894871 0.750012 0.789704 0.789396
C155  C     C_R   0.894881 0.249983 0.789703 0.789251
C156  C     C_R   0.105129 0.750012 0.210296 0.789377
C157  C     C_R   0.605118 0.749984 0.210296 0.789274
C158  C     C_R   0.394871 0.250012 0.789704 0.789389
C159  C     C_R   0.394882 0.749983 0.789703 0.789230
C160  C     C_R   0.605129 0.250012 0.210296 0.789409
C161  C     C_R   0.999999 0.144858 0.000004 0.792327
C162  C     C_R   1.000000 0.855103 0.000002 0.787066
C163  C     C_R   0.500001 0.644857 0.999994 0.792313
C164  C     C_R   0.500001 0.355102 0.999997 0.787031
C165  C     C_R   0.000000 0.355157 0.000000 0.825169
C166  C     C_R   0.000000 0.644856 1.000000 0.828068
C167  C     C_R   0.500000 0.855157 1.000000 0.825149
C168  C     C_R   0.500000 0.144856 1.000000 0.828099
C169  C     C_R   0.990231 0.458178 0.937595 -0.160274
C170  C     C_R   0.971974 0.541879 0.029266 -0.162160
C171  C     C_R   0.009769 0.458178 0.062406 -0.160283
C172  C     C_R   0.028027 0.541879 0.970735 -0.162132
C173  C     C_R   0.490229 0.958178 0.937593 -0.160284
C174  C     C_R   0.471973 0.041879 0.029266 -0.162141
C175  C     C_R   0.509769 0.958178 0.062405 -0.160278
C176  C     C_R   0.528025 0.041879 0.970733 -0.162158
C177  C     C_R   0.990695 0.417921 0.937864 -0.156653
C178  C     C_R   0.972409 0.582137 0.029788 -0.155350
C179  C     C_R   0.009306 0.417921 0.062136 -0.156703
C180  C     C_R   0.027591 0.582136 0.970212 -0.155313
C181  C     C_R   0.490692 0.917921 0.937863 -0.156696
C182  C     C_R   0.472409 0.082137 0.029789 -0.155332
C183  C     C_R   0.509306 0.917921 0.062136 -0.156642
C184  C     C_R   0.527590 0.082136 0.970210 -0.155356
C185  C     C_R   0.000000 0.397531 0.000000 -0.000532
C186  C     C_R   1.000000 0.602507 1.000000 -0.018478
C187  C     C_R   0.499999 0.897531 1.000000 -0.000528
C188  C     C_R   0.499999 0.102507 0.999999 -0.018451
C189  C     C_R   0.000000 0.478695 0.000000 0.111543
C190  C     C_R   0.000000 0.521362 0.000000 0.104361
C191  C     C_R   0.499999 0.978695 0.999999 0.111535
C192  C     C_R   0.499999 0.021362 0.999999 0.104378
H1    H     H_    0.981413 0.473211 0.888075 0.135886
H2    H     H_    0.948971 0.526846 0.050874 0.142718
H3    H     H_    0.018588 0.473212 0.111925 0.135881
H4    H     H_    0.051029 0.526846 0.949127 0.142763
H5    H     H_    0.481409 0.973211 0.888073 0.135884
H6    H     H_    0.448972 0.026846 0.050875 0.142738
H7    H     H_    0.518589 0.973212 0.111925 0.135887
H8    H     H_    0.551026 0.026846 0.949124 0.142710
H9    H     H_    0.884117 0.306071 0.694543 0.160095
H10   H     H_    0.077617 0.722572 0.305491 0.159821
H11   H     H_    0.115862 0.306064 0.305459 0.160097
H12   H     H_    0.922378 0.722568 0.694507 0.159839
H13   H     H_    0.384119 0.806070 0.694543 0.160095
H14   H     H_    0.577620 0.222570 0.305492 0.159832
H15   H     H_    0.615887 0.806072 0.305458 0.160095
H16   H     H_    0.422392 0.222586 0.694508 0.159815
H17   H     H_    0.810651 0.193828 0.694564 0.161884
H18   H     H_    0.227758 0.777507 0.305394 0.161516
H19   H     H_    0.189368 0.193836 0.305435 0.161902
H20   H     H_    0.772245 0.777510 0.694607 0.161537
H21   H     H_    0.310649 0.693829 0.694564 0.161872
H22   H     H_    0.727758 0.277508 0.305393 0.161546
H23   H     H_    0.689345 0.693828 0.305434 0.161859
H24   H     H_    0.272234 0.277493 0.694608 0.161530
H25   H     H_    0.741212 0.193396 0.553627 0.137085
H26   H     H_    0.298861 0.776688 0.446308 0.135111
H27   H     H_    0.258809 0.193404 0.446372 0.137091
H28   H     H_    0.701142 0.776692 0.553693 0.135113
H29   H     H_    0.241209 0.693398 0.553626 0.137079
H30   H     H_    0.798861 0.276689 0.446307 0.135123
H31   H     H_    0.758785 0.693397 0.446371 0.137071
H32   H     H_    0.201131 0.276674 0.553694 0.135123
H33   H     H_    0.104148 0.027064 0.065605 0.128065
H34   H     H_    0.909166 0.972785 0.885191 0.126543
H35   H     H_    0.895839 0.027068 0.934506 0.127979
H36   H     H_    0.090816 0.972777 0.114898 0.126531
H37   H     H_    0.604199 0.527071 0.065826 0.127839
H38   H     H_    0.409323 0.472767 0.884959 0.126632
H39   H     H_    0.395819 0.527062 0.934024 0.127911
H40   H     H_    0.590704 0.472782 0.114923 0.126626
H41   H     H_    0.104142 0.097243 0.068393 0.147804
H42   H     H_    0.908201 0.902530 0.886689 0.150446
H43   H     H_    0.895850 0.097247 0.931673 0.147833
H44   H     H_    0.091793 0.902522 0.113349 0.150441
H45   H     H_    0.604175 0.597247 0.068655 0.147835
H46   H     H_    0.408337 0.402514 0.886518 0.150454
H47   H     H_    0.395833 0.597237 0.931242 0.147751
H48   H     H_    0.591675 0.402528 0.113432 0.150457
H49   H     H_    0.982896 0.402765 0.888978 0.160539
H50   H     H_    0.950326 0.597317 0.052438 0.177975
H51   H     H_    0.017104 0.402766 0.111022 0.160530
H52   H     H_    0.049674 0.597317 0.947562 0.178061
H53   H     H_    0.482893 0.902765 0.888977 0.160534
H54   H     H_    0.450327 0.097317 0.052439 0.178002
H55   H     H_    0.517105 0.902766 0.111022 0.160543
H56   H     H_    0.549672 0.097317 0.947559 0.177951
H57   H     H_    0.977433 0.148977 0.195434 0.170719
H58   H     H_    0.030855 0.859718 0.819839 0.170199
H59   H     H_    0.022777 0.148824 0.804603 0.170753
H60   H     H_    0.969378 0.859517 0.180559 0.170218
H61   H     H_    0.476894 0.648632 0.195517 0.170846
H62   H     H_    0.530626 0.359537 0.819532 0.170178
H63   H     H_    0.522676 0.648896 0.804566 0.170737
H64   H     H_    0.469165 0.359716 0.180201 0.170178
H65   H     H_    0.908693 0.207121 0.150861 0.152179
H66   H     H_    0.092999 0.799160 0.853694 0.147652
H67   H     H_    0.091436 0.207010 0.849119 0.152173
H68   H     H_    0.907079 0.799013 0.146499 0.147739
H69   H     H_    0.408317 0.706855 0.151075 0.152254
H70   H     H_    0.592874 0.299012 0.853570 0.147685
H71   H     H_    0.591388 0.707056 0.849081 0.152198
H72   H     H_    0.407040 0.299146 0.146335 0.147644
H73   H     H_    0.758029 0.146136 0.945357 0.161557
H74   H     H_    0.250228 0.850295 0.068786 0.158263
H75   H     H_    0.242025 0.146191 0.054966 0.161474
H76   H     H_    0.749991 0.850345 0.931563 0.158289
H77   H     H_    0.258031 0.646322 0.944522 0.161237
H78   H     H_    0.750087 0.350355 0.068393 0.158328
H79   H     H_    0.741964 0.646185 0.054856 0.161463
H80   H     H_    0.249765 0.350293 0.931275 0.158272
H81   H     H_    0.827005 0.087903 0.991033 0.165198
H82   H     H_    0.187760 0.910771 0.034245 0.165267
H83   H     H_    0.173129 0.087919 0.009362 0.165152
H84   H     H_    0.812617 0.910766 0.966308 0.165290
H85   H     H_    0.326853 0.588017 0.990018 0.164974
H86   H     H_    0.687516 0.410796 0.033668 0.165344
H87   H     H_    0.673010 0.587940 0.009256 0.165145
H88   H     H_    0.312214 0.410777 0.965824 0.165323
H89   H     H_    0.812595 0.306524 0.553629 0.135583
H90   H     H_    0.147549 0.723317 0.446433 0.135572
H91   H     H_    0.187386 0.306517 0.446373 0.135588
H92   H     H_    0.852448 0.723313 0.553566 0.135576
H93   H     H_    0.312595 0.806524 0.553629 0.135594
H94   H     H_    0.647552 0.223314 0.446433 0.135578
H95   H     H_    0.687410 0.806526 0.446373 0.135589
H96   H     H_    0.352460 0.223331 0.553567 0.135576
O1    O     O_3   0.000000 0.250000 0.000000 -0.493214
O2    O     O_3   0.000000 0.750000 0.000000 -0.492547
O3    O     O_3   0.500000 0.750000 0.000000 -0.493209
O4    O     O_3   0.500000 0.250000 0.000000 -0.492546
O5    O     O_R   0.093070 0.272740 0.954520 -0.611216
O6    O     O_R   0.906930 0.727260 0.045480 -0.613353
O7    O     O_R   0.906930 0.272740 0.045480 -0.611304
O8    O     O_R   0.093070 0.727260 0.954520 -0.613210
O9    O     O_R   0.593070 0.772740 0.954520 -0.611260
O10   O     O_R   0.406930 0.227260 0.045480 -0.613294
O11   O     O_R   0.406930 0.772740 0.045480 -0.611128
O12   O     O_R   0.593070 0.227260 0.954520 -0.613391
O13   O     O_R   0.117100 0.227270 0.173460 -0.640616
O14   O     O_R   0.882900 0.772730 0.826540 -0.644076
O15   O     O_R   0.882900 0.227270 0.826540 -0.640613
O16   O     O_R   0.117100 0.772730 0.173460 -0.644076
O17   O     O_R   0.617100 0.727270 0.173460 -0.640632
O18   O     O_R   0.382900 0.272730 0.826540 -0.644072
O19   O     O_R   0.382900 0.727270 0.826540 -0.640638
O20   O     O_R   0.617100 0.272730 0.173460 -0.644076
O21   O     O_R   0.053120 0.163270 0.045480 -0.648593
O22   O     O_R   0.946880 0.836730 0.954520 -0.647698
O23   O     O_R   0.946880 0.163270 0.954520 -0.648606
O24   O     O_R   0.053120 0.836730 0.045480 -0.647682
O25   O     O_R   0.553120 0.663270 0.045480 -0.648632
O26   O     O_R   0.446880 0.336730 0.954520 -0.647673
O27   O     O_R   0.446880 0.663270 0.954520 -0.648630
O28   O     O_R   0.553120 0.336730 0.045480 -0.647681
O29   O     O_R   0.007620 0.336730 0.954520 -0.630463
O30   O     O_R   0.992380 0.663270 0.045480 -0.629674
O31   O     O_R   0.992380 0.336730 0.045480 -0.630498
O32   O     O_R   0.007620 0.663270 0.954520 -0.629614
O33   O     O_R   0.507620 0.836730 0.954520 -0.630495
O34   O     O_R   0.492380 0.163270 0.045480 -0.629636
O35   O     O_R   0.492380 0.836730 0.045480 -0.630456
O36   O     O_R   0.507620 0.163270 0.954520 -0.629672
O37   O     O_R   0.056370 0.272740 0.173460 -0.650286
O38   O     O_R   0.943630 0.727260 0.826540 -0.646668
O39   O     O_R   0.943630 0.272740 0.826540 -0.650273
O40   O     O_R   0.056370 0.727260 0.173460 -0.646684
O41   O     O_R   0.556370 0.772740 0.173460 -0.650259
O42   O     O_R   0.443630 0.227260 0.826540 -0.646683
O43   O     O_R   0.443630 0.772740 0.826540 -0.650272
O44   O     O_R   0.556370 0.227260 0.173460 -0.646673
O45   O     O_R   0.138550 0.227260 0.045470 -0.642183
O46   O     O_R   0.861450 0.772740 0.954530 -0.643010
O47   O     O_R   0.861450 0.227260 0.954530 -0.642135
O48   O     O_R   0.138550 0.772740 0.045470 -0.643071
O49   O     O_R   0.638550 0.727260 0.045470 -0.642171
O50   O     O_R   0.361450 0.272740 0.954530 -0.643025
O51   O     O_R   0.361450 0.727260 0.954530 -0.642262
O52   O     O_R   0.638550 0.272740 0.045470 -0.642979
Zn1   Zn    Zn3+2 0.989110 0.282490 0.064980 1.014185
Zn2   Zn    Zn3+2 0.010890 0.717510 0.935020 1.015223
Zn3   Zn    Zn3+2 0.010890 0.282490 0.935020 1.014245
Zn4   Zn    Zn3+2 0.989110 0.717510 0.064980 1.015133
Zn5   Zn    Zn3+2 0.489110 0.782490 0.064980 1.014294
Zn6   Zn    Zn3+2 0.510890 0.217510 0.935020 1.015137
Zn7   Zn    Zn3+2 0.510890 0.782490 0.935020 1.014203
Zn8   Zn    Zn3+2 0.489110 0.217510 0.064980 1.015194
Zn9   Zn    Zn3+2 0.075880 0.217510 0.064980 0.984924
Zn10  Zn    Zn3+2 0.924120 0.782490 0.935020 0.981341
Zn11  Zn    Zn3+2 0.924120 0.217510 0.935020 0.984958
Zn12  Zn    Zn3+2 0.075880 0.782490 0.064980 0.981297
Zn13  Zn    Zn3+2 0.575880 0.717510 0.064980 0.984917
Zn14  Zn    Zn3+2 0.424120 0.282490 0.935020 0.981326
Zn15  Zn    Zn3+2 0.424120 0.717510 0.935020 0.984849
Zn16  Zn    Zn3+2 0.575880 0.282490 0.064980 0.981361
Cl1   Cl    Cl    0.955007 0.072876 0.129901 -0.587386
Cl2   Cl    Cl    0.062454 0.932932 0.898663 -0.599931
Cl3   Cl    Cl    0.045240 0.072773 0.870359 -0.587186
Cl4   Cl    Cl    0.937981 0.932783 0.101966 -0.600079
Cl5   Cl    Cl    0.454517 0.572699 0.129304 -0.587195
Cl6   Cl    Cl    0.562135 0.432824 0.898077 -0.599967
Cl7   Cl    Cl    0.545080 0.572842 0.870296 -0.587418
Cl8   Cl    Cl    0.437521 0.432942 0.101402 -0.599748
Cl9   Cl    Cl    0.210711 0.673479 0.044787 -0.613638
Cl10  Cl    Cl    0.789542 0.326564 0.955814 -0.603131
Cl11  Cl    Cl    0.789123 0.673530 0.954867 -0.613847
Cl12  Cl    Cl    0.210361 0.326596 0.043992 -0.603046
Cl13  Cl    Cl    0.710913 0.173547 0.045225 -0.613897
Cl14  Cl    Cl    0.289698 0.826618 0.956127 -0.603047
Cl15  Cl    Cl    0.289194 0.173513 0.954993 -0.613809
Cl16  Cl    Cl    0.710431 0.826579 0.044119 -0.603102

loop_
_geom_bond_atom_site_label_1
_geom_bond_atom_site_label_2
_ccdc_geom_bond_type
C12   H64   S    
C148  H48   S    
C34   C42   A    
C116  H24   S    
C110  C118  A    
C181  C187  A    
C89   O9    A    
C61   C69   A    
C87   O7    A    
C2    C134  A    
C45   Cl1   S    
C170  C178  A    
C175  C183  A    
C133  H33   S    
C18   H70   S    
O3    Zn15  S    
C101  C155  S    
C79   H91   S    
C153  O37   A    
C62   C70   A    
C176  C184  A    
C25   C74   S    
C166  O30   A    
C161  O23   A    
O18   Zn14  S    
C162  O24   A    
O48   Zn12  S    
C93   H9    S    
C22   C69   S    
C5    C13   A    
C97   C105  A    
O4    Zn8   S    
C7    C15   A    
C84   H96   S    
C8    C16   A    
C157  O17   A    
C184  H56   S    
C109  H17   S    
C41   C49   A    
O40   Zn4   S    
C100  H16   S    
C158  O42   A    
C115  C123  A    
C6    H58   S    
C191  C192  S    
C84   C100  A    
C171  H3    S    
C93   C101  A    
C112  C120  A    
C38   H82   S    
C169  H1    S    
C20   C28   A    
C126  C129  S    
C27   C35   A    
C21   C29   A    
C173  C191  A    
C99   H15   S    
C23   C31   A    
C24   C32   A    
C83   C131  A    
C81   C129  A    
C12   C20   A    
C115  H23   S    
O4    Zn16  S    
O2    Zn4   S    
C167  O33   A    
C59   Cl15  S    
C63   C71   A    
C96   C104  A    
C172  H4    S    
C37   C45   A    
C64   C85   S    
C32   C40   A    
C77   C125  A    
C39   C47   A    
C40   C48   A    
C79   C127  A    
C89   O49   A    
C26   C34   A    
C166  C186  S    
C159  O43   A    
C23   C72   S    
O5    Zn3   S    
C9    H61   S    
O1    Zn9   S    
C82   H94   S    
C98   C106  A    
C60   C68   A    
C17   C25   A    
C33   C41   A    
C20   H72   S    
C108  C116  A    
O49   Zn13  S    
C78   C94   A    
O45   Zn9   S    
C162  O22   A    
C181  H53   S    
C2    C136  A    
O22   Zn10  S    
C47   Cl3   S    
C178  C186  A    
C143  C149  A    
C43   H87   S    
C94   C102  A    
C141  H41   S    
C122  H30   S    
O6    Zn4   S    
C40   H84   S    
C98   H14   S    
C49   Cl5   S    
C28   C75   S    
C179  H51   S    
C57   C65   A    
C177  H49   S    
O27   Zn15  S    
C114  H22   S    
C169  C189  A    
C87   O47   A    
C174  C182  A    
C30   C38   A    
C135  H35   S    
C105  C113  A    
C10   C18   A    
C16   H68   S    
C95   H11   S    
C66   C74   A    
O35   Zn5   S    
C124  C132  A    
C111  C119  A    
O2    Zn2   S    
O8    Zn2   S    
C90   O50   A    
C13   H65   S    
C144  C150  A    
C59   C67   A    
C53   C61   A    
C146  H46   S    
C55   C63   A    
C56   C64   A    
C35   C43   A    
C90   O10   A    
C135  C143  A    
C85   O5    A    
C56   C75   A    
O31   Zn1   S    
O37   Zn1   S    
O50   Zn14  S    
C171  C179  A    
C1    C133  A    
O1    Zn11  S    
C169  C177  A    
C95   C103  A    
C96   H12   S    
O19   Zn15  S    
C100  C108  A    
C82   C98   A    
C31   H75   S    
C138  H38   S    
C9    C49   A    
C52   Cl8   S    
C163  O27   A    
C104  C112  A    
C80   C128  A    
O30   Zn4   S    
C84   C132  A    
C67   C90   S    
C7    H59   S    
C147  C151  A    
C6    C14   A    
C174  C192  A    
C11   H63   S    
O25   Zn13  S    
C158  O18   A    
C156  O16   A    
C182  C188  A    
C117  H25   S    
C46   Cl2   S    
C175  H7    S    
C156  O40   A    
C180  C186  A    
C42   C50   A    
C3    C137  A    
O44   Zn8   S    
C14   C22   A    
O39   Zn3   S    
C67   C75   A    
O7    Zn1   S    
C155  O15   A    
C3    C4    S    
C48   Cl4   S    
C128  C131  S    
C102  C156  S    
C83   H95   S    
C39   H83   S    
O33   Zn7   S    
C8    H60   S    
O15   Zn11  S    
C22   C30   A    
C34   H78   S    
C148  C152  A    
C139  H39   S    
C147  H47   S    
C68   C76   A    
C151  C163  S    
C104  C154  S    
O42   Zn6   S    
C85   O45   A    
C44   H88   S    
C138  C146  A    
C136  H36   S    
C38   C46   A    
C41   H85   S    
O17   Zn13  S    
C153  O13   A    
C81   H93   S    
C164  O28   A    
O3    Zn13  S    
C117  C125  A    
C25   C33   A    
C119  C127  A    
C160  O44   A    
C168  C188  S    
C29   H73   S    
C53   C74   A    
C18   C26   A    
C163  O25   A    
C109  C117  A    
C11   C19   A    
O11   Zn5   S    
C137  C145  A    
O2    Zn12  S    
C182  H54   S    
C42   H86   S    
C101  C109  A    
C26   C73   S    
C177  C185  A    
C103  C111  A    
C53   Cl9   S    
C107  C157  S    
C118  H26   S    
O36   Zn6   S    
C94   H10   S    
C57   C70   A    
O16   Zn12  S    
C59   C72   A    
C172  C180  A    
C3    C139  A    
C173  C181  A    
C83   C99   A    
C110  H18   S    
C176  H8    S    
C12   C52   A    
C164  O26   A    
C150  C162  S    
C157  O41   A    
C144  H44   S    
O52   Zn16  S    
O38   Zn2   S    
C5    H57   S    
C137  H37   S    
C14   H66   S    
C170  H2    S    
O34   Zn8   S    
C54   C62   A    
C60   C71   A    
C5    C45   A    
C56   Cl12  S    
C7    C47   A    
C8    C48   A    
C79   C95   A    
C183  C187  A    
C134  C142  A    
C54   C73   A    
O14   Zn10  S    
C91   O11   A    
C120  H28   S    
C68   C89   S    
C168  O34   A    
O3    Zn5   S    
O23   Zn11  S    
O9    Zn7   S    
C106  C114  A    
C140  H40   S    
C63   C86   S    
C102  C110  A    
C149  C161  S    
C27   C76   S    
C10   C50   A    
C112  H20   S    
C50   Cl6   S    
C116  C124  A    
C123  C131  A    
C10   H62   S    
C160  O20   A    
O2    Zn10  S    
C121  C129  A    
O28   Zn16  S    
C120  C128  A    
C58   C69   A    
C179  C185  A    
C99   C107  A    
C62   C87   S    
C133  C141  A    
C86   O6    A    
O21   Zn9   S    
C172  C190  A    
C142  C150  A    
C136  C144  A    
C43   C51   A    
C105  C159  S    
C123  H31   S    
O46   Zn10  S    
C106  C160  S    
C77   C93   A    
O10   Zn8   S    
C17   H69   S    
C189  C190  S    
C154  O38   A    
C111  H19   S    
C51   Cl7   S    
C176  C192  A    
C4    C138  A    
C28   C36   A    
C29   C37   A    
C121  H29   S    
C97   H13   S    
C178  H50   S    
C65   C92   S    
C165  O29   A    
O26   Zn14  S    
C113  H21   S    
O13   Zn9   S    
C140  C148  A    
C141  C149  A    
C139  C147  A    
C92   O12   A    
C134  H34   S    
C175  C191  A    
C60   Cl16  S    
C108  C158  S    
C154  O14   A    
C65   C73   A    
C171  C189  A    
C91   O51   A    
C1    C2    S    
C168  O36   A    
C143  H43   S    
O1    Zn1   S    
C127  C132  S    
C78   H90   S    
O29   Zn3   S    
C37   H81   S    
C125  C130  S    
C103  C153  S    
C36   H80   S    
C145  H45   S    
C30   H74   S    
C80   C96   A    
C19   C27   A    
O43   Zn7   S    
C55   Cl11  S    
C15   C23   A    
C16   C24   A    
O51   Zn15  S    
C119  H27   S    
C19   H71   S    
O32   Zn2   S    
C58   C66   A    
C180  H52   S    
C174  H6    S    
C13   C21   A    
C124  H32   S    
C11   C51   A    
C58   Cl14  S    
C183  H55   S    
O20   Zn16  S    
C165  C185  S    
C184  C188  A    
C88   O8    A    
O47   Zn11  S    
C61   C88   S    
C4    C140  A    
C173  H5    S    
C167  C187  S    
C113  C121  A    
C107  C115  A    
C145  C151  A    
C88   O48   A    
C146  C152  A    
C55   C76   A    
C9    C17   A    
C165  O31   A    
C166  O32   A    
C161  O21   A    
C82   C130  A    
C15   H67   S    
C54   Cl10  S    
O4    Zn6   S    
O24   Zn12  S    
C6    C46   A    
C33   H77   S    
C35   H79   S    
C152  C164  S    
C57   Cl13  S    
C80   H92   S    
C66   C91   S    
C170  C190  A    
C21   C70   S    
C77   H89   S    
C86   O46   A    
O1    Zn3   S    
O41   Zn5   S    
C1    C135  A    
C44   C52   A    
C81   C97   A    
C31   C39   A    
C32   H76   S    
C64   C72   A    
O12   Zn6   S    
C92   O52   A    
C36   C44   A    
C114  C122  A    
C142  H42   S    
C155  O39   A    
C159  O19   A    
O4    Zn14  S    
C118  C126  A    
C167  O35   A    
C122  C130  A    
C24   C71   S    
O3    Zn7   S    
C78   C126  A    
