data_mof_unit_51041.cif
_audit_creation_date              2012-12-10T17:28:35-0500
_audit_creation_method            fapswitch 2.2
_symmetry_space_group_name_H-M    P1
_symmetry_Int_Tables_number       1
_space_group_crystal_system       triclinic
_cell_length_a                    10.640101
_cell_length_b                    12.041444
_cell_length_c                    12.838608
_cell_angle_alpha                 93.064759
_cell_angle_beta                  90.153184
_cell_angle_gamma                 86.181476
_cell_volume                      1638.9106611

loop_
_atom_site_label
_atom_site_type_symbol
_atom_type_description
_atom_site_fract_x
_atom_site_fract_y
_atom_site_fract_z
_atom_type_partial_charge
C1    C     C_R   0.498247 0.521832 0.700277 0.854481
C2    C     C_R   0.453578 0.552176 0.131676 -0.296177
C3    C     C_R   0.528810 0.451577 0.974862 0.149605
C4    C     C_R   0.466407 0.546986 0.025062 0.156716
C5    C     C_R   0.378808 0.957069 0.406596 -0.328827
C6    C     C_R   0.621205 0.042927 0.593401 -0.329265
C7    C     C_R   0.390258 0.841000 0.414769 0.535167
C8    C     C_R   0.609734 0.159001 0.585245 0.536561
C9    C     C_R   0.553198 0.857398 0.539739 -0.100520
C10   C     C_R   0.446822 0.142596 0.460248 -0.099211
C11   C     C_R   0.544183 0.974826 0.533732 0.025698
C12   C     C_R   0.501356 0.478115 0.299737 0.850983
C13   C     C_R   0.455845 0.025167 0.466252 0.026074
C14   C     C_R   0.739059 0.500035 0.498695 0.876771
C15   C     C_R   0.260968 0.499962 0.501049 0.877270
C16   C     C_R   0.868815 0.494374 0.691534 -0.186378
C17   C     C_R   0.131223 0.506073 0.308212 -0.188884
C18   C     C_R   0.933326 0.493190 0.785930 -0.220763
C19   C     C_R   0.066357 0.515442 0.214456 -0.188333
C20   C     C_R   0.064092 0.493419 0.787660 0.554751
C21   C     C_R   0.935271 0.523757 0.213592 0.524461
C22   C     C_R   0.129891 0.496896 0.693537 -0.268605
C23   C     C_R   0.504129 0.464587 0.188526 -0.065027
C24   C     C_R   0.869474 0.515636 0.307283 -0.280822
C25   C     C_R   0.065400 0.496990 0.596628 0.001640
C26   C     C_R   0.934471 0.506857 0.403449 0.006448
C27   C     C_R   0.934297 0.496470 0.595729 0.082339
C28   C     C_R   0.065754 0.504204 0.404064 0.080454
C29   C     C_R   0.128630 0.499607 0.500590 -0.121824
C30   C     C_R   0.871427 0.500730 0.499172 -0.122721
C31   C     C_3   0.802148 0.639133 0.122009 0.088716
C32   C     C_3   0.774433 0.671126 0.010327 -0.317027
C33   C     C_3   0.696762 0.782168 0.008178 -0.939255
C34   C     C_R   0.493430 0.534882 0.811493 -0.070830
C35   C     C_3   0.192776 0.399674 0.901782 0.071682
C36   C     C_3   0.105801 0.316802 0.945465 -0.366765
C37   C     C_3   0.181140 0.213994 0.982364 -0.922775
C38   C     C_R   0.418931 0.636069 0.967997 -0.180691
C39   C     C_R   0.575867 0.362293 0.031783 -0.185843
C40   C     C_R   0.433041 0.630235 0.860738 -0.173003
C41   C     C_R   0.563371 0.368771 0.139143 -0.184563
C42   C     C_R   0.542527 0.446739 0.868345 -0.306509
Cl1   Cl    Cl    0.710820 0.238630 0.661722 -0.652741
Cl2   Cl    Cl    0.289091 0.761380 0.338383 -0.650248
H1    H     H_    0.309735 0.993568 0.354036 0.178995
H2    H     H_    0.590167 0.373634 0.829661 0.213670
H3    H     H_    0.603078 0.300941 0.183579 0.164708
H4    H     H_    0.393923 0.698252 0.816257 0.165769
H5    H     H_    0.370942 0.709397 0.006107 0.156579
H6    H     H_    0.623386 0.288776 0.993591 0.155381
H7    H     H_    0.379232 0.181999 0.408326 0.149159
H8    H     H_    0.620786 0.817991 0.591662 0.149276
H9    H     H_    0.853902 0.707233 0.161673 0.147406
H10   H     H_    0.711461 0.631985 0.163210 0.158373
H11   H     H_    0.864656 0.677816 0.968385 0.237514
H12   H     H_    0.690262 0.006429 0.645975 0.179004
H13   H     H_    0.722108 0.605311 0.969102 0.235295
H14   H     H_    0.607616 0.778836 0.052332 0.268514
H15   H     H_    0.673551 0.800442 0.926205 0.268344
H16   H     H_    0.751038 0.850458 0.043152 0.267000
H17   H     H_    0.264865 0.417882 0.961671 0.187495
H18   H     H_    0.244823 0.361898 0.831901 0.138785
H19   H     H_    0.051029 0.357676 0.012184 0.255160
H20   H     H_    0.038505 0.290209 0.884192 0.232467
H21   H     H_    0.235990 0.171251 0.916619 0.268969
H22   H     H_    0.115799 0.155142 0.012613 0.272218
H23   H     H_    0.767304 0.494896 0.694713 0.165356
H24   H     H_    0.246695 0.238068 0.045916 0.264112
H25   H     H_    0.232907 0.501404 0.304746 0.161467
H26   H     H_    0.881416 0.492051 0.858169 0.168771
H27   H     H_    0.118359 0.518618 0.142376 0.175980
H28   H     H_    0.230973 0.501073 0.697508 0.134575
H29   H     H_    0.767893 0.517110 0.303870 0.135475
H30   H     H_    0.406427 0.625432 0.170475 0.209948
N1    N     N_R   0.523130 0.207800 0.519340 -0.130680
N2    N     N_R   0.476870 0.792200 0.480660 -0.130801
O1    O     O_R   0.506170 0.421700 0.658830 -0.585974
O2    O     O_3   0.125291 0.501730 0.882638 -0.647571
O3    O     O_R   0.493830 0.578300 0.341170 -0.589426
O4    O     O_R   0.491330 0.609310 0.646410 -0.633477
O5    O     O_R   0.508670 0.390690 0.353590 -0.632767
O6    O     O_R   0.690650 0.406190 0.506220 -0.560276
O7    O     O_R   0.309350 0.593810 0.493780 -0.559867
O8    O     O_R   0.675800 0.593810 0.493800 -0.632359
O9    O     O_R   0.324200 0.406190 0.506200 -0.630835
O10   O     O_3   0.873377 0.535563 0.119495 -0.651949
Zn1   Zn    Zn3+2 0.509910 0.374730 0.508290 0.985112
Zn2   Zn    Zn3+2 0.490090 0.625270 0.491710 0.982899

loop_
_geom_bond_atom_site_label_1
_geom_bond_atom_site_label_2
_ccdc_geom_bond_type
C18   H26   S    
C12   O3    A    
C3    C42   A    
C17   H25   S    
C33   H14   S    
C1    O1    A    
C19   H27   S    
C35   C36   S    
C34   C42   A    
C8    Cl1   S    
C14   O8    A    
C39   C41   A    
C38   H5    S    
C12   C23   S    
C34   C40   A    
C36   C37   S    
C19   C21   A    
C24   C26   A    
C24   H29   S    
O6    Zn1   S    
C37   H24   S    
C42   H2    S    
C22   C25   A    
C37   H21   S    
C9    N2    A    
C36   H19   S    
N2    Zn2   S    
C32   H11   S    
C5    C13   A    
C2    H30   S    
C15   O9    A    
C16   C27   A    
O7    Zn2   S    
C3    C39   A    
C33   H15   S    
C31   O10   S    
C27   C30   A    
C9    H8    S    
C32   H13   S    
C14   C30   S    
C10   H7    S    
C22   H28   S    
O3    Zn2   S    
C1    C34   S    
C15   C29   S    
O9    Zn1   S    
C25   C29   A    
C6    H12   S    
C6    C11   A    
C5    C7    A    
C6    C8    A    
C5    H1    S    
C8    N1    A    
C2    C4    A    
C10   N1    A    
C31   C32   S    
C37   H22   S    
C41   H3    S    
C35   H17   S    
C16   H23   S    
C7    Cl2   S    
C31   H9    S    
C9    C11   A    
O5    Zn1   S    
N1    Zn1   S    
C20   C22   A    
C26   C30   A    
C33   H16   S    
C14   O6    A    
C3    C4    A    
C40   H4    S    
C21   O10   S    
C28   C29   A    
C17   C28   A    
O8    Zn2   S    
C4    C38   A    
C10   C13   A    
C15   O7    A    
C7    N2    A    
C25   C27   A    
C35   O2    S    
C26   C28   A    
C23   C41   A    
C20   O2    S    
C32   C33   S    
O4    Zn2   S    
C38   C40   A    
C11   C13   A    
C17   C19   A    
C12   O5    A    
C35   H18   S    
C18   C20   A    
C31   H10   S    
C39   H6    S    
O1    Zn1   S    
C16   C18   A    
C21   C24   A    
C2    C23   A    
C1    O4    A    
C36   H20   S    
