data_mof_unit_13231.cif
_audit_creation_date              2013-03-05T16:09:23-0500
_audit_creation_method            fapswitch 2.2
_symmetry_space_group_name_H-M    P1
_symmetry_Int_Tables_number       1
_space_group_crystal_system       triclinic
_cell_length_a                    11.07998
_cell_length_b                    12.67898
_cell_length_c                    13.899395
_cell_angle_alpha                 97.962963
_cell_angle_beta                  90.481445
_cell_angle_gamma                 93.89095
_cell_volume                      1929.02838989

loop_
_atom_site_label
_atom_site_type_symbol
_atom_site_description
_atom_site_fract_x
_atom_site_fract_y
_atom_site_fract_z
_atom_type_partial_charge
O1    O     O_R   0.492240 0.399110 0.356330 -0.551009
O2    O     O_R   0.505790 0.575900 0.366540 -0.577038
C1    C     C_R   0.494108 0.483392 0.315860 0.833589
O3    O     O_R   0.310920 0.411610 0.494880 -0.554449
O4    O     O_R   0.324460 0.588390 0.505090 -0.483994
C2    C     C_R   0.259620 0.499473 0.499590 0.867871
Cu1   Cu    Cu3+1 0.491980 0.395330 0.493960 1.071988
Cu2   Cu    Cu3+1 0.508020 0.604670 0.506040 1.041766
O5    O     O_R   0.494210 0.424100 0.633460 -0.575767
O6    O     O_R   0.507760 0.600890 0.643670 -0.562792
O7    O     O_R   0.675540 0.411610 0.494910 -0.526565
O8    O     O_R   0.689080 0.588390 0.505120 -0.647248
C3    C     C_R   0.494320 0.516646 0.683942 0.787958
C4    C     C_R   0.741814 0.501356 0.501761 0.839743
C5    C     C_3   0.066798 0.391989 0.420802 0.179815
C6    C     C_3   0.918553 0.391569 0.429845 0.416755
H1    H     H_    0.090210 0.406216 0.612584 0.235448
C7    C     C_3   0.073233 0.485765 0.597574 -0.438380
C8    C     C_3   0.088358 0.615939 0.465609 0.454617
C9    C     C_3   0.122675 0.498330 0.493623 -0.272558
C10   C     C_3   0.880813 0.504732 0.499050 -0.211899
C11   C     C_3   0.935969 0.505982 0.612529 0.154479
C12   C     C_3   0.939480 0.614986 0.451925 -0.001238
H2    H     H_    0.130608 0.527625 0.658220 0.201708
C13   C     C_1   0.490877 0.526557 0.786956 -0.108180
C14   C     C_2   0.480550 0.544230 0.977740 0.201207
C15   C     C_2   0.484061 0.455442 0.021875 0.188045
C16   C     C_1   0.491533 0.465196 0.125916 0.034896
C17   C     C_1   0.486868 0.535227 0.873778 0.050410
C18   C     C_1   0.493973 0.473755 0.212842 -0.076443
N1    N     N_1   0.479930 0.238040 0.484880 -0.139646
C19   C     C_2   0.468878 0.027001 0.470035 -0.118616
C20   C     C_2   0.534737 0.972798 0.529213 0.217866
C21   C     C_1   0.525279 0.854925 0.520353 0.190301
C22   C     C_1   0.475876 0.145071 0.479703 0.382831
N2    N     N_1   0.520070 0.761960 0.515120 -0.138432
N3    N     N_R   0.104306 0.285666 0.444089 0.177180
O9    O     O_R   0.165403 0.272117 0.521219 -0.337564
O10   O     O_R   0.058445 0.198169 0.392513 -0.334920
C23   C     C_3   0.895488 0.732298 0.497409 -0.293870
C24   C     C_3   0.925250 0.829820 0.440828 -0.415107
C25   C     C_3   0.918151 0.936966 0.505853 -0.619702
H3    H     H_    0.826568 0.942482 0.536896 0.261839
H4    H     H_    0.985998 0.946245 0.566136 0.282876
H5    H     H_    0.935843 0.003371 0.462337 0.291094
H6    H     H_    0.014794 0.827696 0.406277 0.274081
H7    H     H_    0.860062 0.831128 0.380425 0.210627
H8    H     H_    0.798438 0.735419 0.508030 0.211598
H9    H     H_    0.927843 0.760213 0.570485 0.218558
C26   C     C_3   0.933464 0.614829 0.685432 -0.358249
C27   C     C_3   0.811222 0.655166 0.721120 -0.449457
C28   C     C_3   0.827788 0.765656 0.781409 -0.707019
H10   H     H_    0.888062 0.763608 0.845297 0.258505
H11   H     H_    0.867143 0.825146 0.736772 0.260364
H12   H     H_    0.738544 0.791226 0.807764 0.282263
H13   H     H_    0.749751 0.661541 0.660421 0.261119
H14   H     H_    0.767834 0.600976 0.768715 0.228402
H15   H     H_    0.984523 0.606948 0.753131 0.196798
H16   H     H_    0.991616 0.679164 0.666444 0.243865
N4    N     N_R   0.482979 0.349606 0.967778 0.109745
O11   O     O_R   0.532106 0.274219 0.005742 -0.301671
O12   O     O_R   0.416830 0.323826 0.889127 -0.349124
N5    N     N_R   0.475695 0.649714 0.031691 0.111107
O13   O     O_R   0.518337 0.732559 0.993803 -0.322018
O14   O     O_R   0.413506 0.665040 0.110840 -0.341592
N6    N     N_R   0.615425 0.028765 0.604153 0.119662
O15   O     O_R   0.642945 0.982713 0.678706 -0.341289
O16   O     O_R   0.674680 0.117978 0.592304 -0.341875
C29   C     C_3   0.380983 0.964112 0.394866 -0.396492
C30   C     C_3   0.315816 0.032748 0.330587 -0.381653
C31   C     C_3   0.228716 0.963966 0.258281 -0.653330
H17   H     H_    0.278750 0.905778 0.209457 0.284053
H18   H     H_    0.158965 0.920039 0.297348 0.259597
H19   H     H_    0.182684 0.015802 0.213443 0.237984
H20   H     H_    0.263355 0.091287 0.376875 0.263887
H21   H     H_    0.383340 0.077067 0.289673 0.234728
H22   H     H_    0.431312 0.904987 0.347097 0.234680
H23   H     H_    0.311572 0.919927 0.434064 0.275276
C32   C     C_3   0.121214 0.399216 0.315061 -0.338873
C33   C     C_3   0.166667 0.299495 0.251543 -0.296925
C34   C     C_3   0.203933 0.325427 0.151312 -0.771011
H24   H     H_    0.122274 0.333803 0.106809 0.274971
H25   H     H_    0.260729 0.401295 0.157665 0.261720
H26   H     H_    0.255271 0.260163 0.113454 0.271057
H27   H     H_    0.246083 0.271632 0.287855 0.223726
H28   H     H_    0.096540 0.232735 0.237226 0.296737
H29   H     H_    0.058488 0.432649 0.268229 0.248152
H30   H     H_    0.205189 0.451915 0.323389 0.199508
N7    N     N_R   0.863240 0.374367 0.330007 0.078797
O17   O     O_R   0.899350 0.296844 0.268063 -0.311081
O18   O     O_R   0.751176 0.393142 0.317566 -0.365819
N8    N     N_R   0.867000 0.295717 0.472999 0.170464
O19   O     O_R   0.921653 0.254213 0.539950 -0.333039
O20   O     O_R   0.775509 0.236820 0.430232 -0.238703
C35   C     C_3   0.887948 0.420416 0.682717 -0.352897
C36   C     C_3   0.754190 0.384086 0.683537 -0.330856
C37   C     C_3   0.718705 0.339012 0.776692 -0.688686
H31   H     H_    0.774243 0.271579 0.786979 0.285434
H32   H     H_    0.731149 0.401992 0.840708 0.225100
H33   H     H_    0.622042 0.309114 0.771462 0.295235
H34   H     H_    0.702846 0.453199 0.677971 0.194811
H35   H     H_    0.730967 0.320360 0.622676 0.315004
H36   H     H_    0.940312 0.349836 0.683015 0.246510
H37   H     H_    0.911402 0.452675 0.759533 0.182524
N9    N     N_R   0.132867 0.703523 0.546741 0.126306
O21   O     O_R   0.192678 0.686311 0.623311 -0.378909
O22   O     O_R   0.140432 0.802826 0.532246 -0.355563
N10   N     N_R   0.157828 0.644115 0.377779 0.081706
O23   O     O_R   0.252132 0.712162 0.389259 -0.295757
O24   O     O_R   0.130544 0.606856 0.287997 -0.454575
C38   C     C_3   0.900210 0.611874 0.340427 -0.322893
C39   C     C_3   0.768789 0.630435 0.312325 -0.344201
C40   C     C_3   0.757350 0.645058 0.205288 -0.791827
H38   H     H_    0.815193 0.715695 0.190158 0.260039
H39   H     H_    0.784226 0.572826 0.157904 0.270139
H40   H     H_    0.662164 0.658265 0.187686 0.276912
H41   H     H_    0.710221 0.562211 0.323317 0.272631
H42   H     H_    0.730213 0.698973 0.356000 0.225687
H43   H     H_    0.951796 0.677057 0.310800 0.249200
H44   H     H_    0.925248 0.540927 0.294250 0.227246

loop_
_geom_bond_atom_site_label_1
_geom_bond_atom_site_label_2
_geom_bond_distance
_ccdc_geom_bond_type
N6    O16   1.300102 A    
N5    O14   1.301744 A    
C24   C25   1.531049 S    
C6    C10   1.692506 S    
C36   H35   1.101547 S    
C11   C35   1.623401 S    
C29   H22   1.113024 S    
C35   C36   1.522437 S    
C34   H26   1.110609 S    
C32   H29   1.093273 S    
C37   H31   1.110813 S    
Cu1   Cu2   2.629953 S    
C35   H37   1.111186 S    
Cu1   O7    2.030051 S    
N9    O22   1.299656 A    
C14   C15   1.357201 D    
N3    O9    1.300653 A    
C7    H2    1.103454 S    
C26   H16   1.068344 S    
C4    C10   1.538710 S    
N4    O12   1.301591 A    
C15   N4    1.443711 S    
C39   H41   1.074609 S    
O7    C4    1.303263 A    
C5    C6    1.648120 S    
N10   O23   1.303200 A    
C38   H43   1.101565 S    
C27   H13   1.094951 S    
Cu2   N2    1.976040 S    
O5    C3    1.280963 A    
C32   H30   1.103615 S    
C33   H28   1.105112 S    
C37   H32   1.111092 S    
C5    N3    1.513090 S    
C8    C9    1.659847 S    
C28   H11   1.110655 S    
C12   C23   1.640931 S    
C24   H6    1.106235 S    
C30   C31   1.525964 S    
C27   H14   1.107823 S    
N7    O18   1.294695 A    
C21   N2    1.168295 T    
C28   H12   1.110742 S    
C11   C26   1.596986 S    
C40   H40   1.109588 S    
C8    N10   1.519780 S    
N6    O15   1.301613 A    
C6    N7    1.494163 S    
O1    Cu1   1.920221 S    
C10   C11   1.684378 S    
C3    C13   1.420956 S    
C29   H23   1.111436 S    
C25   H4    1.109563 S    
O3    Cu1   2.030584 S    
C39   C40   1.529802 S    
C34   H25   1.105669 S    
C35   H36   1.099502 S    
C20   N6    1.442661 S    
C26   C27   1.541804 S    
C13   C17   1.197979 T    
C5    C9    1.650373 S    
C5    C32   1.605226 S    
Cu1   N1    1.976043 S    
C27   C28   1.528304 S    
C26   H15   1.113657 S    
C19   C22   1.481027 S    
O3    C2    1.278575 A    
C31   H18   1.111194 S    
C34   H24   1.111017 S    
C32   C33   1.554440 S    
N4    O11   1.301481 A    
O1    C1    1.273780 A    
C25   H5    1.110777 S    
C1    C18   1.420109 S    
C8    C12   1.657939 S    
C14   N5    1.444478 S    
C33   H27   1.112638 S    
C31   H19   1.110915 S    
Cu2   O8    2.030584 S    
C36   C37   1.529957 S    
N8    O20   1.304902 A    
H1    C7    1.086085 S    
C24   H7    1.105494 S    
C8    N9    1.522312 S    
C23   C24   1.573071 S    
O8    C4    1.278661 A    
C6    N8    1.508814 S    
C10   C12   1.715594 S    
C30   H21   1.112443 S    
N1    C22   1.168721 T    
C25   H3    1.108778 S    
C30   H20   1.111403 S    
C37   H33   1.109965 S    
C2    C9    1.517901 S    
C28   H10   1.110854 S    
C40   H38   1.110689 S    
C23   H8    1.089260 S    
C38   C39   1.546196 S    
C7    C11   1.570178 S    
O2    Cu2   1.922306 S    
C33   C34   1.528915 S    
O6    C3    1.273526 A    
O4    Cu2   2.030052 S    
N10   O24   1.297225 A    
C19   C29   1.523983 S    
C12   C38   1.600618 S    
N9    O21   1.300616 A    
C19   C20   1.376934 D    
C16   C18   1.197921 T    
O2    C1    1.279694 A    
C31   H17   1.111433 S    
N3    O10   1.303773 A    
C39   H42   1.102254 S    
O4    C2    1.287719 A    
N8    O19   1.295776 A    
C20   C21   1.478927 S    
C7    C9    1.574271 S    
C29   C30   1.538428 S    
N5    O13   1.301524 A    
Cu1   O5    1.922307 S    
C14   C17   1.436340 S    
Cu2   O6    1.920223 S    
C15   C16   1.435421 S    
C38   H44   1.083961 S    
N7    O17   1.300842 A    
C36   H34   1.087743 S    
C23   H9    1.078197 S    
C40   H39   1.111024 S    
