data_mof_unit_33233.cif
_audit_creation_date              2012-12-11T18:04:52-0500
_audit_creation_method            fapswitch 2.2
_symmetry_space_group_name_H-M    P1
_symmetry_Int_Tables_number       1
_space_group_crystal_system       triclinic
_cell_length_a                    8.328008
_cell_length_b                    12.818445
_cell_length_c                    22.704815
_cell_angle_alpha                 96.699109
_cell_angle_beta                  88.510559
_cell_angle_gamma                 98.982004
_cell_volume                      2377.64475636

loop_
_atom_site_label
_atom_site_type_symbol
_atom_type_description
_atom_site_fract_x
_atom_site_fract_y
_atom_site_fract_z
_atom_type_partial_charge
Ba1   Ba    Ba6+2 0.856210 0.551220 0.472190 1.759608
Ba2   Ba    Ba6+2 0.333620 0.448870 0.527810 1.721039
C1    C     C_3   0.649605 0.907188 0.288612 -0.416721
C2    C     C_R   0.091613 0.594725 0.942080 -0.028324
C3    C     C_R   0.043930 0.593460 0.882509 0.588538
C4    C     C_3   0.187479 0.823307 0.309110 0.735214
C5    C     C_R   0.949335 0.405696 0.876282 0.587783
C6    C     C_R   0.996205 0.404241 0.935753 -0.025333
C7    C     C_R   0.067508 0.499468 0.968785 -0.049545
C8    C     C_R   0.162464 0.689218 0.975692 -0.070204
C9    C     C_R   0.208342 0.689268 0.034538 -0.068294
C10   C     C_R   0.185566 0.594750 0.061804 -0.034996
C11   C     C_R   0.115041 0.499468 0.028752 -0.052282
C12   C     C_3   0.669102 0.818272 0.325379 0.357089
C13   C     C_R   0.973916 0.309711 0.962988 -0.075217
C14   C     C_R   0.021212 0.309672 0.021728 -0.070868
C15   C     C_R   0.092062 0.404214 0.055394 -0.020284
C16   C     C_3   0.229732 0.905007 0.265533 -0.319509
C17   C     C_R   0.141043 0.405457 0.114898 0.574250
C18   C     C_R   0.231329 0.593720 0.121375 0.634686
C19   C     C_2   0.766417 0.477434 0.772593 -0.067683
C20   C     C_3   0.718805 0.488233 0.709346 -0.057593
C21   C     C_1   0.005364 0.526915 0.686264 0.029558
C22   C     C_2   0.050349 0.529211 0.742251 -0.094306
C23   C     C_3   0.552805 0.289531 0.340596 0.322888
C24   C     C_2   0.925160 0.500341 0.788911 0.216098
C25   C     C_R   0.416095 0.546655 0.228457 -0.095514
C26   C     C_R   0.460079 0.549893 0.288147 -0.037730
C27   C     C_R   0.192660 0.461104 0.311143 -0.019727
C28   C     C_3   0.216206 0.774288 0.591732 0.304226
C29   C     C_R   0.145729 0.457328 0.251623 -0.023550
C30   C     C_R   0.257653 0.500117 0.209181 0.265533
C31   C     C_2   0.861002 0.480015 0.667784 -0.283256
C32   C     C_R   0.768354 0.177502 0.513192 -0.253901
C33   C     C_R   0.443922 0.809143 0.468027 0.066058
C34   C     C_3   0.644273 0.255856 0.284456 -0.330605
C35   C     C_R   0.410617 0.987612 0.452569 -0.159805
C36   C     C_R   0.351819 0.879449 0.447453 -0.053595
C37   C     C_R   0.582452 0.846817 0.502930 0.061596
C38   C     C_R   0.643823 0.958454 0.508600 -0.077109
C39   C     C_R   0.558057 0.028739 0.481529 -0.060093
C40   C     C_3   0.230036 0.894483 0.603440 0.191489
C41   C     C_R   0.620330 0.138973 0.485450 0.035187
C42   C     C_R   0.854808 0.110175 0.538481 0.020751
C43   C     C_R   0.789900 0.002356 0.538798 -0.062106
C44   C     C_3   0.117600 0.213785 0.359690 0.684406
C45   C     C_3   0.145308 0.211676 0.681926 0.347591
C46   C     C_3   0.147408 0.180186 0.293692 -0.379460
C47   C     C_3   0.733055 0.708819 0.649370 0.316638
C48   C     C_3   0.774747 0.755897 0.712832 -0.336687
C49   C     C_3   0.934208 0.063720 0.380273 0.204926
C50   C     C_3   0.166023 0.174362 0.742078 -0.325728
C51   C     C_3   0.644504 0.211932 0.678982 0.328594
C52   C     C_3   0.690537 0.131658 0.717287 -0.284384
C53   C     C_R   0.349689 0.504975 0.328008 -0.226221
Cl1   Cl    Cl    0.392143 0.946313 0.652877 -0.734077
Cl2   Cl    Cl    0.079551 0.706233 0.270879 -0.629914
Cl3   Cl    Cl    0.382565 0.672646 0.449541 -0.699125
H1    H     H_    0.761240 0.847511 0.360254 0.053695
H2    H     H_    0.611721 0.975354 0.317450 0.064468
H3    H     H_    0.859622 0.831918 0.712736 0.141313
H4    H     H_    0.834449 0.700875 0.735834 0.070380
H5    H     H_    0.662379 0.771213 0.737548 0.140704
H6    H     H_    0.551225 0.794114 0.347433 -0.030271
H7    H     H_    0.556779 0.877469 0.254140 0.137670
H8    H     H_    0.442508 0.316794 0.326426 -0.108341
H9    H     H_    0.625215 0.358012 0.366100 0.087167
H10   H     H_    0.563721 0.194926 0.255422 0.107124
H11   H     H_    0.684204 0.325600 0.259953 0.085994
H12   H     H_    0.114614 0.916805 0.622817 0.088842
H13   H     H_    0.752172 0.221425 0.295538 0.124862
H14   H     H_    0.765260 0.933655 0.265532 0.136521
H15   H     H_    0.286774 0.869663 0.224827 0.142933
H16   H     H_    0.266968 0.227877 0.661109 0.119445
H17   H     H_    0.088410 0.285189 0.688763 0.026914
H18   H     H_    0.229251 0.103701 0.736744 0.171847
H19   H     H_    0.239306 0.238842 0.771354 0.121548
H20   H     H_    0.045937 0.153119 0.763396 0.124021
H21   H     H_    0.759029 0.261761 0.666379 -0.061537
H22   H     H_    0.583395 0.169019 0.638234 0.069223
H23   H     H_    0.254616 0.930025 0.561466 0.036959
H24   H     H_    0.769594 0.173658 0.753944 0.137387
H25   H     H_    0.755939 0.073519 0.690250 0.122488
H26   H     H_    0.580238 0.088347 0.737042 0.180098
H27   H     H_    0.001774 0.235014 0.040761 0.124227
H28   H     H_    0.919778 0.235109 0.938885 0.123467
H29   H     H_    0.262144 0.763941 0.058660 0.122602
H30   H     H_    0.504126 0.580648 0.197341 0.107451
H31   H     H_    0.182566 0.763810 0.956591 0.126426
H32   H     H_    0.176841 0.552717 0.754667 0.118675
H33   H     H_    0.672315 0.459486 0.805502 0.094481
H34   H     H_    0.230088 0.261955 0.378026 0.031847
H35   H     H_    0.022910 0.422973 0.238666 0.102918
H36   H     H_    0.388472 0.501240 0.372591 0.112087
H37   H     H_    0.302175 0.803667 0.325095 -0.101772
H38   H     H_    0.845234 0.435654 0.623982 0.066177
H39   H     H_    0.337599 0.038665 0.434616 0.151771
H40   H     H_    0.856909 0.954054 0.561679 0.103314
H41   H     H_    0.818559 0.260871 0.514306 0.069680
H42   H     H_    0.118632 0.934607 0.252716 0.126388
H43   H     H_    0.317305 0.972137 0.286578 0.053935
H44   H     H_    0.334577 0.752254 0.576398 0.033743
H45   H     H_    0.036730 0.133457 0.272156 0.097065
H46   H     H_    0.124635 0.746786 0.556510 0.037403
H47   H     H_    0.905159 0.008922 0.414383 0.086119
H48   H     H_    0.832715 0.110740 0.381766 0.024367
H49   H     H_    0.938612 0.015463 0.336932 0.050060
H50   H     H_    0.248626 0.133463 0.288705 0.112908
H51   H     H_    0.183035 0.250903 0.269884 0.056889
H52   H     H_    0.845570 0.688133 0.627066 -0.006236
H53   H     H_    0.640143 0.636753 0.649527 0.017404
N1    N     N_R   0.973120 0.499708 0.850289 -0.427777
N2    N     N_R   0.209273 0.499700 0.147591 -0.425677
O1    O     O_2   0.890290 0.440320 0.360790 -0.456900
O2    O     O_2   0.192240 0.116196 0.543774 -0.461199
O3    O     O_3   0.046160 0.132064 0.646305 -0.644587
O4    O     O_3   0.130840 0.441440 0.431840 -0.437076
O5    O     O_3   0.574800 0.630800 0.528960 -0.418540
O6    O     O_2   0.344900 0.234690 0.472540 -0.428169
O7    O     O_3   0.509120 0.201301 0.372299 -0.660428
O8    O     O_2   0.379292 0.427468 0.706296 -0.507824
O9    O     O_3   0.536762 0.271258 0.711474 -0.605022
O10   O     O_2   0.064110 0.676149 0.859496 -0.585553
O11   O     O_2   0.888638 0.323073 0.847501 -0.608744
O12   O     O_3   0.669433 0.784460 0.621407 -0.596639
O13   O     O_2   0.124657 0.322216 0.137298 -0.606644
O14   O     O_2   0.289534 0.677057 0.150052 -0.577199
O15   O     O_3   0.672400 0.637930 0.395560 -0.440009
O16   O     O_2   0.789605 0.547960 0.293117 -0.435652
O17   O     O_3   0.988260 0.272296 0.366754 -0.664833
O18   O     O_3   0.720829 0.735052 0.287698 -0.532043
O19   O     O_2   0.844800 0.765340 0.527490 -0.501286
O20   O     O_3   0.090520 0.693800 0.424220 -0.380161
O21   O     O_2   0.025957 0.883305 0.467413 -0.510993
O22   O     O_3   0.087748 0.125504 0.392873 -0.640037
O23   O     O_3   0.088094 0.864102 0.354347 -0.613547
O24   O     O_2   0.299410 0.559720 0.639240 -0.454811
O25   O     O_3   0.058870 0.558650 0.568170 -0.488403
O26   O     O_3   0.517310 0.362160 0.604450 -0.481294
O27   O     O_3   0.170261 0.730509 0.644415 -0.611824
O28   O     O_3   0.614910 0.369290 0.471050 -0.481188
O29   O     O_3   0.099190 0.306290 0.575790 -0.492016
P1    P     P_3+3 0.057140 0.408270 0.369700 1.005176
P2    P     P_3+3 0.667360 0.749400 0.544670 1.047027
P3    P     P_3+3 0.141054 0.831055 0.423060 1.023962
P4    P     P_3+3 0.132580 0.591820 0.630310 1.016019
P5    P     P_3+3 0.050110 0.167138 0.573961 0.965010
P6    P     P_3+3 0.659109 0.615247 0.317239 1.055827
P7    P     P_3+3 0.525679 0.236064 0.449474 0.955805
P8    P     P_3+3 0.539183 0.391263 0.681723 0.942401

loop_
_geom_bond_atom_site_label_1
_geom_bond_atom_site_label_2
_ccdc_geom_bond_type
O19   P2    D    
C19   C24   D    
C20   P8    S    
O6    P7    D    
Ba2   P4    S    
C23   H9    S    
Ba1   O15   S    
C5    O11   D    
Ba1   O19   S    
C35   H39   S    
Ba2   O5    S    
O28   P7    S    
C5    C6    A    
C51   C52   S    
C5    N1    Am   
C12   H1    S    
O7    P7    S    
C33   Cl3   S    
Ba2   O26   S    
O9    P8    S    
O4    P1    S    
C22   C24   S    
O5    P2    S    
C51   O9    S    
C18   N2    Am   
C50   H20   S    
C44   H34   S    
C17   N2    Am   
O12   P2    S    
C13   C14   A    
C27   P1    S    
O2    P5    D    
C40   H12   S    
C42   P5    S    
O8    P8    D    
Ba1   Ba2   S    
O21   P3    D    
C7    C11   A    
O16   P6    D    
C4    O23   S    
C40   Cl1   S    
C44   O22   S    
C49   O22   S    
C26   C53   A    
C8    H31   S    
C9    H29   S    
C14   C15   A    
C21   C31   D    
C21   C22   D    
C30   N2    S    
O23   P3    S    
C41   P7    S    
C34   H13   S    
C47   H53   S    
C1    H2    S    
C46   H51   S    
C19   C20   S    
C48   H5    S    
C39   C41   A    
C4    Cl2   S    
C10   C18   A    
C1    H7    S    
C40   H23   S    
C16   H42   S    
C53   H36   S    
Ba1   O20   S    
C52   H26   S    
C52   H25   S    
Ba2   O4    S    
C12   O18   S    
C38   C43   A    
C4    C16   S    
C21   P4    S    
C44   C46   S    
C26   P6    S    
C42   C43   A    
C28   O27   S    
C23   H8    S    
Ba2   O25   S    
O24   P4    D    
C33   C36   A    
C32   C42   A    
C18   O14   D    
O27   P4    S    
C37   C38   A    
C51   H22   S    
O15   P6    S    
C27   C53   A    
C29   H35   S    
C46   H45   S    
C16   H43   S    
C33   C37   A    
C23   O7    S    
C36   P3    S    
C35   C36   A    
Ba1   P1    S    
C29   C30   A    
C49   H47   S    
C12   H6    S    
C28   H44   S    
C32   H41   S    
C6    C7    A    
O18   P6    S    
Ba1   O4    S    
C37   P2    S    
O17   P1    S    
C1    C12   S    
C13   H28   S    
C38   C39   A    
C4    H37   S    
C6    C13   A    
C14   H27   S    
C48   H4    S    
O20   P3    S    
Ba1   O1    S    
C2    C8    A    
C50   H19   S    
C31   H38   S    
C24   N1    S    
C52   H24   S    
C34   H11   S    
C19   H33   S    
C48   H3    S    
C20   C31   S    
C17   O13   D    
C51   H21   S    
C25   C30   A    
Ba2   O24   S    
O29   P5    S    
C32   C41   A    
C45   H16   S    
C2    C3    A    
C50   H18   S    
C22   H32   S    
C44   O17   S    
O3    P5    S    
Ba2   O6    S    
C34   H10   S    
C45   C50   S    
C3    N1    Am   
C16   H15   S    
C47   O12   S    
C3    O10   D    
O26   P8    S    
C11   C15   A    
C43   H40   S    
O1    P1    D    
C1    H14   S    
C45   H17   S    
C27   C29   A    
Ba1   P2    S    
C46   H50   S    
O25   P4    S    
C49   H48   S    
Ba2   O29   S    
C45   O3    S    
C15   C17   A    
Ba1   O5    S    
C35   C39   A    
C25   H30   S    
Ba1   O28   S    
C8    C9    A    
C23   C34   S    
C10   C11   A    
C49   H49   S    
C47   C48   S    
C28   H46   S    
C25   C26   A    
Ba2   O28   S    
C28   C40   S    
C2    C7    A    
Ba1   O25   S    
C9    C10   A    
C47   H52   S    
