data_mof_unit_41430.cif
_audit_creation_date              2012-12-11T18:13:22-0500
_audit_creation_method            fapswitch 2.2
_symmetry_space_group_name_H-M    P1
_symmetry_Int_Tables_number       1
_space_group_crystal_system       triclinic
_cell_length_a                    8.192047
_cell_length_b                    12.658698
_cell_length_c                    18.697544
_cell_angle_alpha                 99.554201
_cell_angle_beta                  91.101826
_cell_angle_gamma                 98.421416
_cell_volume                      1889.55120286

loop_
_atom_site_label
_atom_site_type_symbol
_atom_type_description
_atom_site_fract_x
_atom_site_fract_y
_atom_site_fract_z
_atom_type_partial_charge
Ba1   Ba    Ba6+2 0.852780 0.548340 0.465070 1.637960
Ba2   Ba    Ba6+2 0.337060 0.451750 0.534940 1.639586
C1    C     C_3   0.577199 0.899623 0.252933 -0.427629
C2    C     C_3   0.629944 0.819820 0.297915 0.349657
C3    C     C_3   0.450295 0.268291 0.312068 0.304877
C4    C     C_3   0.377201 0.216780 0.236247 -0.040923
C5    C     C_3   0.080158 0.241380 0.733905 0.394637
C6    C     C_3   0.085649 0.215049 0.810260 -0.377073
C7    C     C_3   0.629630 0.198422 0.732306 0.314449
C8    C     C_3   0.577131 0.076909 0.723088 -0.341175
C9    C     C_R   0.992974 0.451000 0.048476 0.007494
C10   C     C_R   0.891069 0.398855 0.096006 0.035502
C11   C     C_R   0.726881 0.355733 0.073790 -0.100453
C12   C     C_3   0.128507 0.762044 0.265306 0.365598
C13   C     C_R   0.665148 0.361882 0.004615 -0.095756
C14   C     C_R   0.767130 0.410426 0.955892 0.039024
C15   C     C_R   0.931452 0.455788 0.977843 0.013739
C16   C     C_R   0.707599 0.412600 0.885419 -0.114352
C17   C     C_R   0.811405 0.456213 0.834717 -0.044096
C18   C     C_R   0.975021 0.505757 0.857339 -0.001288
C19   C     C_R   0.034012 0.505591 0.929285 -0.010587
C20   C     C_R   0.758199 0.449026 0.761437 -0.021993
C21   C     C_R   0.867334 0.488451 0.712052 -0.289091
C22   C     C_R   0.024890 0.544277 0.733994 0.051217
C23   C     C_3   0.109309 0.787318 0.189116 -0.370712
C24   C     C_R   0.080106 0.554578 0.808144 -0.045548
C25   C     C_R   0.156179 0.497553 0.071313 -0.009756
C26   C     C_R   0.215630 0.496265 0.143051 -0.004417
C27   C     C_R   0.110825 0.446493 0.191990 -0.049208
C28   C     C_R   0.952851 0.392335 0.165522 -0.043227
C29   C     C_R   0.237733 0.609631 0.834637 -0.044692
C30   C     C_R   0.298726 0.605085 0.904697 0.033835
C31   C     C_R   0.197013 0.552616 0.952201 0.006279
C32   C     C_R   0.258345 0.548117 0.022936 0.013091
C33   C     C_R   0.461769 0.650718 0.927614 -0.085349
C34   C     C_3   0.236724 0.789925 0.622117 0.264135
C35   C     C_R   0.523246 0.644679 0.996880 -0.089984
C36   C     C_R   0.422075 0.594464 0.045160 0.032018
C37   C     C_R   0.379356 0.545578 0.165677 -0.043509
C38   C     C_R   0.481964 0.591483 0.115456 -0.109953
C39   C     C_R   0.434118 0.549612 0.238377 -0.001450
C40   C     C_R   0.326184 0.507602 0.287401 -0.301113
C41   C     C_R   0.166649 0.454761 0.265877 0.035909
C42   C     C_R   0.763569 0.182500 0.527950 -0.271451
C43   C     C_R   0.426360 0.807759 0.470973 -0.289311
C44   C     C_R   0.400298 0.984582 0.444854 -0.104122
C45   C     C_3   0.211733 0.907557 0.634336 -0.323917
C46   C     C_R   0.335732 0.876233 0.441461 -0.010748
C47   C     C_R   0.576501 0.848351 0.509453 0.063728
C48   C     C_R   0.640890 0.960426 0.516534 -0.059513
C49   C     C_R   0.552163 0.028525 0.482540 -0.057291
C50   C     C_R   0.616163 0.139489 0.488588 0.058843
C51   C     C_R   0.855599 0.116114 0.558126 -0.014917
C52   C     C_R   0.791916 0.006644 0.555159 -0.086180
C53   C     C_3   0.959811 0.211945 0.380128 0.271658
C54   C     C_3   0.945919 0.089421 0.363249 -0.355971
C55   C     C_3   0.729929 0.708128 0.683041 0.313882
C56   C     C_3   0.753855 0.747541 0.764498 -0.409598
H1    H     H_    0.721025 0.863886 0.341390 0.075384
H2    H     H_    0.265671 0.949099 0.688220 0.132035
H3    H     H_    0.269686 0.948356 0.591178 0.092356
H4    H     H_    0.078171 0.912155 0.634078 0.127858
H5    H     H_    0.839416 0.234624 0.396062 0.006367
H6    H     H_    0.052945 0.242228 0.425429 0.080780
H7    H     H_    0.854482 0.057094 0.317650 0.114284
H8    H     H_    0.905437 0.053476 0.411162 0.086777
H9    H     H_    0.067701 0.066226 0.347909 0.138845
H10   H     H_    0.845949 0.683317 0.661859 0.016464
H11   H     H_    0.522489 0.963531 0.288270 0.099869
H12   H     H_    0.860649 0.813830 0.776069 0.127824
H13   H     H_    0.777239 0.680528 0.792726 0.059237
H14   H     H_    0.641059 0.778344 0.785867 0.116439
H15   H     H_    0.519022 0.785202 0.324256 -0.051701
H16   H     H_    0.484062 0.856587 0.210096 0.116325
H17   H     H_    0.352372 0.305824 0.342498 -0.011184
H18   H     H_    0.556192 0.332228 0.307612 0.044767
H19   H     H_    0.272410 0.152169 0.241430 0.104804
H20   H     H_    0.329071 0.279650 0.210489 0.031839
H21   H     H_    0.685033 0.937668 0.226333 0.125071
H22   H     H_    0.187263 0.865319 0.184739 0.106962
H23   H     H_    0.180147 0.308509 0.730246 0.118669
H24   H     H_    0.961082 0.268936 0.723891 -0.106681
H25   H     H_    0.206170 0.189823 0.822126 0.141605
H26   H     H_    0.070253 0.287592 0.850377 0.073992
H27   H     H_    0.714880 0.223712 0.780963 -0.002352
H28   H     H_    0.694746 0.214406 0.682627 -0.019383
H29   H     H_    0.687937 0.036092 0.724941 0.083485
H30   H     H_    0.512537 0.047948 0.669274 0.109282
H31   H     H_    0.045613 0.685520 0.268516 0.095629
H32   H     H_    0.495405 0.056334 0.767055 0.117260
H33   H     H_    0.645446 0.318645 0.110448 0.099627
H34   H     H_    0.537768 0.327808 0.989031 0.068530
H35   H     H_    0.826077 0.479522 0.655760 0.067032
H36   H     H_    0.580877 0.377218 0.870217 0.097489
H37   H     H_    0.873583 0.347390 0.199094 0.107284
H38   H     H_    0.317247 0.653811 0.800759 0.097033
H39   H     H_    0.542542 0.690291 0.891692 0.061318
H40   H     H_    0.649855 0.680191 0.012917 0.070536
H41   H     H_    0.608666 0.626760 0.130505 0.109117
H42   H     H_    0.258296 0.750702 0.274749 -0.072379
H43   H     H_    0.368969 0.513493 0.343233 0.075145
H44   H     H_    0.327416 0.033570 0.419399 0.100923
H45   H     H_    0.862715 0.959028 0.582183 0.099840
H46   H     H_    0.375269 0.723133 0.467298 0.071404
H47   H     H_    0.148024 0.721968 0.148847 0.072133
H48   H     H_    0.978366 0.793474 0.176555 0.149569
H49   H     H_    0.369384 0.785366 0.616933 0.009818
H50   H     H_    0.166205 0.749030 0.571265 0.067292
O1    O     O_2   0.873090 0.425890 0.325140 -0.462547
O2    O     O_3   0.690165 0.793342 0.650559 -0.643468
O3    O     O_3   0.086126 0.847919 0.315721 -0.600877
O4    O     O_2   0.316610 0.574140 0.674900 -0.472701
O5    O     O_3   0.067290 0.565720 0.585630 -0.494451
O6    O     O_3   0.530210 0.372990 0.631200 -0.451914
O7    O     O_3   0.183703 0.746703 0.683177 -0.640305
O8    O     O_3   0.611340 0.366290 0.463630 -0.473622
O9    O     O_3   0.108550 0.314140 0.595200 -0.487416
O10   O     O_2   0.195381 0.120361 0.550873 -0.473724
O11   O     O_3   0.101611 0.149383 0.683766 -0.600569
O12   O     O_3   0.122420 0.434370 0.414380 -0.492624
O13   O     O_3   0.578370 0.633800 0.536380 -0.489034
O14   O     O_2   0.341510 0.231850 0.465510 -0.465995
O15   O     O_3   0.503578 0.187488 0.345800 -0.666698
O16   O     O_2   0.415109 0.448998 0.757521 -0.508698
O17   O     O_3   0.491151 0.252325 0.742236 -0.585748
O18   O     O_3   0.659500 0.627100 0.368810 -0.471284
O19   O     O_2   0.775919 0.547078 0.243564 -0.495860
O20   O     O_3   0.004474 0.253146 0.317383 -0.647381
O21   O     O_3   0.704976 0.742209 0.252599 -0.598800
O22   O     O_2   0.848200 0.768190 0.534530 -0.471079
O23   O     O_3   0.081160 0.685950 0.404810 -0.486483
O24   O     O_2   0.998343 0.879285 0.449916 -0.485073
P1    P     P_3+3 0.041040 0.394770 0.336330 0.970340
P2    P     P_3+3 0.672880 0.754030 0.556100 0.969400
P3    P     P_3+3 0.125945 0.823980 0.403499 0.949890
P4    P     P_3+3 0.148670 0.605320 0.663680 0.971363
P5    P     P_3+3 0.064819 0.174499 0.596060 0.960203
P6    P     P_3+3 0.642913 0.613874 0.274826 0.951258
P7    P     P_3+3 0.521849 0.230252 0.439818 0.938546
P8    P     P_3+3 0.549441 0.384080 0.724969 0.947405
H51   H     H_    0.628890 0.638010 0.673010 0.064060
N1    N     N_2   0.500474 0.171312 0.191129 -0.426448
H52   H     H_    0.568828 0.123838 0.215570 0.232553
C57   C     C_3   0.440064 0.120172 0.118623 -0.273094
H53   H     H_    0.349526 0.046320 0.120795 0.111264
H54   H     H_    0.545109 0.096466 0.086199 0.112964
H55   H     H_    0.380676 0.177255 0.091292 0.118475
H56   H     H_    0.984554 0.148377 0.815463 0.103505
H57   H     H_    0.812400 0.267467 0.531220 0.059284

loop_
_geom_bond_atom_site_label_1
_geom_bond_atom_site_label_2
_ccdc_geom_bond_type
C53   C54   S    
C20   P8    S    
C34   H50   S    
C6    H25   S    
C39   C40   A    
C46   P3    S    
C17   C18   A    
C47   P2    S    
C1    H21   S    
C45   H4    S    
C23   H47   S    
C5    C6    S    
C37   C39   A    
C6    H56   S    
C51   C52   A    
C10   C11   A    
C44   H44   S    
Ba2   O4    S    
C35   C36   A    
C51   P5    S    
C26   C27   A    
C1    H11   S    
C22   C24   A    
O14   P7    D    
C16   C17   A    
O23   P3    S    
C3    C4    S    
Ba2   O5    S    
C56   H13   S    
C4    H20   S    
C19   C31   A    
O7    P4    S    
C13   C14   A    
C23   H22   S    
O15   P7    S    
C50   P7    S    
C34   C45   S    
O12   P1    S    
C41   P1    S    
C1    H16   S    
Ba1   O1    S    
C45   H2    S    
Ba2   O8    S    
C42   C51   A    
O3    P3    S    
O18   P6    S    
O21   P6    S    
C55   O2    S    
C14   C15   A    
O5    P4    S    
C53   H5    S    
C21   C22   A    
O19   P6    D    
C9    C25   A    
O13   P2    S    
C4    N1    S    
O10   P5    D    
C7    C8    S    
Ba2   P4    S    
O8    P7    S    
C7    H27   S    
C22   P4    S    
C13   H34   S    
C24   C29   A    
O17   P8    S    
C32   C36   A    
C11   H33   S    
C34   H49   S    
O22   P2    D    
Ba1   O5    S    
O4    P4    D    
C57   H55   S    
Ba1   P1    S    
C38   H41   S    
C35   H40   S    
Ba2   O9    S    
C23   H48   S    
C48   C49   A    
Ba2   O14   S    
C25   C32   A    
C12   O3    S    
C44   C46   A    
C8    H29   S    
O1    P1    D    
C49   C50   A    
O11   P5    S    
C30   C33   A    
C5    O11   S    
C52   H45   S    
C17   C20   A    
Ba1   O18   S    
C57   H54   S    
Ba1   O22   S    
C37   C38   A    
Ba2   O12   S    
C56   H12   S    
C4    H19   S    
C43   C46   A    
C26   C37   A    
C10   C28   A    
C44   C49   A    
C7    O17   S    
C21   H35   S    
Ba1   O12   S    
C3    H17   S    
C12   H31   S    
C28   H37   S    
C43   H46   S    
C7    H28   S    
C54   H7    S    
C29   C30   A    
C43   C47   A    
C8    H30   S    
C53   H6    S    
C31   C32   A    
C39   P6    S    
C48   C52   A    
C53   O20   S    
C2    H15   S    
C5    H23   S    
O6    P8    S    
C11   C13   A    
C16   H36   S    
N1    C57   S    
O2    P2    S    
C40   C41   A    
C55   H10   S    
C1    C2    S    
C40   H43   S    
Ba1   P2    S    
Ba2   O13   S    
Ba1   O8    S    
C9    C15   A    
C33   C35   A    
C6    H26   S    
O16   P8    D    
C20   C21   A    
O9    P5    S    
C57   H53   S    
Ba1   O23   S    
C42   C50   A    
C45   H3    S    
C9    C10   A    
C12   H42   S    
C2    O21   S    
C54   H9    S    
C3    O15   S    
C42   H57   S    
C55   H51   S    
C30   C31   A    
C3    H18   S    
O20   P1    S    
C36   C38   A    
Ba2   O6    S    
C56   H14   S    
C55   C56   S    
C18   C24   A    
O24   P3    D    
C54   H8    S    
Ba1   Ba2   S    
C2    H1    S    
C12   C23   S    
Ba1   O13   S    
C27   C28   A    
C5    H24   S    
C18   C19   A    
C8    H32   S    
C14   C16   A    
C47   C48   A    
C25   C26   A    
N1    H52   S    
C33   H39   S    
C34   O7    S    
C27   C41   A    
C29   H38   S    
C15   C19   A    
