data_mof_unit_7166.cif
_audit_creation_date              2012-12-10T18:08:20-0500
_audit_creation_method            fapswitch 2.2
_symmetry_space_group_name_H-M    P1
_symmetry_Int_Tables_number       1
_space_group_crystal_system       triclinic
_cell_length_a                    12.652935
_cell_length_b                    13.367946
_cell_length_c                    14.115794
_cell_angle_alpha                 90.23582
_cell_angle_beta                  101.756158
_cell_angle_gamma                 84.715669
_cell_volume                      2327.31767074

loop_
_atom_site_label
_atom_site_type_symbol
_atom_type_description
_atom_site_fract_x
_atom_site_fract_y
_atom_site_fract_z
_atom_type_partial_charge
C1    C     C_R   0.441069 0.690807 0.485044 0.932336
C2    C     C_R   0.536231 0.035830 0.531816 0.144370
C3    C     C_R   0.646461 0.999389 0.548880 0.015586
C4    C     C_R   0.500809 0.500279 0.670563 0.900773
C5    C     C_R   0.674204 0.904359 0.517562 -0.194005
C6    C     C_R   0.592503 0.848631 0.469800 0.396248
C7    C     C_R   0.511405 0.138135 0.516588 -0.153756
C8    C     C_R   0.696869 0.166344 0.589520 0.460130
C9    C     C_R   0.407640 0.799332 0.473232 -0.116738
C10   C     C_R   0.091965 0.326463 0.403113 -0.121069
C11   C     C_R   0.810752 0.624711 0.615318 0.416958
C12   C     C_1   0.494267 0.501981 0.227019 0.042950
C13   C     C_R   0.902423 0.675775 0.610499 0.302273
C14   C     C_R   0.976889 0.632461 0.559464 -0.217246
C15   C     C_R   0.957388 0.543216 0.510156 -0.068048
C16   C     C_R   0.559081 0.310385 0.518195 0.956599
C17   C     C_R   0.849105 0.516113 0.489583 0.010664
C18   C     C_R   0.040589 0.479368 0.481335 0.005206
C19   C     C_R   0.014081 0.385367 0.440795 -0.083852
C20   C     C_R   0.905499 0.360363 0.425996 0.371563
C21   C     C_R   0.824747 0.439722 0.421294 0.390505
C22   C     C_R   0.149943 0.502063 0.495466 -0.047141
C23   C     C_R   0.726255 0.063561 0.584238 -0.179852
C24   C     C_R   0.190471 0.363394 0.399355 0.467689
C25   C     C_R   0.498540 0.500171 0.329341 0.944358
C26   C     C_1   0.501743 0.501580 0.772317 -0.089640
C27   C     C_1   0.500431 0.502529 0.857451 0.036589
C28   C     C_1   0.497487 0.503310 0.956890 0.077239
C29   C     C_1   0.494908 0.503534 0.041777 0.086529
C30   C     C_1   0.493148 0.503107 0.141431 0.122036
C31   C     C_R   0.591496 0.204332 0.541378 -0.212398
C32   C     C_R   0.297893 0.832570 0.464108 -0.329531
C33   C     C_R   0.266255 0.931310 0.485280 0.342028
C34   C     C_R   0.346341 0.994790 0.525697 0.318224
C35   C     C_R   0.455007 0.968543 0.514555 -0.102417
C36   C     C_R   0.484747 0.870995 0.483888 -0.050003
H1    H     H_    0.889747 0.354364 0.659218 0.389447
H2    H     H_    0.810140 0.033913 0.607640 0.231372
H3    H     H_    0.429248 0.165441 0.483271 0.231714
H4    H     H_    0.236848 0.780272 0.444709 0.216219
H5    H     H_    0.404114 0.187636 0.710832 0.390272
H6    H     H_    0.073090 0.884413 0.328263 0.373350
H7    H     H_    0.708598 0.902286 0.316050 0.371396
H8    H     H_    0.167085 0.449142 0.208406 0.366469
H9    H     H_    0.718314 0.166089 0.368514 0.381004
H10   H     H_    0.071260 0.259348 0.364169 0.255287
H11   H     H_    0.178865 0.565987 0.536012 0.148817
H12   H     H_    0.745415 0.513959 0.829625 0.387118
H13   H     H_    0.051348 0.667088 0.563472 0.195752
H14   H     H_    0.853324 0.903196 0.748168 0.406940
H15   H     H_    0.863865 0.485083 0.176875 0.403708
H16   H     H_    0.757585 0.883055 0.512708 0.214324
N1    N     N_R   0.222200 0.444680 0.454480 -0.153086
N2    N     N_R   0.776970 0.554780 0.545050 -0.162729
O1    O     O_R   0.366740 0.627160 0.478260 -0.639192
O2    O     O_2   0.866508 0.170837 0.738244 -0.222010
O3    O     O_3   0.849685 0.311665 0.609452 -0.538394
O4    O     O_2   0.887743 0.218956 0.288499 -0.208637
O5    O     O_2   0.928388 0.162049 0.458263 -0.197237
O6    O     O_3   0.732488 0.236605 0.383856 -0.545017
O7    O     O_2   0.845064 0.673599 0.806241 -0.201046
O8    O     O_2   0.657734 0.684892 0.716530 -0.275881
O9    O     O_3   0.763481 0.507979 0.764649 -0.515505
O10   O     O_2   0.023235 0.765749 0.757760 -0.214517
O11   O     O_2   0.970932 0.857582 0.603657 -0.240639
O12   O     O_R   0.544830 0.662520 0.507340 -0.578282
O13   O     O_3   0.824714 0.847609 0.707017 -0.508988
O14   O     O_2   0.713259 0.398572 0.244718 -0.276085
O15   O     O_2   0.720682 0.577155 0.281043 -0.204181
O16   O     O_3   0.892496 0.477548 0.247456 -0.552895
O17   O     O_2   0.251350 0.177295 0.556021 -0.300826
O18   O     O_2   0.248883 0.044527 0.674242 -0.171498
O19   O     O_3   0.427712 0.123395 0.682811 -0.536313
O20   O     O_2   0.082474 0.002212 0.541442 -0.102315
O21   O     O_2   0.115040 0.066222 0.389269 -0.237096
O22   O     O_3   0.054874 0.886071 0.393291 -0.508249
O23   O     O_R   0.410930 0.482320 0.611740 -0.626874
O24   O     O_2   0.727041 0.722918 0.397215 -0.283003
O25   O     O_2   0.534087 0.725789 0.317614 -0.282558
O26   O     O_3   0.639285 0.875019 0.286969 -0.464118
O27   O     O_2   0.363554 0.278967 0.328653 -0.258552
O28   O     O_2   0.184281 0.246607 0.241966 -0.234123
O29   O     O_3   0.244684 0.423653 0.225876 -0.521747
O30   O     O_R   0.589030 0.517680 0.640820 -0.512756
O31   O     O_R   0.455170 0.337480 0.492660 -0.589939
O32   O     O_R   0.633260 0.372840 0.521740 -0.556273
O33   O     O_R   0.410970 0.482320 0.359180 -0.551922
O34   O     O_R   0.589070 0.517680 0.388260 -0.551104
O35   O     O_2   0.717908 0.303989 0.727459 -0.279981
S1    S     S_3+6 0.784288 0.238840 0.670037 0.106802
S2    S     S_3+6 0.865685 0.240354 0.387657 0.118365
S3    S     S_3+6 0.767150 0.626765 0.727669 0.101947
S4    S     S_3+6 0.933104 0.789098 0.671236 0.085544
S5    S     S_3+6 0.782193 0.475545 0.296698 0.075566
S6    S     S_3+6 0.315297 0.087461 0.610178 0.084565
S7    S     S_3+6 0.127129 0.974678 0.453267 0.147640
S8    S     S_3+6 0.622288 0.787513 0.366466 0.085853
S9    S     S_3+6 0.248660 0.323903 0.299086 0.093910
Zn1   Zn    Zn3+2 0.381090 0.476390 0.480580 1.036001
Zn2   Zn    Zn3+2 0.618910 0.523610 0.519420 1.129029

loop_
_geom_bond_atom_site_label_1
_geom_bond_atom_site_label_2
_ccdc_geom_bond_type
C2    C35   A    
C15   C18   A    
H9    O6    S    
O26   S8    S    
C3    C23   A    
C35   C36   A    
H8    O29   S    
N1    Zn1   S    
C16   C31   S    
C26   C27   T    
C24   S9    S    
C28   C29   T    
O16   S5    S    
O10   S4    D    
C34   C35   A    
C5    C6    A    
C14   H13   S    
O17   S6    D    
C21   S5    S    
C25   O33   A    
C8    C23   A    
C18   C19   A    
O12   Zn2   S    
C9    C32   A    
O18   S6    D    
C11   S3    S    
C2    C7    A    
O29   S9    S    
O8    S3    D    
O9    S3    S    
C10   H10   S    
C9    C36   A    
C5    H16   S    
H15   O16   S    
O32   Zn2   S    
H14   O13   S    
O7    S3    D    
O2    S1    D    
C22   H11   S    
C13   C14   A    
C16   O32   A    
O28   S9    D    
N2    Zn2   S    
O21   S7    D    
C1    O12   A    
C22   N1    A    
O33   Zn1   S    
C20   S2    S    
C7    C31   A    
O3    S1    S    
O30   Zn2   S    
C6    S8    S    
O20   S7    D    
C1    C9    S    
C34   S6    S    
O15   S5    D    
H12   O9    S    
C10   C24   A    
C24   N1    A    
C25   O34   A    
O14   S5    D    
C13   S4    S    
C29   C30   S    
O31   Zn1   S    
C4    O30   A    
C10   C19   A    
O24   S8    D    
C33   C34   A    
O5    S2    D    
O34   Zn2   S    
C11   N2    A    
C16   O31   A    
C8    S1    S    
O19   S6    S    
C33   S7    S    
O4    S2    D    
O6    S2    S    
C15   C17   A    
C12   C30   T    
C18   C22   A    
C8    C31   A    
O25   S8    D    
C3    C5    A    
C4    C26   S    
C23   H2    S    
H6    O22   S    
C12   C25   S    
C32   C33   A    
C19   C20   A    
C2    C3    A    
H7    O26   S    
C4    O23   A    
O22   S7    S    
C11   C13   A    
O11   S4    D    
C6    C36   A    
O23   Zn1   S    
C32   H4    S    
C1    O1    A    
C17   C21   A    
H5    O19   S    
C20   C21   A    
O27   S9    D    
O1    Zn1   S    
C27   C28   S    
O13   S4    S    
C7    H3    S    
C14   C15   A    
O35   S1    D    
C17   N2    A    
H1    O3    S    
