data_mof_unit_28689.cif
_audit_creation_date              2012-10-26T20:31:19-0400
_audit_creation_method            fapswitch 2.2
_symmetry_space_group_name_H-M    P1
_symmetry_Int_Tables_number       1
_space_group_crystal_system       triclinic
_cell_length_a                    11.69272
_cell_length_b                    10.870474
_cell_length_c                    9.571157
_cell_angle_alpha                 91.441574
_cell_angle_beta                  90.418737
_cell_angle_gamma                 91.029882
_cell_volume                      1215.9276709

loop_
_atom_site_label
_atom_site_type_symbol
_atom_type_description
_atom_site_fract_x
_atom_site_fract_y
_atom_site_fract_z
_atom_type_partial_charge
C1    C     C_R   0.502364 0.262623 0.498028 0.540293
C2    C     C_R   0.409245 0.451948 0.070274 0.083121
C3    C     C_R   0.408110 0.457790 0.922000 0.016419
C4    C     C_R   0.284059 0.499694 0.499641 0.565999
C5    C     C_R   0.598707 0.521832 0.928158 0.113560
C6    C     C_3   0.674880 0.632137 0.923821 -0.249484
C7    C     C_3   0.671810 0.638103 0.083053 0.132135
C8    C     C_R   0.501646 0.737564 0.501217 0.556417
C9    C     C_R   0.715931 0.500190 0.500454 0.539031
C10   C     C_1   0.162361 0.499269 0.499315 0.015993
C11   C     C_1   0.059862 0.499033 0.500293 -0.021893
C12   C     C_R   0.499963 0.129208 0.492119 -0.056801
C13   C     C_1   0.940072 0.499206 0.501392 -0.030827
C14   C     C_1   0.837588 0.499700 0.501375 -0.003493
C15   C     C_R   0.445979 0.066629 0.600072 -0.006299
C16   C     C_2   0.611914 0.117759 0.263267 0.217122
C17   C     C_3   0.838379 0.726220 0.173310 -0.009668
C18   C     C_3   0.966416 0.704007 0.177623 -0.351346
C19   C     C_3   0.405107 0.871971 0.974230 0.028516
C20   C     C_3   0.296141 0.833412 0.048399 -0.380985
C21   C     C_3   0.678288 0.973107 0.756560 -0.035007
C22   C     C_3   0.781959 0.891192 0.743955 -0.372748
C23   C     C_R   0.546858 0.060169 0.378446 -0.030767
C24   C     C_2   0.348357 0.133402 0.821525 0.266642
C25   C     C_2   0.315695 0.380730 0.134462 0.244238
C26   C     C_R   0.542647 0.931329 0.382175 -0.155739
C27   C     C_R   0.501600 0.870848 0.500084 -0.037163
C28   C     C_R   0.451902 0.940231 0.606857 0.080909
C29   C     C_3   0.472439 0.945532 0.762151 0.494126
C30   C     C_3   0.456745 0.086169 0.755796 -0.077421
C31   C     C_R   0.598142 0.524848 0.075067 0.210086
Cu1   Cu    Cu3+1 0.499990 0.499980 0.640670 0.985421
Cu2   Cu    Cu3+1 0.500010 0.500020 0.359330 0.950978
H1    H     H_    0.631699 0.708474 0.874168 0.185730
H2    H     H_    0.995803 0.671201 0.073294 0.170713
H3    H     H_    0.013040 0.790945 0.206592 0.101233
H4    H     H_    0.986360 0.633781 0.255693 0.180474
H5    H     H_    0.436681 0.960631 0.022256 0.159400
H6    H     H_    0.469531 0.800008 0.991190 0.165031
H7    H     H_    0.264159 0.743350 0.005081 0.174455
H8    H     H_    0.313850 0.824339 0.161832 0.119929
H9    H     H_    0.229468 0.903638 0.034373 0.161853
H10   H     H_    0.698087 0.046871 0.835977 0.175348
H11   H     H_    0.665559 0.014797 0.653275 0.114445
H12   H     H_    0.626067 0.718111 0.129663 0.100723
H13   H     H_    0.763217 0.813177 0.669566 0.153034
H14   H     H_    0.856097 0.945196 0.704923 0.124806
H15   H     H_    0.804667 0.854761 0.847546 0.149780
H16   H     H_    0.341844 0.138827 0.934457 0.104968
H17   H     H_    0.332000 0.324902 0.224072 0.159486
H18   H     H_    0.579881 0.878183 0.297383 0.161191
H19   H     H_    0.531787 0.143994 0.788317 0.084549
H20   H     H_    0.334854 0.422772 0.862907 0.190908
H21   H     H_    0.760129 0.610107 0.879956 0.154809
H22   H     H_    0.650896 0.208466 0.276715 0.152440
H23   H     H_    0.810852 0.762514 0.277197 0.141079
H24   H     H_    0.822886 0.797353 0.093636 0.132117
N1    N     N_R   0.500710 0.500930 0.147930 -0.290272
N2    N     N_R   0.500710 0.500890 0.852020 -0.263620
O1    O     O_R   0.500000 0.319640 0.618810 -0.489594
O2    O     O_3   0.779770 0.613886 0.142324 -0.533357
O3    O     O_3   0.382147 0.881897 0.829693 -0.535125
O4    O     O_3   0.582936 0.901924 0.800740 -0.579444
O5    O     O_2   0.268610 0.167996 0.750240 -0.476285
O6    O     O_2   0.219256 0.379999 0.084515 -0.522856
O7    O     O_R   0.500010 0.319680 0.381230 -0.544956
O8    O     O_R   0.337190 0.499990 0.618790 -0.486247
O9    O     O_R   0.337200 0.500030 0.381210 -0.511431
O10   O     O_R   0.499990 0.680320 0.618770 -0.451370
O11   O     O_R   0.500000 0.680360 0.381190 -0.524602
O12   O     O_R   0.662800 0.499970 0.618790 -0.510732
O13   O     O_R   0.662810 0.500010 0.381210 -0.461979
O14   O     O_2   0.625727 0.062515 0.152131 -0.558000

loop_
_geom_bond_atom_site_label_1
_geom_bond_atom_site_label_2
_ccdc_geom_bond_type
C4    O8    A    
C22   H15   S    
C9    C14   S    
C29   O4    S    
C3    N2    A    
Cu1   O10   S    
C19   H5    S    
Cu1   O12   S    
C21   H11   S    
C11   C13   S    
C18   H2    S    
C6    C7    S    
C20   H9    S    
C19   C20   S    
C12   C23   A    
C12   C15   A    
Cu2   N1    S    
Cu1   Cu2   S    
C2    N1    A    
C22   H14   S    
C26   C27   A    
C16   H22   S    
C24   O5    D    
C21   H10   S    
C13   C14   T    
C29   O3    S    
C3    H20   S    
C17   H23   S    
C18   H3    S    
C15   C28   A    
C29   C30   S    
C1    C12   S    
C19   H6    S    
Cu2   O11   S    
C6    H21   S    
Cu1   O8    S    
C5    N2    A    
C7    H12   S    
C31   N1    A    
C21   C22   S    
C28   C29   S    
C22   H13   S    
C18   H4    S    
Cu2   O7    S    
C20   H8    S    
C16   C23   S    
C2    C3    A    
C5    C6    S    
C20   H7    S    
C24   C30   S    
C21   O4    S    
C7    C31   S    
C10   C11   T    
Cu1   O1    S    
C19   O3    S    
C4    C10   S    
C16   O14   D    
C9    O12   A    
C2    C25   S    
C27   C28   A    
C25   O6    D    
Cu2   O13   S    
C15   C30   S    
C17   C18   S    
C1    O1    A    
C24   H16   S    
C23   C26   A    
C8    C27   S    
C8    O10   A    
C25   H17   S    
C7    O2    S    
C9    O13   A    
C30   H19   S    
Cu1   N2    S    
C17   O2    S    
C26   H18   S    
C8    O11   A    
C4    O9    A    
C6    H1    S    
Cu2   O9    S    
C17   H24   S    
C5    C31   A    
C1    O7    A    
