data_mof_unit_14230.cif
_audit_creation_date              2012-12-10T17:06:40-0500
_audit_creation_method            fapswitch 2.2
_symmetry_space_group_name_H-M    P1
_symmetry_Int_Tables_number       1
_space_group_crystal_system       triclinic
_cell_length_a                    15.882774
_cell_length_b                    10.759329
_cell_length_c                    9.901158
_cell_angle_alpha                 109.681947
_cell_angle_beta                  99.130461
_cell_angle_gamma                 91.400166
_cell_volume                      1567.42258174

loop_
_atom_site_label
_atom_site_type_symbol
_atom_type_description
_atom_site_fract_x
_atom_site_fract_y
_atom_site_fract_z
_atom_type_partial_charge
C1    C     C_R   0.497778 0.253144 0.442671 0.802503
C2    C     C_R   0.509531 0.747380 0.557844 0.869152
C3    C     C_2   0.566498 0.072795 0.505736 0.277616
C4    C     C_2   0.565456 0.933702 0.500378 0.396230
C5    C     C_2   0.500194 0.523306 0.084268 0.611841
C6    C     C_2   0.484206 0.504409 0.923975 0.501694
C7    C     C_R   0.340155 0.499804 0.499945 0.793833
C8    C     C_R   0.659824 0.500108 0.500017 0.812708
C9    C     C_3   0.974929 0.407747 0.547505 0.316277
C10   C     C_3   0.025319 0.595925 0.452184 0.327207
C11   C     C_3   0.016515 0.381828 0.410724 -0.112723
C12   C     C_3   0.983277 0.621815 0.588589 -0.092079
C13   C     C_1   0.250733 0.500078 0.499988 -0.136748
C14   C     C_1   0.749200 0.500319 0.499947 -0.142508
C15   C     C_3   0.041608 0.524472 0.634090 0.307401
C16   C     C_3   0.958325 0.479116 0.365121 0.298701
C17   C     C_3   0.083816 0.499976 0.498773 -0.032630
C18   C     C_3   0.916046 0.503388 0.500902 -0.019776
C19   C     C_1   0.175353 0.500254 0.499721 0.093979
C20   C     C_1   0.824554 0.501152 0.500065 0.089604
C21   C     C_2   0.505578 0.111128 0.416900 -0.188487
C22   C     C_2   0.522105 0.890900 0.586162 -0.141223
Cu1   Cu    Cu3+1 0.514700 0.521810 0.644910 0.983751
Cu2   Cu    Cu3+1 0.485300 0.478190 0.355090 1.017181
N1    N     N_2   0.463210 0.445420 0.137360 -0.055114
N2    N     N_2   0.536790 0.554580 0.862640 -0.089451
O1    O     O_R   0.507840 0.332340 0.577400 -0.587400
O2    O     O_R   0.492160 0.667660 0.422600 -0.511775
O3    O     O_R   0.483020 0.295500 0.332650 -0.595317
O4    O     O_R   0.516980 0.704500 0.667350 -0.595587
O5    O     O_R   0.391490 0.518400 0.622350 -0.549949
O6    O     O_R   0.608510 0.481600 0.377650 -0.521177
O7    O     O_R   0.366660 0.481570 0.377600 -0.582172
O8    O     O_R   0.633340 0.518430 0.622400 -0.588315
C23   C     C_3   0.038121 0.247854 0.311437 -0.379335
C24   C     C_3   0.957930 0.152015 0.238652 -0.292395
C25   C     C_3   0.980820 0.018496 0.141180 -0.863813
H1    H     H_    0.012785 0.031266 0.054167 0.257947
H2    H     H_    0.024098 0.972118 0.206612 0.264307
H3    H     H_    0.921659 0.951318 0.089166 0.247431
H4    H     H_    0.925051 0.135986 0.323183 0.249597
H5    H     H_    0.912961 0.194409 0.171176 0.252881
H6    H     H_    0.070501 0.264284 0.226550 0.203656
H7    H     H_    0.083314 0.204679 0.377809 0.201774
C26   C     C_3   0.966834 0.755874 0.695213 -0.356238
C27   C     C_3   0.908670 0.833538 0.619618 -0.342440
C28   C     C_3   0.889137 0.963137 0.729390 -0.788625
H8    H     H_    0.855693 0.943000 0.811191 0.249241
H9    H     H_    0.949252 0.026734 0.786027 0.254325
H10   H     H_    0.847099 0.017269 0.671689 0.273268
H11   H     H_    0.940387 0.856912 0.537898 0.239852
H12   H     H_    0.847339 0.773638 0.562572 0.236084
H13   H     H_    0.936683 0.738074 0.781692 0.197683
H14   H     H_    0.029258 0.814585 0.747012 0.225296
O9    O     O_3   0.947590 0.311516 0.600649 -0.716706
H15   H     H_    0.999253 0.266244 0.620564 0.336172
O10   O     O_3   0.054157 0.692491 0.400691 -0.719645
H16   H     H_    0.002910 0.712511 0.342739 0.331067
O11   O     O_3   0.913196 0.458186 0.225036 -0.707691
H17   H     H_    0.957261 0.445439 0.162110 0.335079
O12   O     O_3   0.086781 0.546094 0.774324 -0.695546
H18   H     H_    0.042590 0.555470 0.836631 0.335660
O13   O     O_3   0.612134 0.847134 0.409638 -0.705873
H19   H     H_    0.640749 0.895831 0.358035 0.325542
O14   O     O_3   0.632410 0.158841 0.603461 -0.713053
H20   H     H_    0.645916 0.230539 0.566569 0.332599
C29   C     C_3   0.492743 0.986346 0.718365 -0.457379
C30   C     C_3   0.565958 0.025371 0.850282 -0.320731
C31   C     C_3   0.543763 0.136730 0.978915 -0.721935
H21   H     H_    0.538134 0.228291 0.951283 0.275720
H22   H     H_    0.482644 0.108979 0.006593 0.249696
H23   H     H_    0.595266 0.156506 0.075374 0.232123
H24   H     H_    0.579374 0.938019 0.883763 0.222352
H25   H     H_    0.625219 0.058842 0.821391 0.262741
H26   H     H_    0.470008 0.075747 0.696448 0.222729
H27   H     H_    0.437393 0.938361 0.743654 0.200028
C32   C     C_3   0.440524 0.012678 0.297161 -0.457667
C33   C     C_3   0.353418 0.011801 0.345099 -0.359549
C34   C     C_3   0.287645 0.912428 0.226137 -0.766194
H28   H     H_    0.278797 0.938099 0.125386 0.251018
H29   H     H_    0.308812 0.810698 0.201400 0.265299
H30   H     H_    0.225243 0.914492 0.263676 0.246867
H31   H     H_    0.360155 0.984886 0.445047 0.221363
H32   H     H_    0.329678 0.112079 0.370397 0.213603
H33   H     H_    0.433785 0.040323 0.197765 0.215218
H34   H     H_    0.461999 0.910971 0.265626 0.219753
O15   O     O_3   0.407817 0.437439 0.843372 -0.686080
H35   H     H_    0.421531 0.368059 0.756978 0.348713
O16   O     O_3   0.554366 0.627791 0.180862 -0.653450
H36   H     H_    0.549609 0.702135 0.142979 0.319912
O17   O     O_3   0.615460 0.600626 0.939924 -0.657672
H37   H     H_    0.644306 0.637738 0.878914 0.372947
O18   O     O_3   0.405203 0.348340 0.047194 -0.648925
H38   H     H_    0.382315 0.307065 0.110753 0.364147

loop_
_geom_bond_atom_site_label_1
_geom_bond_atom_site_label_2
_ccdc_geom_bond_type
O9    H15   S    
C1    C21   S    
O18   H38   S    
C24   H5    S    
C23   C24   S    
O15   H35   S    
C28   H9    S    
C32   C33   S    
N1    O18   S    
C4    O13   S    
C24   C25   S    
C25   H3    S    
C5    C6    S    
C10   C17   S    
C30   H25   S    
C27   H12   S    
Cu1   N2    S    
C31   H22   S    
Cu2   O3    S    
C33   H31   S    
C30   C31   S    
C2    C22   S    
Cu1   Cu2   S    
C9    O9    S    
Cu1   O1    S    
C23   H6    S    
O12   H18   S    
C32   H33   S    
O11   H17   S    
C7    O7    A    
C24   H4    S    
C3    O14   S    
C28   H10   S    
C7    O5    A    
C13   C19   T    
C29   C30   S    
C8    O6    A    
Cu1   O4    S    
C14   C20   T    
C10   O10   S    
Cu2   N1    S    
O17   H37   S    
C34   H29   S    
C33   C34   S    
N2    O17   S    
C26   C27   S    
C27   H11   S    
C6    O15   S    
C34   H28   S    
C16   O11   S    
Cu1   O5    S    
C31   H23   S    
Cu2   O6    S    
C25   H1    S    
C4    C22   D    
C11   C16   S    
C28   H8    S    
C12   C15   S    
Cu1   O8    S    
C1    O3    A    
C15   O12   S    
C8    O8    A    
C23   H7    S    
C9    C11   S    
C10   C12   S    
C5    N1    D    
C26   H14   S    
C3    C21   D    
C29   H26   S    
C12   C18   S    
C3    C4    S    
C15   C17   S    
C27   C28   S    
C11   C17   S    
C8    C14   S    
Cu2   O2    S    
C12   C26   S    
C32   H34   S    
C34   H30   S    
Cu2   O7    S    
C2    O4    A    
C11   C23   S    
C30   H24   S    
C25   H2    S    
C10   C16   S    
O10   H16   S    
C6    N2    D    
C17   C19   S    
C18   C20   S    
C9    C15   S    
C31   H21   S    
C22   C29   S    
C26   H13   S    
O13   H19   S    
C33   H32   S    
C9    C18   S    
C7    C13   S    
C16   C18   S    
O14   H20   S    
C21   C32   S    
C1    O1    A    
C2    O2    A    
C29   H27   S    
O16   H36   S    
C5    O16   S    
