data_mof_unit_36618.cif
_audit_creation_date              2013-03-05T16:00:38-0500
_audit_creation_method            fapswitch 2.2
_symmetry_space_group_name_H-M    P1
_symmetry_Int_Tables_number       1
_space_group_crystal_system       triclinic
_cell_length_a                    10.734398
_cell_length_b                    14.697737
_cell_length_c                    14.725972
_cell_angle_alpha                 65.217091
_cell_angle_beta                  103.584304
_cell_angle_gamma                 102.905761
_cell_volume                      2029.71842634

loop_
_atom_site_label
_atom_site_type_symbol
_atom_site_description
_atom_site_fract_x
_atom_site_fract_y
_atom_site_fract_z
_atom_type_partial_charge
O1    O     O_R   0.455060 0.022100 0.338110 -0.578438
O2    O     O_R   0.512640 0.160150 0.379180 -0.574740
C1    C     C_R   0.480215 0.119520 0.312286 0.839176
O3    O     O_R   0.288900 0.930980 0.479450 -0.595477
O4    O     O_R   0.346480 0.069030 0.520520 -0.580468
C2    C     C_R   0.260301 0.000083 0.500650 0.816890
Cu1   Cu    Cu3+1 0.465900 0.918260 0.475680 0.967254
Cu2   Cu    Cu3+1 0.534100 0.081740 0.524320 0.961862
O5    O     O_R   0.487360 0.839850 0.620820 -0.590626
O6    O     O_R   0.544940 0.977900 0.661890 -0.575434
O7    O     O_R   0.653520 0.930970 0.479480 -0.559573
O8    O     O_R   0.711100 0.069020 0.520550 -0.606248
C3    C     C_R   0.523262 0.880433 0.687707 0.823943
C4    C     C_R   0.739907 0.000508 0.498501 0.775153
C5    C     C_3   0.047540 0.024022 0.392003 -0.439987
H1    H     H_    0.060742 0.968269 0.363470 0.197762
H2    H     H_    0.087899 0.099949 0.340194 0.173519
C6    C     C_3   0.902173 0.022112 0.389641 0.019856
H3    H     H_    0.874725 0.097897 0.337481 0.132641
H4    H     H_    0.065716 0.836869 0.543077 0.160264
H5    H     H_    0.857502 0.833478 0.553530 0.181850
C7    C     C_3   0.062373 0.894708 0.572441 -0.001846
C8    C     C_3   0.107891 0.083175 0.535614 -0.355191
C9    C     C_3   0.122838 0.000332 0.501191 0.056259
H6    H     H_    0.161770 0.070235 0.613379 0.218907
H7    H     H_    0.149095 0.159155 0.484419 0.188858
C10   C     C_3   0.877850 0.999928 0.498082 0.062234
C11   C     C_3   0.919295 0.896247 0.573391 -0.384483
C12   C     C_3   0.964660 0.083221 0.533414 -0.412006
H8    H     H_    0.937988 0.159280 0.481176 0.184467
H9    H     H_    0.949797 0.070212 0.610559 0.194110
H10   H     H_    0.904760 0.882506 0.650709 0.182066
C13   C     C_R   0.471193 0.186681 0.204614 -0.121252
C14   C     C_R   0.538046 0.813146 0.795321 -0.050407
C15   C     C_R   0.413098 0.214679 0.026436 0.337981
C16   C     C_R   0.424202 0.149011 0.128473 -0.230011
C17   C     C_R   0.510612 0.290208 0.178772 -0.213794
C18   C     C_R   0.493178 0.359794 0.077864 0.074100
C19   C     C_R   0.442796 0.320783 0.000785 0.031177
C20   C     C_R   0.520630 0.466784 0.052106 0.062131
C21   C     C_R   0.498183 0.533520 0.948833 0.072400
C22   C     C_R   0.442977 0.491845 0.875033 -0.211634
C23   C     C_R   0.416789 0.388341 0.900450 -0.155849
C24   C     C_R   0.565640 0.509327 0.126353 -0.212033
C25   C     C_R   0.583999 0.613055 0.101518 0.140153
C26   C     C_R   0.564960 0.679645 0.999744 0.091761
C27   C     C_R   0.526699 0.640100 0.922710 0.063466
C28   C     C_R   0.584647 0.785160 0.972882 -0.125168
C29   C     C_R   0.569637 0.851195 0.871569 -0.155111
C30   C     C_R   0.519719 0.708782 0.821331 -0.207848
H11   H     H_    0.371174 0.362128 0.840342 0.193682
H12   H     H_    0.503636 0.682900 0.760676 0.146308
H13   H     H_    0.584417 0.931950 0.853048 0.177582
H14   H     H_    0.397822 0.068223 0.148188 0.198768
H15   H     H_    0.553153 0.314235 0.240036 0.176950
H16   H     H_    0.413213 0.537061 0.796458 0.145353
H17   H     H_    0.585433 0.464622 0.205974 0.178773
H18   H     H_    0.611676 0.817887 0.029365 0.187712
N1    N     N_R   0.585360 0.204570 0.560800 -0.185796
N2    N     N_R   0.414550 0.795430 0.439160 -0.181075
C31   C     C_R   0.745510 0.303605 0.636434 -0.284013
C32   C     C_R   0.701975 0.215397 0.618415 0.090226
C33   C     C_R   0.508124 0.278918 0.519934 0.055358
C34   C     C_R   0.552271 0.374897 0.526056 -0.006410
C35   C     C_R   0.671188 0.383288 0.590859 0.162691
C36   C     C_R   0.482243 0.460720 0.474642 0.033593
C37   C     C_R   0.525071 0.547067 0.502804 0.066636
C38   C     C_R   0.642008 0.549171 0.570639 -0.188361
C39   C     C_R   0.714707 0.470201 0.611386 -0.164725
C40   C     C_R   0.375662 0.467619 0.393617 0.103318
C41   C     C_R   0.305908 0.549035 0.353888 -0.166309
C42   C     C_R   0.341936 0.629233 0.385679 0.115371
C43   C     C_R   0.452589 0.630709 0.459379 -0.009164
C44   C     C_R   0.270380 0.710595 0.340450 -0.264109
C45   C     C_R   0.308899 0.793469 0.368015 0.104397
C46   C     C_R   0.485576 0.717150 0.485403 0.052707
H19   H     H_    0.805202 0.476511 0.661429 0.147551
H20   H     H_    0.566438 0.724378 0.542172 0.115182
H21   H     H_    0.254498 0.856724 0.332428 0.131171
H22   H     H_    0.224757 0.552128 0.293264 0.176590
H23   H     H_    0.837505 0.309991 0.684758 0.149214
H24   H     H_    0.761174 0.155183 0.650789 0.128679
H25   H     H_    0.411248 0.260134 0.486835 0.156592
H26   H     H_    0.682888 0.612657 0.591863 0.131569
H27   H     H_    0.185894 0.710664 0.283143 0.158514
I1    I     I_    0.168059 0.843140 0.725163 -0.373614
I2    I     I_    0.643187 0.661304 0.224967 -0.339762
N3    N     N_R   0.371845 0.172283 0.950376 0.112169
O9    O     O_R   0.282959 0.093482 0.963952 -0.344205
O10   O     O_R   0.438592 0.200052 0.877537 -0.365003
I3    I     I_    0.321331 0.380684 0.301065 -0.456298
I4    I     I_    0.788212 0.918476 0.321204 -0.340432

loop_
_geom_bond_atom_site_label_1
_geom_bond_atom_site_label_2
_geom_bond_distance
_ccdc_geom_bond_type
C5    C6    1.546828 S    
C10   C12   1.560268 S    
C21   C22   1.414523 A    
N3    O10   1.301471 A    
C39   H19   1.084477 S    
C15   C16   1.398205 A    
Cu1   Cu2   2.689452 S    
C36   C40   1.432477 A    
C25   C26   1.400560 A    
Cu1   O7    1.970263 S    
C17   C18   1.403527 A    
C8    C12   1.530361 S    
C25   I2    2.132675 S    
C46   H20   1.075162 S    
Cu2   N1    2.020155 S    
O4    C2    1.292671 A    
O7    C4    1.295216 A    
C29   H13   1.083112 S    
C1    C13   1.468418 S    
C5    H1    1.112040 S    
C13   C16   1.395774 A    
C5    H2    1.113840 S    
C6    H3    1.113783 S    
C8    H7    1.114124 S    
O5    C3    1.298479 A    
C22   H16   1.076625 S    
C40   I3    2.141038 S    
C38   C39   1.384548 A    
N1    C32   1.355525 A    
C30   H12   1.074905 S    
C8    C9    1.551828 S    
C40   C41   1.393701 A    
C37   C43   1.435297 A    
C4    C10   1.484137 S    
C7    I1    2.162390 S    
C36   C37   1.443961 A    
C32   H24   1.081452 S    
C7    C11   1.544484 S    
O3    Cu1   1.965939 S    
C41   H22   1.084541 S    
C27   C30   1.403990 A    
C26   C28   1.408825 A    
C14   C30   1.395106 A    
C44   C45   1.389280 A    
C37   C38   1.412094 A    
C38   H26   1.076152 S    
C11   H10   1.112695 S    
O3    C2    1.293590 A    
C19   C23   1.395374 A    
N2    C46   1.363768 A    
C13   C17   1.393470 A    
C33   H25   1.068492 S    
O1    C1    1.298762 A    
C34   C36   1.443946 A    
C15   C19   1.420198 A    
C12   H8    1.114433 S    
C15   N3    1.437976 S    
C20   C24   1.417716 A    
C24   H17   1.072883 S    
Cu2   O8    1.965940 S    
C2    C9    1.478302 S    
C21   C27   1.425293 A    
C5    C9    1.551051 S    
C42   C44   1.402097 A    
C20   C21   1.419796 A    
H5    C11   1.112823 S    
H4    C7    1.113570 S    
C43   C46   1.424726 A    
C7    C9    1.560912 S    
C22   C23   1.383622 A    
Cu1   N2    2.020504 S    
C24   C25   1.388916 A    
Cu1   O5    1.942075 S    
C26   C27   1.421488 A    
C28   C29   1.391684 A    
C14   C29   1.396903 A    
O1    Cu1   1.955355 S    
O2    Cu2   1.942075 S    
C6    C10   1.563935 S    
O8    C4    1.294376 A    
C42   C43   1.411340 A    
O6    C3    1.298814 A    
O4    Cu2   1.970263 S    
C28   H18   1.080318 S    
N2    C45   1.355438 A    
N1    C33   1.364789 A    
C6    I4    2.169749 S    
C34   C35   1.418251 A    
O2    C1    1.298992 A    
C3    C14   1.467192 S    
C12   H9    1.114449 S    
C31   H23   1.083916 S    
C18   C20   1.431418 A    
C23   H11   1.081533 S    
C18   C19   1.424193 A    
C35   C39   1.390044 A    
C8    H6    1.112431 S    
C44   H27   1.083898 S    
C31   C32   1.388925 A    
C16   H14   1.083425 S    
C33   C34   1.417959 A    
C17   H15   1.071755 S    
C31   C35   1.401947 A    
C41   C42   1.389989 A    
N3    O9    1.301394 A    
Cu2   O6    1.955355 S    
C10   C11   1.550558 S    
C45   H21   1.081806 S    
