data_mof_unit_66827.cif
_audit_creation_date              2013-03-05T15:41:45-0500
_audit_creation_method            fapswitch 2.2
_symmetry_space_group_name_H-M    P1
_symmetry_Int_Tables_number       1
_space_group_crystal_system       triclinic
_cell_length_a                    8.622217
_cell_length_b                    15.332461
_cell_length_c                    15.454225
_cell_angle_alpha                 98.721009
_cell_angle_beta                  99.68045
_cell_angle_gamma                 98.12831
_cell_volume                      1961.25343432

loop_
_atom_site_label
_atom_site_type_symbol
_atom_site_description
_atom_site_fract_x
_atom_site_fract_y
_atom_site_fract_z
_atom_type_partial_charge
P1    P     P_3+3 0.004200 0.709230 0.580350 0.571717
O1    O     O_2   0.174080 0.723060 0.553930 -0.398665
O2    O     O_3   0.901570 0.609580 0.550840 -0.333504
O3    O     O_3   0.370350 0.665080 0.388270 -0.347928
O4    O     O_2   0.284149 0.818814 0.437135 -0.319957
O5    O     O_3   0.045612 0.746227 0.696566 -0.593499
O6    O     O_3   0.402716 0.803346 0.288533 -0.454141
H1    H     H_    0.163205 0.764724 0.243978 0.144461
C1    C     C_3   0.281720 0.748457 0.129531 -0.135607
P2    P     P_3+3 0.305000 0.425570 0.290900 0.590965
P3    P     P_3+3 0.866077 0.605064 0.226108 0.539790
O7    O     O_2   0.134790 0.452800 0.278150 -0.306148
O8    O     O_3   0.937650 0.618620 0.340860 -0.315855
O9    O     O_2   0.984845 0.558355 0.179461 -0.381948
O10   O     O_3   0.286710 0.310340 0.241485 -0.615974
O11   O     O_3   0.885177 0.711517 0.195947 -0.588709
C2    C     C_3   0.852994 0.775943 0.263424 1.203872
C3    C     C_3   0.852973 0.868612 0.231903 -0.844961
C4    C     C_3   0.713117 0.337616 0.263738 1.242061
C5    C     C_3   0.634109 0.302541 0.164226 -0.691140
H2    H     H_    0.533532 0.337815 0.145004 0.188969
H3    H     H_    0.581601 0.230583 0.155014 0.205298
Ba1   Ba    Ba6+2 0.154730 0.543770 0.458180 1.668024
C6    C     C_3   0.162202 0.706280 0.740870 0.192035
H4    H     H_    0.269477 0.714028 0.711099 0.078272
C7    C     C_3   0.205290 0.753875 0.838676 -0.040276
H5    H     H_    0.253316 0.825496 0.841106 0.184465
H6    H     H_    0.096995 0.751586 0.869414 0.174994
C8    C     C_3   0.151344 0.251568 0.249083 0.644036
C9    C     C_3   0.129475 0.159036 0.180110 -0.280556
P4    P     P_3+3 0.806080 0.290760 0.419570 0.533187
O12   O     O_2   0.636200 0.276890 0.446040 -0.331290
O13   O     O_3   0.908720 0.390410 0.449080 -0.356634
O14   O     O_3   0.439930 0.334910 0.611650 -0.370477
O15   O     O_3   0.767332 0.266576 0.301813 -0.605170
P5    P     P_3+3 0.935529 0.383012 0.773629 0.555599
O16   O     O_3   0.402060 0.547860 0.609750 -0.366386
O17   O     O_3   0.872630 0.381370 0.659060 -0.384552
O18   O     O_2   0.826666 0.438504 0.820508 -0.275112
O19   O     O_3   0.876518 0.274823 0.794482 -0.558996
Ba2   Ba    Ba6+2 0.655430 0.456220 0.541750 1.697900
P6    P     P_3+3 0.419284 0.780065 0.397937 0.619283
C10   C     C_3   0.274155 0.745076 0.229452 0.248162
H7    H     H_    0.271556 0.674476 0.238485 0.083314
O20   O     O_3   0.408220 0.452130 0.390170 -0.322816
C11   C     C_3   0.593164 0.732096 0.704500 0.739279
H8    H     H_    0.522431 0.708692 0.635873 -0.031472
C12   C     C_3   0.581980 0.830788 0.728582 0.066987
H9    H     H_    0.634484 0.868160 0.681207 0.134824
H10   H     H_    0.454134 0.837275 0.720908 0.085471
P7    P     P_3+3 0.501183 0.569233 0.724000 0.512807
O21   O     O_2   0.675490 0.547140 0.721820 -0.261239
O22   O     O_3   0.530686 0.684434 0.765124 -0.606172
H11   H     H_    0.763404 0.901528 0.262553 0.212520
C13   C     C_3   0.863607 0.211062 0.716268 0.930961
H12   H     H_    0.965302 0.225129 0.683564 -0.057148
C14   C     C_3   0.863127 0.116231 0.739449 -0.090458
H13   H     H_    0.964049 0.087186 0.716873 0.106306
H14   H     H_    0.882756 0.119907 0.812880 0.203944
P8    P     P_3+3 0.371025 0.217132 0.595505 0.522703
C15   C     C_3   0.444509 0.206133 0.773618 0.740721
O23   O     O_2   0.451300 0.177488 0.519992 -0.336217
O24   O     O_3   0.455308 0.167919 0.685151 -0.513810
C16   C     C_3   0.488767 0.136440 0.833572 -0.644483
H15   H     H_    0.613949 0.129645 0.830621 0.224386
C17   C     C_R   0.152577 0.170353 0.555847 0.221526
C18   C     C_R   0.087596 0.077767 0.547720 -0.043212
C19   C     C_R   0.952541 0.892303 0.542132 -0.119675
C20   C     C_R   0.114180 0.926406 0.577277 -0.023721
C21   C     C_R   0.180338 0.015365 0.577209 -0.171007
C22   C     C_R   0.888001 0.797737 0.533342 0.179980
H16   H     H_    0.193551 0.884189 0.603487 0.160615
H17   H     H_    0.307209 0.033621 0.599270 0.210308
C23   C     C_R   0.724893 0.769768 0.492372 0.165104
C24   C     C_R   0.902441 0.199758 0.472855 0.190386
C25   C     C_R   0.834510 0.105074 0.464116 -0.176831
C26   C     C_R   0.924561 0.046387 0.508769 0.126009
C27   C     C_R   0.677693 0.066414 0.418835 -0.285953
C28   C     C_R   0.601837 0.985366 0.436745 0.530064
C29   C     C_R   0.692204 0.922952 0.470159 -0.223105
C30   C     C_R   0.856344 0.953602 0.507065 -0.052052
C31   C     C_R   0.626155 0.830322 0.462982 0.210564
C32   C     C_R   0.051946 0.229488 0.528954 -0.380390
H18   H     H_    0.095598 0.300617 0.547577 0.165448
C33   C     C_R   0.257604 0.453467 0.767464 -0.306186
C34   C     C_R   0.151475 0.430813 0.822380 0.227533
C35   C     C_R   0.209466 0.443283 0.914153 -0.170896
C36   C     C_R   0.369101 0.486527 0.955063 0.118496
C37   C     C_R   0.460159 0.527450 0.896436 -0.290731
C38   C     C_R   0.404913 0.507613 0.802298 0.160318
C39   C     C_R   0.599125 0.524416 0.092753 -0.284942
C40   C     C_R   0.658366 0.547903 0.184659 0.286077
C41   C     C_R   0.403149 0.487331 0.213645 0.150665
C42   C     C_R   0.339280 0.469042 0.119776 0.412927
C43   C     C_R   0.434852 0.493252 0.056545 -0.001938
C44   C     C_R   0.558423 0.533379 0.244648 -0.447719
H19   H     H_    0.686441 0.529435 0.050958 0.192506
H20   H     H_    0.121540 0.419024 0.949453 0.221110
H21   H     H_    0.606964 0.549586 0.315536 0.227004
H22   H     H_    0.221824 0.432076 0.696195 0.173544
C45   C     C_2   0.744639 0.313651 0.099190 1.191778
O25   O     O_2   0.796335 0.388081 0.086895 -0.635084
O26   O     O_R   0.786541 0.238590 0.051659 -0.764940
H23   H     H_    0.858947 0.254581 0.008988 0.328904
C46   C     C_2   0.095675 0.610435 0.730539 0.946356
O27   O     O_2   0.003836 0.584841 0.777014 -0.615826
O28   O     O_R   0.117308 0.554914 0.655219 -0.781536
H24   H     H_    0.030736 0.501260 0.633577 0.353318
O29   O     O_3   0.322626 0.716898 0.887704 -0.675909
H25   H     H_    0.266455 0.663849 0.906124 0.351201
O30   O     O_3   0.015887 0.288922 0.227759 -0.761627
H26   H     H_    0.023235 0.309118 0.170632 0.344867
C47   C     C_2   0.176743 0.243977 0.346263 0.991300
O31   O     O_2   0.212282 0.176978 0.372028 -0.626222
O32   O     O_R   0.181201 0.320499 0.408227 -0.748041
H27   H     H_    0.268490 0.325944 0.462199 0.327040
C48   C     C_2   0.130546 0.693577 0.070002 1.006479
O33   O     O_2   0.010172 0.726560 0.055156 -0.617255
O34   O     O_R   0.128267 0.604497 0.032435 -0.795306
H28   H     H_    0.020372 0.574342 0.995376 0.359492
C49   C     C_2   0.954970 0.112100 0.158304 1.132289
O35   O     O_2   0.887260 0.082047 0.081253 -0.518494
O36   O     O_R   0.868909 0.100952 0.225027 -0.723849
H29   H     H_    0.929352 0.126557 0.287260 0.300607
O37   O     O_3   0.221107 0.100614 0.217641 -0.714523
H30   H     H_    0.213514 0.046004 0.172500 0.389572
C50   C     C_2   0.178993 0.171551 0.091504 1.101827
O38   O     O_2   0.210451 0.245508 0.072445 -0.575166
O39   O     O_R   0.178301 0.095292 0.028912 -0.758743
H31   H     H_    0.193921 0.109689 0.969097 0.388221
O40   O     O_3   0.411374 0.711046 0.106934 -0.668754
H32   H     H_    0.407419 0.652708 0.126905 0.318019
O41   O     O_3   0.752181 0.723117 0.706222 -0.737329
H33   H     H_    0.805609 0.733408 0.769976 0.368407
O42   O     O_3   0.664404 0.867491 0.815708 -0.650806
H34   H     H_    0.591920 0.851379 0.856524 0.378974
C51   C     C_2   0.306435 0.843515 0.111071 1.318599
O43   O     O_2   0.412989 0.899759 0.158869 -0.518243
O44   O     O_R   0.215797 0.866286 0.036472 -0.779909
H35   H     H_    0.249433 0.930684 0.030137 0.365390
O45   O     O_3   0.726822 0.215419 0.655953 -0.600607
H36   H     H_    0.730715 0.177681 0.598945 0.290531
O46   O     O_3   0.718792 0.058411 0.701687 -0.648350
H37   H     H_    0.724105 0.034931 0.639176 0.320060
C52   C     C_2   0.280685 0.226627 0.782089 0.700561
O47   O     O_2   0.224754 0.277047 0.737749 -0.725235
O48   O     O_R   0.199371 0.195164 0.844990 -0.809176
H38   H     H_    0.120376 0.233718 0.862948 0.344784
O49   O     O_3   0.560030 0.284229 0.803304 -0.717959
H39   H     H_    0.527838 0.331134 0.770027 0.358663
C53   C     C_2   0.386351 0.045631 0.795660 1.071667
O50   O     O_2   0.435215 0.992073 0.744917 -0.619136
O51   O     O_R   0.236165 0.023094 0.816910 -0.785386
H40   H     H_    0.179031 0.961324 0.785005 0.320179
C54   C     C_2   0.488801 0.159773 0.932901 1.156178
O52   O     O_2   0.515688 0.103674 0.979252 -0.524642
O53   O     O_R   0.459293 0.241812 0.974504 -0.758210
H41   H     H_    0.461493 0.291453 0.938603 0.317749
O54   O     O_3   0.970989 0.784958 0.340184 -0.708327
H42   H     H_    0.950684 0.833586 0.383735 0.298443
O55   O     O_3   0.437708 0.965976 0.417053 -0.688344
H43   H     H_    0.394549 0.021981 0.413205 0.342839
C55   C     C_2   0.606137 0.086613 0.332283 1.186209
O56   O     O_2   0.613642 0.036835 0.264310 -0.534207
O57   O     O_R   0.507688 0.150176 0.326920 -0.720776
H44   H     H_    0.487037 0.164513 0.264764 0.336250
O58   O     O_3   0.661999 0.680194 0.473477 -0.690877
H45   H     H_    0.654100 0.661767 0.531299 0.335868
O59   O     O_3   0.191359 0.418031 0.089702 -0.721617
H46   H     H_    0.118263 0.442417 0.125362 0.378317
O60   O     O_3   0.704336 0.748122 0.284958 -0.777086
H47   H     H_    0.626875 0.732148 0.228186 0.342511
C56   C     C_2   0.598403 0.600877 0.930082 1.110916
O61   O     O_2   0.587274 0.665666 0.983614 -0.517919
O62   O     O_R   0.741029 0.596735 0.899699 -0.743339
H48   H     H_    0.818089 0.655479 0.917555 0.345994
C57   C     C_2   0.010323 0.929855 0.267951 1.135527
O63   O     O_2   0.128897 0.917157 0.238158 -0.620011
O64   O     O_R   0.022723 0.995280 0.342591 -0.792868
H49   H     H_    0.137267 0.021215 0.370551 0.374226
C58   C     C_2   0.803779 0.862044 0.132060 1.263293
O65   O     O_2   0.667519 0.828606 0.095186 -0.517968
O66   O     O_R   0.910904 0.896183 0.081888 -0.735544
H50   H     H_    0.862018 0.887604 0.016099 0.371737
O67   O     O_3   0.600767 0.369992 0.308084 -0.798251
H51   H     H_    0.530483 0.316823 0.316263 0.348830
O68   O     O_3   0.840146 0.407307 0.269658 -0.681582
H52   H     H_    0.840442 0.454743 0.320844 0.353165

loop_
_geom_bond_atom_site_label_1
_geom_bond_atom_site_label_2
_geom_bond_distance
_ccdc_geom_bond_type
O60   H47   0.983527 S    
C41   C42   1.432010 A    
C13   O45   1.391302 S    
C54   O53   1.400205 S    
C1    C48   1.518289 S    
O59   H46   0.980663 S    
C12   O42   1.403573 S    
O2    Ba1   3.011514 S    
O48   H38   1.008982 S    
P6    C31   1.886587 S    
H1    C10   1.090644 S    
C37   C56   1.480942 S    
C13   H12   1.095188 S    
O55   H43   0.988835 S    
C14   H13   1.114366 S    
O49   H39   0.989607 S    
O36   H29   1.004887 S    
C56   O61   1.218547 D    
C46   O28   1.389896 S    
O7    Ba1   2.882763 S    
C7    H5    1.110154 S    
O57   H44   1.010103 S    
P8    O24   1.774896 S    
Ba1   O20   3.008172 S    
C19   C30   1.445233 A    
C55   O57   1.382735 S    
C6    C7    1.534682 S    
C28   O55   1.375655 S    
P2    O10   1.789147 S    
C48   O34   1.396776 S    
P7    C38   1.873099 S    
O16   P7    1.786946 S    
P3    O9    1.542846 D    
C14   H14   1.110391 S    
O46   H37   0.989464 S    
C44   H21   1.082082 S    
C58   O65   1.218119 D    
C40   C44   1.388769 A    
O8    Ba1   2.864400 S    
P8    O23   1.544648 D    
P1    O1    1.580094 D    
O6    P6    1.767110 S    
C15   O24   1.427067 S    
C15   C52   1.512060 S    
P5    O19   1.758675 S    
C4    O68   1.398387 S    
C17   C32   1.401095 A    
C11   H8    1.109376 S    
C1    C51   1.519778 S    
P3    C40   1.840089 S    
O53   H41   1.007482 S    
O51   H40   1.013680 S    
O30   H26   0.987675 S    
C3    C57   1.503224 S    
C19   C20   1.401430 A    
C57   O64   1.387644 S    
C18   C26   1.416414 A    
C53   O50   1.216752 D    
P4    O13   1.611273 S    
O10   C8    1.403148 S    
O6    C10   1.411665 S    
Ba2   O21   2.882877 S    
C35   H20   1.063757 S    
C12   H10   1.108901 S    
C17   C18   1.429075 A    
C36   C43   1.557902 S    
P8    C17   1.879922 S    
C27   C55   1.472353 S    
C45   O26   1.394652 S    
O14   P8    1.785046 S    
C42   C43   1.437388 A    
O14   Ba2   2.895859 S    
C23   C31   1.419311 A    
C23   O58   1.371157 S    
C52   O48   1.394633 S    
C52   O47   1.206095 D    
C54   O52   1.222318 D    
C1    O40   1.397342 S    
O44   H35   1.013164 S    
C11   C12   1.523189 S    
C1    C10   1.564835 S    
C49   O36   1.384917 S    
C14   O46   1.400756 S    
C16   C53   1.514121 S    
P7    O21   1.591279 D    
C45   O25   1.219640 D    
O42   H34   0.992818 S    
C6    H4    1.099974 S    
O17   Ba2   2.864937 S    
C29   C31   1.433869 A    
C58   O66   1.398408 S    
C39   C40   1.398873 A    
O3    Ba1   2.896583 S    
C27   C28   1.408524 A    
O11   C2    1.415150 S    
C5    C45   1.508510 S    
P2    C41   1.869306 S    
Ba1   O13   2.904664 S    
C33   C34   1.392466 A    
P5    O18   1.548377 D    
C39   H19   1.073383 S    
P1    O5    1.758718 S    
C47   O32   1.388955 S    
P7    O22   1.751176 S    
C20   H16   1.078412 S    
C24   C25   1.463678 A    
C50   O39   1.398553 S    
O66   H50   1.014067 S    
C8    C9    1.607093 S    
C51   O44   1.399278 S    
P3    O11   1.757531 S    
P4    C24   1.939430 S    
O54   H42   0.981786 S    
C16   C54   1.522390 S    
C9    C49   1.531371 S    
C26   C30   1.455106 A    
O12   Ba2   2.886305 S    
O19   C13   1.412377 S    
O5    C6    1.387189 S    
O1    Ba1   2.885824 S    
C21   H17   1.072508 S    
C2    C3    1.570349 S    
P1    C22   1.952364 S    
C25   C26   1.447207 A    
O34   H28   1.012978 S    
C7    O29   1.397757 S    
C49   O35   1.222637 D    
C56   O62   1.394282 S    
P2    O7    1.570958 D    
C12   H9    1.111147 S    
C5    H3    1.109922 S    
P1    Ba1   3.462353 S    
C41   C44   1.390982 A    
C13   C14   1.548938 S    
C10   H7    1.109841 S    
O41   H33   0.993743 S    
P4    O15   1.765442 S    
C28   C29   1.419474 A    
C32   H18   1.079897 S    
O28   H24   1.002374 S    
C50   O38   1.219555 D    
O58   H45   0.987201 S    
O4    P6    1.549701 D    
C47   O31   1.216432 D    
C51   O43   1.219812 D    
C8    C47   1.505539 S    
C9    C50   1.532092 S    
O2    Ba2   2.905373 S    
P4    Ba2   3.463020 S    
C5    H2    1.107924 S    
C34   C35   1.396538 A    
C8    O30   1.384793 S    
P4    O12   1.580457 D    
C25   C27   1.413729 A    
C29   C30   1.417134 A    
O40   H32   0.987478 S    
Ba1   Ba2   4.771268 S    
C22   C23   1.417841 A    
C33   C38   1.388731 A    
C2    O60   1.402685 S    
P2    Ba1   3.466418 S    
C46   O27   1.218910 D    
C7    H6    1.115219 S    
C3    C58   1.513790 S    
C18   C21   1.410146 A    
P5    C34   1.883208 S    
C16   H15   1.106727 S    
C4    C5    1.552936 S    
P5    O17   1.757660 S    
O39   H31   1.008310 S    
O13   Ba2   3.012553 S    
O68   H52   0.989471 S    
C42   O59   1.364812 S    
O62   H48   1.011231 S    
Ba1   O16   2.876832 S    
C48   O33   1.220306 D    
C4    O67   1.382236 S    
C15   C16   1.562866 S    
P3    O8    1.747254 S    
C24   C32   1.399736 A    
O67   H51   0.982386 S    
O37   H30   0.992004 S    
O3    P6    1.731208 S    
C19   C22   1.455029 A    
C11   O22   1.402868 S    
C53   O51   1.398211 S    
O16   Ba2   3.007230 S    
C20   C21   1.402285 A    
C2    O54   1.402155 S    
C9    O37   1.402345 S    
C55   O56   1.218150 D    
C3    H11   1.111869 S    
C39   C43   1.417250 A    
O64   H49   1.006760 S    
C36   C37   1.450296 A    
C35   C36   1.433872 A    
C57   O63   1.217602 D    
P2    O20   1.600119 S    
O29   H25   0.991133 S    
O26   H23   1.014364 S    
C33   H22   1.078613 S    
Ba2   O20   2.876315 S    
C4    O15   1.413151 S    
C6    C46   1.474369 S    
P1    O2    1.611244 S    
C37   C38   1.423984 A    
O45   H36   0.986393 S    
C15   O49   1.406713 S    
O32   H27   1.009520 S    
C11   O41   1.393466 S    
