data_mof_unit_29812.cif
_audit_creation_date              2012-10-26T21:32:54-0400
_audit_creation_method            fapswitch 2.2
_symmetry_space_group_name_H-M    P1
_symmetry_Int_Tables_number       1
_space_group_crystal_system       triclinic
_cell_length_a                    28.182822
_cell_length_b                    18.461124
_cell_length_c                    17.117343
_cell_angle_alpha                 90.036816
_cell_angle_beta                  59.921833
_cell_angle_gamma                 90.098061
_cell_volume                      7706.66242209

loop_
_atom_site_label
_atom_site_type_symbol
_atom_type_description
_atom_site_fract_x
_atom_site_fract_y
_atom_site_fract_z
_atom_type_partial_charge
C1    C     C_R   0.703421 0.273529 0.674811 0.977389
C2    C     C_R   0.910996 0.607913 0.596233 0.537888
C3    C     C_R   0.068539 0.894714 0.938947 0.959568
C4    C     C_R   0.576935 0.596330 0.930474 0.979940
C5    C     C_R   0.431342 0.394754 0.061068 0.959430
C6    C     C_R   0.423137 0.596244 0.069506 0.982935
C7    C     C_R   0.568943 0.394974 0.938647 0.954985
C8    C     C_R   0.543674 0.992250 0.518024 -0.116728
C9    C     C_R   0.450829 0.991789 0.498840 -0.116381
C10   C     C_R   0.031621 0.495916 0.550719 -0.109258
C11   C     C_R   0.943249 0.493878 0.517645 -0.114648
C12   C     C_R   0.523652 0.056721 0.502233 -0.056298
C13   C     C_R   0.969591 0.373094 0.452000 0.524745
C14   C     C_R   0.476904 0.925652 0.496007 0.012372
C15   C     C_R   0.470564 0.056521 0.514608 -0.056864
C16   C     C_R   0.516503 0.926220 0.524748 0.012470
C17   C     C_R   0.002808 0.560191 0.557906 -0.049917
C18   C     C_R   0.975104 0.430757 0.502044 0.010334
C19   C     C_R   0.953048 0.555515 0.556209 -0.054102
C20   C     C_R   0.013043 0.429387 0.534293 0.009159
C21   C     C_R   0.606819 0.932045 0.554029 -0.031742
C22   C     C_R   0.375761 0.058791 0.499464 -0.059432
C23   C     C_R   0.391329 0.931886 0.454560 -0.029274
C24   C     C_R   0.025798 0.626881 0.563055 0.501820
C25   C     C_R   0.621560 0.058736 0.508252 -0.058080
C26   C     C_R   0.103425 0.432460 0.563406 -0.032403
C27   C     C_R   0.867573 0.557281 0.515617 -0.060604
C28   C     C_R   0.889788 0.434317 0.459371 -0.029938
C29   C     C_R   0.102670 0.564528 0.563234 -0.059710
C30   C     C_R   0.656589 0.934025 0.556158 -0.215005
C31   C     C_R   0.334287 0.061509 0.474419 -0.230571
C32   C     C_R   0.343203 0.934054 0.447073 -0.215956
C33   C     C_R   0.664981 0.061500 0.528619 -0.233275
C34   C     C_R   0.155287 0.434340 0.559733 -0.221709
C35   C     C_R   0.528061 0.865654 0.563000 0.523976
C36   C     C_R   0.831057 0.561157 0.480727 -0.228408
C37   C     C_R   0.842818 0.434951 0.448550 -0.215353
C38   C     C_R   0.155042 0.564631 0.558836 -0.228125
C39   C     C_R   0.680033 0.999463 0.556367 0.529436
C40   C     C_R   0.320536 0.999455 0.444652 0.526576
C41   C     C_R   0.177424 0.499772 0.565609 0.524841
C42   C     C_R   0.820139 0.499957 0.445518 0.533720
C43   C     C_R   0.590421 0.994469 0.527588 0.059686
C44   C     C_R   0.406169 0.994217 0.483666 0.058264
C45   C     C_R   0.079196 0.497750 0.559452 0.058968
C46   C     C_R   0.435863 0.117268 0.545544 0.523395
C47   C     C_R   0.900686 0.495344 0.496645 0.058535
C48   C     C_R   0.073321 0.367885 0.575638 -0.300522
C49   C     C_R   0.870200 0.610494 0.572592 -0.281138
C50   C     C_R   0.926358 0.375622 0.432380 -0.297426
C51   C     C_R   0.072648 0.628082 0.571264 -0.267079
C52   C     C_R   0.572590 0.870309 0.579201 -0.301682
C53   C     C_R   0.387996 0.117020 0.540636 -0.270538
C54   C     C_R   0.424914 0.869661 0.433712 -0.300644
C55   C     C_R   0.608055 0.116587 0.468474 -0.273526
C56   C     C_3   0.001470 0.248576 0.625802 0.052072
C57   C     C_R   0.467049 0.864703 0.456067 0.521671
C58   C     C_3   0.956447 0.192566 0.650058 -0.769208
C59   C     C_3   0.885021 0.612013 0.746095 0.016305
C60   C     C_3   0.912267 0.636405 0.799246 -0.727600
C61   C     C_3   0.994022 0.253091 0.404292 0.141681
C62   C     C_3   0.039098 0.198399 0.384374 -0.773408
C63   C     C_3   0.027879 0.705729 0.459957 0.083440
C64   C     C_3   0.002408 0.774021 0.447286 -0.779653
C65   C     C_3   0.512680 0.741594 0.593954 0.142678
C66   C     C_3   0.470828 0.683067 0.608767 -0.788786
C67   C     C_3   0.440356 0.160317 0.667144 0.025135
C68   C     C_R   0.558760 0.116992 0.468150 0.519050
C69   C     C_3   0.470716 0.215880 0.691641 -0.689181
C70   C     C_3   0.499811 0.753947 0.376457 0.055859
C71   C     C_3   0.545698 0.698940 0.349576 -0.767398
C72   C     C_3   0.554891 0.158028 0.345606 0.023769
C73   C     C_3   0.526248 0.213650 0.317989 -0.694135
C74   C     C_3   0.691094 0.437087 0.055685 0.106160
C75   C     C_3   0.645677 0.489955 0.114371 -0.636974
C76   C     C_3   0.389941 0.754130 0.871177 0.071939
C77   C     C_3   0.446579 0.725772 0.845625 -0.696403
C78   C     C_3   0.306361 0.438648 0.947869 0.107394
C79   C     C_R   0.723091 0.279812 0.953642 -0.214374
C80   C     C_3   0.350614 0.492241 0.887034 -0.621887
C81   C     C_3   0.606667 0.770383 0.118354 0.068288
C82   C     C_3   0.551985 0.744944 0.130075 -0.720228
C83   C     C_3   0.194065 0.936375 0.047282 0.101594
C84   C     C_3   0.151101 0.991482 0.107333 -0.622005
C85   C     C_3   0.894112 0.270091 0.881443 0.069791
C86   C     C_3   0.948196 0.244374 0.871662 -0.721445
C87   C     C_3   0.809765 0.937776 0.945266 0.114102
C88   C     C_3   0.854930 0.990355 0.884487 -0.637066
C89   C     C_3   0.106876 0.257677 0.125124 0.067791
C90   C     C_R   0.281133 0.748521 0.048085 -0.203426
C91   C     C_3   0.050385 0.226423 0.154514 -0.697524
C92   C     C_3   0.756842 0.130880 0.860828 0.117167
C93   C     C_3   0.779888 0.082247 0.778055 -0.770986
C94   C     C_3   0.170623 0.801912 0.235207 0.127372
C95   C     C_3   0.151336 0.849638 0.318232 -0.799800
C96   C     C_3   0.251376 0.126525 0.130214 0.112802
C97   C     C_3   0.231381 0.075252 0.210183 -0.760367
C98   C     C_3   0.828768 0.790919 0.764154 0.182791
C99   C     C_3   0.853417 0.831952 0.675321 -0.761126
C100  C     C_3   0.244335 0.621617 0.874828 0.107625
C101  C     C_R   0.277909 0.278190 0.045897 -0.210395
C102  C     C_3   0.262190 0.570810 0.794923 -0.759316
C103  C     C_3   0.670594 0.284114 0.234832 0.133159
C104  C     C_3   0.644156 0.323415 0.325078 -0.782371
C105  C     C_3   0.745344 0.629530 0.135019 0.111828
C106  C     C_3   0.723513 0.580080 0.216939 -0.765335
C107  C     C_3   0.328666 0.289543 0.766890 0.133130
C108  C     C_3   0.354115 0.330425 0.677775 -0.780261
C109  C     C_R   0.301380 0.737791 0.323458 0.941745
C110  C     C_R   0.717129 0.753401 0.952177 -0.211089
C111  C     C_R   0.219855 0.774431 0.956147 -0.205876
C112  C     C_R   0.783156 0.252633 0.047346 -0.213029
C113  C     C_R   0.777655 0.779289 0.045359 -0.212476
C114  C     C_R   0.217148 0.251350 0.953259 -0.213173
C115  C     C_R   0.770876 0.235510 0.915980 0.286730
C116  C     C_R   0.234509 0.795165 0.085214 0.269713
C117  C     C_R   0.231924 0.230828 0.081709 0.292329
C118  C     C_R   0.765229 0.797279 0.913470 0.252888
C119  C     C_R   0.265089 0.726137 0.921151 0.289117
C120  C     C_R   0.296763 0.273225 0.325025 0.979895
C121  C     C_R   0.734770 0.295616 0.086493 0.263740
C122  C     C_R   0.730044 0.734586 0.082548 0.288282
C123  C     C_R   0.264391 0.296856 0.915509 0.264905
C124  C     C_R   0.804440 0.233308 0.955345 0.410727
C125  C     C_R   0.208902 0.813857 0.034727 0.366361
C126  C     C_R   0.197613 0.228337 0.043831 0.400496
C127  C     C_R   0.790717 0.816387 0.964058 0.363264
C128  C     C_R   0.299685 0.723838 0.958438 0.397363
C129  C     C_R   0.709735 0.315838 0.035702 0.365893
C130  C     C_R   0.696155 0.733174 0.043825 0.413912
C131  C     C_R   0.698453 0.738295 0.676434 0.925183
C132  C     C_R   0.289593 0.316646 0.966277 0.365796
C133  C     C_R   0.634036 0.312866 0.952978 0.604359
C134  C     C_R   0.345716 0.663695 0.072037 0.577010
C135  C     C_R   0.366554 0.312244 0.046506 0.603784
C136  C     C_R   0.653537 0.666310 0.928969 0.574601
C137  C     C_R   0.132150 0.810712 0.954215 0.607216
C138  C     C_R   0.846518 0.165790 0.070888 0.576975
C139  C     C_R   0.866572 0.812032 0.046422 0.604590
C140  C     C_R   0.153645 0.165228 0.928507 0.574089
C141  C     C_R   0.608645 0.336882 0.904577 -0.330818
C142  C     C_R   0.203040 0.772807 0.675113 0.962276
C143  C     C_R   0.380829 0.650922 0.107466 -0.364501
C144  C     C_R   0.391876 0.336321 0.094991 -0.332568
C145  C     C_R   0.619178 0.651451 0.892474 -0.370500
C146  C     C_R   0.107624 0.835962 0.905083 -0.335671
C147  C     C_R   0.880755 0.151083 0.107600 -0.371471
C148  C     C_R   0.891836 0.836263 0.094964 -0.330340
C149  C     C_R   0.118907 0.151506 0.892633 -0.364567
C150  C     C_R   0.628283 0.315447 0.817148 0.516513
C151  C     C_R   0.373200 0.687688 0.182950 0.514111
C152  C     C_R   0.372166 0.314900 0.182531 0.517100
C153  C     C_R   0.801489 0.238124 0.323561 0.933508
C154  C     C_R   0.626956 0.687448 0.816444 0.510885
C155  C     C_R   0.127549 0.814858 0.817322 0.517749
C156  C     C_R   0.872888 0.187085 0.183703 0.510181
C157  C     C_R   0.872057 0.814960 0.182516 0.520082
C158  C     C_R   0.126597 0.187959 0.816923 0.512818
C159  C     C_R   0.680977 0.289785 0.769529 -0.233955
C160  C     C_R   0.328593 0.732067 0.225749 -0.220191
C161  C     C_R   0.319460 0.288990 0.230123 -0.234347
C162  C     C_R   0.670997 0.733007 0.774023 -0.210566
C163  C     C_R   0.179909 0.787817 0.770336 -0.231428
C164  C     C_R   0.796674 0.773398 0.325048 0.984278
C165  C     C_R   0.828921 0.232636 0.225952 -0.213497
C166  C     C_R   0.819312 0.789243 0.230097 -0.236029
C167  C     C_R   0.170981 0.232954 0.774332 -0.214602
C168  C     C_R   0.713378 0.283901 0.811430 -0.366564
C169  C     C_R   0.303737 0.759768 0.178051 -0.359204
C170  C     C_R   0.287271 0.282365 0.187945 -0.357461
C171  C     C_R   0.695223 0.762227 0.821971 -0.367976
C172  C     C_R   0.211424 0.779492 0.813424 -0.357113
C173  C     C_R   0.804838 0.261719 0.177781 -0.362787
C174  C     C_R   0.787076 0.782937 0.187880 -0.363770
C175  C     C_R   0.198466 0.238215 0.676543 0.928627
C176  C     C_R   0.195339 0.261582 0.822493 -0.363043
C177  C     C_R   0.689776 0.291410 0.906143 0.036961
C178  C     C_R   0.311180 0.725554 0.098554 0.066303
C179  C     C_R   0.311021 0.290181 0.093328 0.035672
C180  C     C_R   0.687794 0.728637 0.901538 0.060141
C181  C     C_R   0.187281 0.787218 0.908082 0.033314
C182  C     C_R   0.812318 0.227970 0.098202 0.062973
C183  C     C_R   0.810845 0.790542 0.093103 0.035021
C184  C     C_R   0.187830 0.227465 0.902051 0.060235
C185  C     C_R   0.694807 0.127633 0.522495 0.952688
C186  C     C_R   0.028735 0.364873 0.559486 0.526152
C187  C     C_R   0.309273 0.870045 0.463517 0.909523
C188  C     C_R   0.304977 0.127586 0.478274 0.953586
C189  C     C_R   0.690623 0.869897 0.537415 0.908684
C190  C     C_R   0.190792 0.629200 0.535413 0.939893
C191  C     C_R   0.809277 0.370313 0.463821 0.905295
C192  C     C_R   0.803873 0.627587 0.480755 0.956711
C193  C     C_R   0.190854 0.370446 0.536027 0.913543
C194  C     C_R   0.076813 0.096391 0.930534 0.979537
C195  C     C_R   0.931319 0.894741 0.061073 0.955288
C196  C     C_R   0.923052 0.096220 0.069562 0.980164
F1    F     F_    0.720041 0.001429 0.578831 -0.638771
F2    F     F_    0.844113 0.116612 0.014190 -0.660114
F3    F     F_    0.897862 0.807053 0.955277 -0.615504
F4    F     F_    0.157795 0.113731 0.981027 -0.661146
F5    F     F_    0.597343 0.324538 0.777190 -0.618872
F6    F     F_    0.404877 0.674304 0.220682 -0.647381
F7    F     F_    0.402975 0.324403 0.222686 -0.617706
F8    F     F_    0.595756 0.672677 0.778138 -0.646621
F9    F     F_    0.097339 0.825683 0.776386 -0.615461
F10   F     F_    0.904014 0.172431 0.222118 -0.645236
F11   F     F_    0.902866 0.824401 0.222680 -0.614760
F12   F     F_    0.282340 0.001375 0.418158 -0.641052
F13   F     F_    0.095197 0.173781 0.778831 -0.648077
F14   F     F_    0.223161 0.500201 0.573461 -0.638304
F15   F     F_    0.784385 0.502014 0.413947 -0.640514
F16   F     F_    0.602719 0.307627 0.044091 -0.617114
F17   F     F_    0.341253 0.611264 0.020678 -0.658651
F18   F     F_    0.397430 0.308425 0.955187 -0.620001
F19   F     F_    0.656137 0.616993 0.985287 -0.660960
F20   F     F_    0.100978 0.807413 0.045536 -0.610911
H1    H     H_    0.083197 0.320533 0.601039 0.172052
H2    H     H_    0.277166 0.805037 0.208340 0.265036
H3    H     H_    0.756876 0.030302 0.795539 0.219995
H4    H     H_    0.776081 0.109309 0.723511 0.273025
H5    H     H_    0.179522 0.746771 0.250912 0.137864
H6    H     H_    0.136907 0.798406 0.219293 0.194644
H7    H     H_    0.141532 0.904690 0.304308 0.252551
H8    H     H_    0.114166 0.826442 0.376278 0.200612
H9    H     H_    0.183916 0.854057 0.336397 0.269257
H10   H     H_    0.294591 0.141476 0.107849 0.153056
H11   H     H_    0.250379 0.097283 0.074111 0.129113
H12   H     H_    0.187999 0.059928 0.235129 0.250060
H13   H     H_    0.243999 0.271549 0.229802 0.257779
H14   H     H_    0.256853 0.025438 0.189433 0.218504
H15   H     H_    0.234485 0.101963 0.265630 0.273854
H16   H     H_    0.814403 0.737205 0.754729 0.149317
H17   H     H_    0.861585 0.783824 0.781463 0.204668
H18   H     H_    0.869367 0.885211 0.682174 0.244554
H19   H     H_    0.887645 0.800177 0.621808 0.233234
H20   H     H_    0.821948 0.840931 0.655498 0.255002
H21   H     H_    0.200916 0.637151 0.899859 0.154287
H22   H     H_    0.246713 0.591798 0.929330 0.131695
H23   H     H_    0.305590 0.554554 0.767691 0.253562
H24   H     H_    0.721236 0.808401 0.792439 0.264169
H25   H     H_    0.236072 0.521475 0.816636 0.214422
H26   H     H_    0.258092 0.598303 0.740891 0.273157
H27   H     H_    0.685886 0.230657 0.242916 0.132198
H28   H     H_    0.638780 0.275676 0.215304 0.183540
H29   H     H_    0.626380 0.375507 0.319577 0.250544
H30   H     H_    0.611079 0.289709 0.377929 0.241728
H31   H     H_    0.675166 0.334663 0.345390 0.264734
H32   H     H_    0.789098 0.641708 0.111964 0.153694
H33   H     H_    0.743123 0.600024 0.080144 0.131007
H34   H     H_    0.679608 0.567516 0.242442 0.251131
H35   H     H_    0.254560 0.767689 0.772225 0.258401
H36   H     H_    0.747119 0.528688 0.198129 0.217875
H37   H     H_    0.727631 0.606982 0.271319 0.273860
H38   H     H_    0.314655 0.235557 0.757247 0.134359
H39   H     H_    0.360731 0.282341 0.786017 0.186137
H40   H     H_    0.370058 0.383568 0.684991 0.249078
H41   H     H_    0.388444 0.298709 0.624322 0.242261
H42   H     H_    0.322999 0.339694 0.657226 0.263071
H43   H     H_    0.778971 0.308022 0.206961 0.264464
H44   H     H_    0.743772 0.772743 0.230034 0.256641
H45   H     H_    0.221475 0.307622 0.792979 0.264234
H46   H     H_    0.996073 0.272112 0.689389 0.145373
H47   H     H_    0.041665 0.220495 0.588297 0.158953
H48   H     H_    0.958209 0.150661 0.695008 0.226347
H49   H     H_    0.839079 0.651831 0.603759 0.181425
H50   H     H_    0.915571 0.218954 0.685305 0.280661
H51   H     H_    0.961873 0.165656 0.588120 0.236706
H52   H     H_    0.891120 0.552189 0.736312 0.131098
H53   H     H_    0.840213 0.621949 0.787417 0.137015
H54   H     H_    0.906754 0.695383 0.812832 0.280547
H55   H     H_    0.893692 0.607214 0.864756 0.191184
H56   H     H_    0.956790 0.624108 0.760614 0.256200
H57   H     H_    0.985694 0.250577 0.347560 0.130445
H58   H     H_    0.956543 0.237103 0.468261 0.160097
H59   H     H_    0.025191 0.143229 0.379109 0.197643
H60   H     H_    0.922924 0.334213 0.390958 0.161962
H61   H     H_    0.076630 0.211920 0.319746 0.272689
H62   H     H_    0.049377 0.198670 0.438952 0.266574
H63   H     H_    0.019152 0.660489 0.425803 0.140498
H64   H     H_    0.073061 0.713337 0.426729 0.129705
H65   H     H_    0.007701 0.819989 0.484137 0.256103
H66   H     H_    0.022531 0.787735 0.374385 0.219205
H67   H     H_    0.958038 0.765026 0.473100 0.255906
H68   H     H_    0.523018 0.735656 0.648208 0.136526
H69   H     H_    0.550069 0.732693 0.526966 0.159970
H70   H     H_    0.488999 0.628733 0.603671 0.200351
H71   H     H_    0.083507 0.680368 0.585401 0.219138
H72   H     H_    0.433952 0.688931 0.676648 0.268288
H73   H     H_    0.457942 0.687473 0.557469 0.269624
H74   H     H_    0.456305 0.105906 0.670416 0.142161
H75   H     H_    0.395996 0.161824 0.718190 0.118605
H76   H     H_    0.458023 0.271594 0.685935 0.256904
H77   H     H_    0.461579 0.206753 0.761965 0.230229
H78   H     H_    0.515601 0.210606 0.645192 0.261800
H79   H     H_    0.505889 0.780662 0.313994 0.143210
H80   H     H_    0.460044 0.724371 0.410671 0.160376
H81   H     H_    0.545300 0.659124 0.301337 0.228570
H82   H     H_    0.579257 0.827385 0.615344 0.165681
H83   H     H_    0.586093 0.726775 0.317344 0.276348
H84   H     H_    0.540175 0.669002 0.409698 0.237282
H85   H     H_    0.538220 0.103779 0.343337 0.141780
H86   H     H_    0.599517 0.158453 0.295806 0.118242
H87   H     H_    0.540114 0.269182 0.321781 0.257143
H88   H     H_    0.535741 0.202984 0.247756 0.227046
H89   H     H_    0.481178 0.210138 0.363844 0.263504
H90   H     H_    0.707668 0.451447 0.983442 0.136439
H91   H     H_    0.724241 0.442578 0.072803 0.139959
H92   H     H_    0.627775 0.475195 0.186652 0.222349
H93   H     H_    0.361085 0.162509 0.571509 0.193590
H94   H     H_    0.662167 0.545721 0.104602 0.253429
H95   H     H_    0.612915 0.488456 0.096402 0.286037
H96   H     H_    0.380136 0.798769 0.920984 0.111913
H97   H     H_    0.391194 0.776826 0.810002 0.171779
H98   H     H_    0.457380 0.678806 0.799272 0.259281
H99   H     H_    0.477566 0.769258 0.811957 0.200570
H100  H     H_    0.447265 0.708362 0.907092 0.247675
H101  H     H_    0.290774 0.453789 0.019595 0.147842
H102  H     H_    0.272217 0.442475 0.932951 0.140456
H103  H     H_    0.367566 0.476687 0.815204 0.219104
H104  H     H_    0.418929 0.826040 0.397694 0.165029
H105  H     H_    0.333242 0.547439 0.896843 0.260639
H106  H     H_    0.384290 0.492594 0.902915 0.285955
H107  H     H_    0.622437 0.813799 0.065886 0.113680
H108  H     H_    0.599720 0.795049 0.182417 0.148460
H109  H     H_    0.535884 0.698195 0.176978 0.272133
H110  H     H_    0.521757 0.789807 0.157334 0.192461
H111  H     H_    0.556973 0.728426 0.064111 0.237244
H112  H     H_    0.208409 0.949390 0.975366 0.143445
H113  H     H_    0.229290 0.940810 0.059451 0.143334
H114  H     H_    0.134667 0.977324 0.179431 0.217852
H115  H     H_    0.635212 0.161360 0.434505 0.192698
H116  H     H_    0.169469 0.046227 0.095330 0.258212
H117  H     H_    0.116833 0.992017 0.092902 0.287022
H118  H     H_    0.878176 0.313933 0.933349 0.111063
H119  H     H_    0.901943 0.294253 0.816636 0.149936
H120  H     H_    0.964011 0.196831 0.825998 0.274257
H121  H     H_    0.978932 0.288755 0.843870 0.192756
H122  H     H_    0.942509 0.228926 0.938368 0.235063
H123  H     H_    0.794693 0.952305 0.017026 0.140655
H124  H     H_    0.775561 0.943448 0.930732 0.140213
H125  H     H_    0.871507 0.975181 0.812626 0.222134
H126  H     H_    0.756667 0.274018 0.769024 0.257537
H127  H     H_    0.838608 0.046146 0.894480 0.253320
H128  H     H_    0.888654 0.989018 0.900204 0.284714
H129  H     H_    0.116144 0.298103 0.070885 0.116485
H130  H     H_    0.105754 0.286171 0.183283 0.160727
H131  H     H_    0.040248 0.183101 0.205462 0.258808
H132  H     H_    0.019053 0.269869 0.183979 0.198886
H133  H     H_    0.049520 0.203149 0.095468 0.253893
H134  H     H_    0.713111 0.142167 0.883031 0.154061
H135  H     H_    0.758793 0.101112 0.915740 0.132809
H136  H     H_    0.823813 0.070678 0.753407 0.250629
O1    O     O_R   0.746490 0.236330 0.638080 -0.647265
O2    O     O_R   0.325830 0.813840 0.483730 -0.658220
O3    O     O_R   0.325830 0.186160 0.483730 -0.654111
O4    O     O_R   0.674170 0.813840 0.516270 -0.662678
O5    O     O_R   0.174170 0.686160 0.516270 -0.660203
O6    O     O_R   0.825830 0.313840 0.483730 -0.660146
O7    O     O_R   0.825830 0.686160 0.483730 -0.644298
O8    O     O_R   0.174170 0.313840 0.516270 -0.662192
O9    O     O_R   0.739960 0.127620 0.525000 -0.547355
O10   O     O_R   0.260040 0.872380 0.475000 -0.559763
O11   O     O_R   0.260040 0.127620 0.475000 -0.548883
O12   O     O_R   0.253510 0.763670 0.361920 -0.655746
O13   O     O_R   0.739960 0.872380 0.525000 -0.558967
O14   O     O_R   0.239960 0.627620 0.525000 -0.541218
O15   O     O_R   0.760040 0.372380 0.475000 -0.562081
O16   O     O_R   0.760040 0.627620 0.475000 -0.552816
O17   O     O_R   0.239960 0.372380 0.525000 -0.552428
O18   O     O_R   0.680700 0.294870 0.629350 -0.548467
O19   O     O_R   0.319300 0.705130 0.370650 -0.562494
O20   O     O_R   0.319300 0.294870 0.370650 -0.547545
O21   O     O_R   0.680700 0.705130 0.629350 -0.570573
O22   O     O_R   0.180700 0.794870 0.629350 -0.554318
O23   O     O_R   0.253510 0.236330 0.361920 -0.644803
O24   O     O_R   0.819300 0.205130 0.370650 -0.566561
O25   O     O_R   0.819300 0.794870 0.370650 -0.546741
O26   O     O_R   0.180700 0.205130 0.629350 -0.569239
O27   O     O_R   0.062020 0.072840 0.007170 -0.598423
O28   O     O_R   0.937980 0.927160 0.992830 -0.593510
O29   O     O_R   0.937980 0.072840 0.992830 -0.592247
O30   O     O_R   0.062020 0.927160 0.007170 -0.590374
O31   O     O_R   0.562020 0.572840 0.007170 -0.591860
O32   O     O_R   0.437980 0.427160 0.992830 -0.588921
O33   O     O_R   0.437980 0.572840 0.992830 -0.597595
O34   O     O_R   0.746490 0.763670 0.638080 -0.669868
O35   O     O_R   0.562020 0.427160 0.007170 -0.594971
O36   O     O_R   0.947860 0.073950 0.109290 -0.565286
O37   O     O_R   0.052140 0.926050 0.890710 -0.563053
O38   O     O_R   0.052140 0.073950 0.890710 -0.564062
O39   O     O_R   0.947860 0.926050 0.109290 -0.564153
O40   O     O_R   0.447860 0.573950 0.109290 -0.563836
O41   O     O_R   0.552140 0.426050 0.890710 -0.564810
O42   O     O_R   0.552140 0.573950 0.890710 -0.565224
O43   O     O_R   0.447860 0.426050 0.109290 -0.564079
O44   O     O_3   0.997313 0.302690 0.571415 -0.607078
O45   O     O_R   0.246490 0.736330 0.638080 -0.647166
O46   O     O_3   0.906472 0.652386 0.664762 -0.588714
O47   O     O_3   0.012309 0.323116 0.410547 -0.598169
O48   O     O_3   0.005554 0.692303 0.553193 -0.559827
O49   O     O_3   0.489171 0.810228 0.598872 -0.601982
O50   O     O_3   0.447897 0.177294 0.581038 -0.582091
O51   O     O_3   0.502202 0.805293 0.435430 -0.606004
O52   O     O_3   0.546192 0.176040 0.432138 -0.580519
O53   O     O_3   0.668439 0.366832 0.072606 -0.518111
O54   O     O_3   0.351887 0.696304 0.905148 -0.524852
O55   O     O_3   0.330033 0.369086 0.931067 -0.523143
O56   O     O_R   0.753510 0.263670 0.361920 -0.663729
O57   O     O_3   0.642398 0.710381 0.097190 -0.518088
O58   O     O_3   0.169360 0.867322 0.068505 -0.527731
O59   O     O_3   0.858096 0.210304 0.902338 -0.518630
O60   O     O_3   0.832130 0.867432 0.927707 -0.522282
O61   O     O_3   0.145359 0.200553 0.096672 -0.520213
O62   O     O_3   0.787626 0.195737 0.838133 -0.586749
O63   O     O_3   0.218470 0.833149 0.163889 -0.612326
O64   O     O_3   0.217439 0.188498 0.156970 -0.580630
O65   O     O_3   0.784348 0.830774 0.830987 -0.622463
O66   O     O_3   0.278847 0.683163 0.846659 -0.580349
O67   O     O_R   0.753510 0.736330 0.361920 -0.646166
O68   O     O_3   0.714399 0.326548 0.170595 -0.605486
O69   O     O_3   0.713807 0.693658 0.159397 -0.584972
O70   O     O_3   0.283882 0.329634 0.832611 -0.608789
O71   O     O_R   0.246490 0.263670 0.638080 -0.665473
O72   O     O_R   0.674170 0.186160 0.516270 -0.653150
Zn1   Zn    Zn3+2 0.792340 0.208750 0.507670 1.014363
Zn2   Zn    Zn3+2 0.494040 0.500000 0.919480 1.077799
Zn3   Zn    Zn3+2 0.005960 0.000000 0.080520 1.079348
Zn4   Zn    Zn3+2 0.994040 0.000000 0.919480 1.080951
Zn5   Zn    Zn3+2 0.207660 0.791250 0.492330 1.018427
Zn6   Zn    Zn3+2 0.207660 0.208750 0.492330 1.018550
Zn7   Zn    Zn3+2 0.792340 0.791250 0.507670 1.016245
Zn8   Zn    Zn3+2 0.292340 0.708750 0.507670 1.026680
Zn9   Zn    Zn3+2 0.707660 0.291250 0.492330 1.019093
Zn10  Zn    Zn3+2 0.707660 0.708750 0.492330 1.008382
Zn11  Zn    Zn3+2 0.292340 0.291250 0.507670 1.024183
Zn12  Zn    Zn3+2 0.505960 0.500000 0.080520 1.079140

loop_
_geom_bond_atom_site_label_1
_geom_bond_atom_site_label_2
_ccdc_geom_bond_type
C40   F12   S    
C28   C47   A    
C129  O53   S    
C36   C42   A    
C110  C118  A    
C13   C18   A    
C93   H4    S    
C85   H118  S    
C112  C124  A    
C16   C35   A    
C191  O15   A    
C63   H64   S    
C1    O18   A    
C170  H13   S    
C67   H75   S    
O1    Zn1   S    
C59   H53   S    
C82   H109  S    
C65   H69   S    
C30   C189  S    
C106  H36   S    
C37   C42   A    
C193  O8    A    
C134  C143  A    
C75   H94   S    
C113  C122  A    
C10   C20   A    
C38   C190  S    
C111  C125  A    
C192  O7    A    
C195  O39   A    
C90   C116  A    
C156  F10   S    
C117  C126  A    
C119  C128  A    
C24   C51   A    
C143  C151  A    
C169  H2    S    
C59   C60   S    
C8    C16   A    
C106  H37   S    
C54   H104  S    
C24   O48   S    
C158  C167  A    
C48   H1    S    
C77   H99   S    
C166  C174  A    
C150  C159  A    
C137  C146  A    
C1    C159  S    
C22   C31   A    
C124  O59   S    
C168  H126  S    
C142  C163  S    
C132  O55   S    
C87   O60   S    
C70   O51   S    
C107  H38   S    
C29   C45   A    
C96   H10   S    
C118  O65   S    
O19   Zn8   S    
O18   Zn9   S    
C73   H88   S    
O7    Zn7   S    
C163  C172  A    
C191  O6    A    
C98   H16   S    
C173  C182  A    
C49   H49   S    
C187  O10   A    
C88   H125  S    
O21   Zn10  S    
C105  C106  S    
C128  O54   S    
C176  C184  A    
C14   C57   A    
C2    C19   A    
C123  O70   S    
C25   C55   A    
C72   C73   S    
C155  F9    S    
C190  O14   A    
C112  C182  S    
C74   O53   S    
C81   H107  S    
C131  O34   A    
O40   Zn12  S    
C7    O35   A    
C83   H113  S    
C106  H34   S    
C66   H72   S    
C9    C15   A    
C75   H92   S    
C100  H21   S    
C46   C53   A    
C140  F4    S    
C138  C182  A    
C71   H83   S    
C189  O4    A    
C20   C186  A    
C101  C132  A    
C64   H66   S    
C97   H12   S    
C98   C99   S    
C1    O1    A    
C69   H78   S    
C150  F5    S    
C142  O22   A    
C193  O17   A    
C92   H135  S    
C3    O37   A    
C11   C18   A    
O32   Zn2   S    
C120  O23   A    
C79   C115  A    
C123  C132  A    
O42   Zn2   S    
C53   H93   S    
C157  F11   S    
C73   H89   S    
C25   C43   A    
C67   O50   S    
C71   H81   S    
C164  O25   A    
C85   C86   S    
C48   C186  A    
C12   C68   A    
C102  H23   S    
C134  F17   S    
O9    Zn1   S    
C173  H43   S    
C93   H136  S    
C174  H44   S    
C114  C126  A    
C78   C80   S    
C137  C181  A    
C98   O65   S    
O2    Zn8   S    
C111  C119  A    
C52   H82   S    
O29   Zn4   S    
O43   Zn12  S    
C26   C45   A    
C172  C181  A    
C83   C84   S    
C58   H51   S    
C107  C108  S    
C79   C177  S    
C152  F7    S    
C100  H22   S    
C102  H26   S    
C88   H127  S    
C89   C91   S    
C149  C158  A    
C152  C161  A    
C75   H95   S    
O6    Zn1   S    
C80   H105  S    
C108  H41   S    
C185  O72   A    
C105  O69   S    
C141  C150  A    
C130  O57   S    
C13   O47   S    
C139  C148  A    
C109  O19   A    
C4    O42   A    
C66   H70   S    
C56   H47   S    
C66   H73   S    
C38   C41   A    
O8    Zn6   S    
C131  O21   A    
C131  C162  S    
C155  C163  A    
C89   H130  S    
C84   H117  S    
C95   H7    S    
C95   H9    S    
C94   O63   S    
C72   H86   S    
O45   Zn8   S    
C148  C195  S    
C97   H14   S    
O28   Zn4   S    
C8    C12   A    
O12   Zn5   S    
C10   C45   A    
C103  H28   S    
C107  H39   S    
C147  C196  S    
C70   H79   S    
C145  C154  A    
O17   Zn11  S    
C104  H30   S    
C116  C125  A    
C91   H131  S    
C118  C127  A    
C41   F14   S    
C7    C141  S    
O16   Zn10  S    
C29   C51   A    
C27   C47   A    
C6    O40   A    
C32   C187  S    
C153  C165  S    
C36   C192  S    
C154  C162  A    
C59   O46   S    
C63   C64   S    
C154  F8    S    
C172  H35   S    
C86   H121  S    
C170  C179  A    
C93   H3    S    
C136  F19   S    
C107  O70   S    
C112  C121  A    
C144  C152  A    
C99   H20   S    
C63   H63   S    
C113  C183  S    
C87   H123  S    
C28   C37   A    
C153  O56   A    
C114  C184  S    
C4    C145  S    
O10   Zn5   S    
C56   C58   S    
C30   C39   A    
C82   H110  S    
C167  C175  S    
C148  C157  A    
C60   H55   S    
C61   C62   S    
C80   H103  S    
C13   C50   A    
C84   H114  S    
C94   H6    S    
C15   C46   A    
C72   O52   S    
C121  O68   S    
C140  C149  A    
C27   C49   A    
C25   C33   A    
C54   C57   A    
C87   C88   S    
C90   C178  S    
C11   C47   A    
C8    C43   A    
C92   H134  S    
C55   C68   A    
C142  O45   A    
C81   O57   S    
C77   H98   S    
C11   C19   A    
C140  C184  A    
C78   H101  S    
O31   Zn12  S    
C51   H71   S    
C96   O64   S    
C85   O59   S    
C135  F18   S    
C91   H133  S    
C171  H24   S    
C65   O49   S    
C168  C177  A    
C79   C129  A    
C109  O12   A    
C111  C181  S    
C31   C40   A    
C187  O2    A    
C194  O27   A    
C76   H96   S    
O5    Zn5   S    
C196  O29   A    
C146  C155  A    
O22   Zn5   S    
C9    C44   A    
C127  O60   S    
C73   H87   S    
C160  C169  A    
C70   C71   S    
C62   H61   S    
C175  O71   A    
C74   H90   S    
C26   C48   A    
C188  O3    A    
C189  O13   A    
C39   F1    S    
O38   Zn4   S    
C108  H40   S    
C34   C41   A    
C192  O16   A    
O33   Zn2   S    
C85   H119  S    
C186  O44   S    
C99   H18   S    
C5    C144  S    
O26   Zn6   S    
C23   C44   A    
C56   H46   S    
C9    C14   A    
C12   C15   A    
C84   H116  S    
O67   Zn10  S    
C83   O58   S    
C134  C178  A    
C147  C156  A    
O41   Zn2   S    
C34   C193  S    
C137  F20   S    
C56   O44   S    
C69   H77   S    
C151  F6    S    
C77   H100  S    
C115  C124  A    
C121  C129  A    
C174  C183  A    
C92   O62   S    
C63   O48   S    
O13   Zn7   S    
O11   Zn6   S    
O14   Zn8   S    
C27   C36   A    
C21   C30   A    
C133  C141  A    
C68   O52   S    
C69   H76   S    
C101  C117  A    
C23   C32   A    
C57   O51   S    
C105  H33   S    
C133  C177  A    
C156  C165  A    
C92   C93   S    
C78   O55   S    
C110  C130  A    
C62   H59   S    
C94   C95   S    
C135  C179  A    
C153  O24   A    
C176  H45   S    
C116  O63   S    
C35   C52   A    
O15   Zn9   S    
C61   H57   S    
C33   C185  S    
C88   H128  S    
C60   H54   S    
C89   H129  S    
C164  O67   A    
O71   Zn11  S    
C76   H97   S    
C80   H106  S    
C108  H42   S    
C76   O54   S    
O4    Zn10  S    
C81   C82   S    
C105  H32   S    
O25   Zn7   S    
C125  O58   S    
C81   H108  S    
C98   H17   S    
C67   H74   S    
C33   C39   A    
C59   H52   S    
O37   Zn4   S    
C6    O33   A    
O23   Zn6   S    
C2    O46   S    
C139  F3    S    
O24   Zn1   S    
C10   C17   A    
C165  C173  A    
O72   Zn9   S    
C159  C168  A    
C126  O61   S    
C86   H120  S    
O56   Zn9   S    
C71   H84   S    
C103  C104  S    
C4    O31   A    
C21   C43   A    
C28   C50   A    
C64   H65   S    
C26   C34   A    
C22   C44   A    
C35   O49   S    
C31   C188  S    
C185  O9    A    
C89   O61   S    
O30   Zn3   S    
O39   Zn3   S    
C65   H68   S    
C87   H124  S    
C136  C145  A    
C195  O28   A    
C104  H31   S    
C46   O50   S    
C5    O32   A    
C22   C53   A    
C94   H5    S    
C17   C24   A    
C74   C75   S    
C96   H11   S    
C7    O41   A    
C76   C77   S    
C100  O66   S    
C86   H122  S    
C67   C69   S    
C29   C38   A    
O3    Zn11  S    
C101  C179  S    
C2    C49   A    
C149  C194  S    
C99   H19   S    
C103  H27   S    
C110  C180  S    
C138  C147  A    
C61   H58   S    
C190  O5    A    
C96   C97   S    
C58   H50   S    
C100  C102  S    
C3    O30   A    
C82   H111  S    
C102  H25   S    
C60   H56   S    
C114  C123  A    
C103  O68   S    
C120  C161  S    
C161  C170  A    
C138  F2    S    
C135  C144  A    
C37   C191  S    
C65   C66   S    
C70   H80   S    
O36   Zn3   S    
C14   C16   A    
C171  C180  A    
C169  C178  A    
C139  C183  A    
C23   C54   A    
C175  O26   A    
C83   H112  S    
C61   O47   S    
C157  C166  A    
O35   Zn12  S    
C113  C127  A    
O34   Zn7   S    
C136  C180  A    
C95   H8    S    
C78   H102  S    
C55   H115  S    
C151  C160  A    
C164  C166  S    
C58   H48   S    
C122  O69   S    
C72   H85   S    
C117  O64   S    
C64   H67   S    
C97   H15   S    
C188  O11   A    
C158  F13   S    
C119  O66   S    
C17   C19   A    
C5    O43   A    
C18   C20   A    
C32   C40   A    
C74   H91   S    
C115  O62   S    
C162  C171  A    
C3    C146  S    
C104  H29   S    
C120  O20   A    
O20   Zn11  S    
C50   H60   S    
C91   H132  S    
C196  O36   A    
C133  F16   S    
C90   C128  A    
C62   H62   S    
C6    C143  S    
C194  O38   A    
C109  C160  S    
C122  C130  A    
C21   C52   A    
O27   Zn3   S    
C42   F15   S    
C167  C176  A    
