data_mof_unit_13535.cif
_audit_creation_date              2012-12-10T20:03:06-0500
_audit_creation_method            fapswitch 2.2
_symmetry_space_group_name_H-M    P1
_symmetry_Int_Tables_number       1
_space_group_crystal_system       triclinic
_cell_length_a                    8.564202
_cell_length_b                    19.222649
_cell_length_c                    18.458051
_cell_angle_alpha                 89.956527
_cell_angle_beta                  98.699034
_cell_angle_gamma                 90.317339
_cell_volume                      3003.68527383

loop_
_atom_site_label
_atom_site_type_symbol
_atom_type_description
_atom_site_fract_x
_atom_site_fract_y
_atom_site_fract_z
_atom_type_partial_charge
C1    C     C_R   0.499789 0.365988 0.500042 0.860781
C2    C     C_R   0.502173 0.634270 0.500114 0.867325
C3    C     C_R   0.534263 0.964842 0.570716 0.004208
C4    C     C_R   0.603206 0.036721 0.445683 0.012698
C5    C     C_R   0.538877 0.037048 0.570128 -0.229968
C6    C     C_R   0.616209 0.964684 0.449750 -0.227847
C7    C     C_R   0.562426 0.072956 0.506739 0.019875
C8    C     C_R   0.571263 0.928410 0.509112 0.019846
C9    C     C_R   0.595587 0.544911 0.733027 0.035961
C10   C     C_R   0.404409 0.455134 0.266918 0.035920
C11   C     C_R   0.595673 0.546002 0.809148 -0.242673
C12   C     C_R   0.404291 0.454136 0.190793 -0.244203
C13   C     C_R   0.495655 0.500879 0.841103 0.162695
C14   C     C_R   0.504237 0.499330 0.158885 0.163785
C15   C     C_R   0.400106 0.454393 0.794899 -0.207888
C16   C     C_R   0.599722 0.545798 0.205135 -0.208791
C17   C     C_R   0.403517 0.455026 0.719067 0.015785
C18   C     C_R   0.596358 0.545062 0.280970 0.011454
C19   C     C_R   0.355455 0.508518 0.953517 0.291974
C20   C     C_R   0.644456 0.491783 0.046474 0.292017
C21   C     C_R   0.360938 0.507344 0.030051 -0.248152
C22   C     C_R   0.638972 0.492953 0.969941 -0.247563
C23   C     C_R   0.200857 0.499904 0.480866 0.973368
C24   C     C_R   0.799140 0.499963 0.519134 0.970944
C25   C     C_R   0.504399 0.499386 0.077628 -0.019064
C26   C     C_R   0.495507 0.500896 0.922362 -0.018480
C27   C     C_2   0.035781 0.499857 0.470479 -0.388773
C28   C     C_2   0.964209 0.499792 0.529522 -0.390086
C29   C     C_R   0.443239 0.748374 0.442663 -0.248779
C30   C     C_R   0.387266 0.251494 0.518937 -0.256977
C31   C     C_R   0.457918 0.820629 0.443531 0.022317
C32   C     C_R   0.398179 0.179069 0.520392 0.029448
C33   C     C_R   0.554699 0.852750 0.503629 0.064765
C34   C     C_R   0.540482 0.148217 0.505380 0.055278
C35   C     C_R   0.635273 0.812218 0.560228 -0.165990
C36   C     C_R   0.666251 0.189791 0.489849 -0.156739
C37   C     C_R   0.614448 0.740861 0.559871 -0.190605
C38   C     C_R   0.650822 0.261246 0.486343 -0.190690
C39   C     C_R   0.518272 0.709039 0.501255 -0.038954
C40   C     C_R   0.511881 0.291670 0.501078 -0.018415
H1    H     H_    0.973662 0.499975 0.414498 0.187756
H2    H     H_    0.026326 0.499652 0.585503 0.187371
H3    H     H_    0.324241 0.417515 0.817349 0.165266
H4    H     H_    0.675505 0.582737 0.182721 0.165528
H5    H     H_    0.329009 0.419410 0.683772 0.125541
H6    H     H_    0.670790 0.580676 0.316297 0.129288
H7    H     H_    0.252355 0.513998 0.052656 0.207395
H8    H     H_    0.747555 0.486295 0.947337 0.207400
H9    H     H_    0.369669 0.722854 0.397290 0.155033
H10   H     H_    0.280467 0.276756 0.530091 0.131698
H11   H     H_    0.712642 0.836121 0.605350 0.142092
H12   H     H_    0.776297 0.166681 0.480034 0.160485
H13   H     H_    0.675957 0.710330 0.604594 0.146724
H14   H     H_    0.748154 0.292955 0.473613 0.139267
H15   H     H_    0.511686 0.065570 0.617309 0.156717
H16   H     H_    0.648251 0.936135 0.403578 0.153387
H17   H     H_    0.671843 0.580141 0.708683 0.127914
H18   H     H_    0.328143 0.419877 0.291214 0.133475
H19   H     H_    0.672241 0.582241 0.842766 0.161807
H20   H     H_    0.327744 0.417919 0.157135 0.161381
N1    N     N_R   0.500020 0.499980 0.689440 -0.097405
N2    N     N_R   0.499980 0.500020 0.310560 -0.098154
O1    O     O_R   0.500010 0.398180 0.560840 -0.621491
O2    O     O_R   0.499990 0.601820 0.439160 -0.625985
O3    O     O_R   0.499930 0.398180 0.439210 -0.620046
O4    O     O_R   0.500070 0.601820 0.560790 -0.622936
O5    O     O_R   0.271780 0.500000 0.546590 -0.617337
O6    O     O_R   0.728220 0.500000 0.453410 -0.617286
O7    O     O_R   0.271710 0.499990 0.424960 -0.624382
O8    O     O_R   0.728290 0.500010 0.575040 -0.624967
Zn1   Zn    Zn3+2 0.500050 0.500000 0.581210 0.949400
Zn2   Zn    Zn3+2 0.499950 0.500000 0.418790 0.948918
Br1   Br    Br    0.154377 0.525320 0.894733 -0.557190
Br2   Br    Br    0.845543 0.475004 0.105261 -0.555866
C41   C     C_R   0.371264 0.860448 0.381230 0.107828
C42   C     C_R   0.263925 0.912782 0.392991 -0.134787
C43   C     C_R   0.187717 0.951577 0.334057 -0.152942
C44   C     C_R   0.216557 0.938027 0.262968 -0.096899
C45   C     C_R   0.321300 0.885428 0.250599 -0.120994
C46   C     C_R   0.398172 0.846635 0.309378 -0.170803
H21   H     H_    0.240594 0.923975 0.447691 0.119011
H22   H     H_    0.106737 0.992350 0.343426 0.112612
H23   H     H_    0.157630 0.968245 0.217479 0.120254
H24   H     H_    0.343525 0.874920 0.195483 0.131020
H25   H     H_    0.480585 0.806607 0.299070 0.132218
C47   C     C_R   0.260420 0.138110 0.538123 0.109699
C48   C     C_R   0.196551 0.082410 0.493585 -0.142720
C49   C     C_R   0.069940 0.043479 0.512209 -0.154373
C50   C     C_R   0.003213 0.060675 0.574240 -0.105162
C51   C     C_R   0.063489 0.116661 0.618095 -0.134072
C52   C     C_R   0.191591 0.155107 0.600371 -0.168204
H26   H     H_    0.245324 0.068692 0.444899 0.123122
H27   H     H_    0.023592 0.999756 0.478743 0.118942
H28   H     H_    0.904924 0.030580 0.588335 0.137736
H29   H     H_    0.011621 0.130008 0.666167 0.132852
H30   H     H_    0.238293 0.197649 0.635731 0.130445
C53   C     C_R   0.479617 0.929874 0.634020 0.117931
C54   C     C_R   0.341474 0.888954 0.624282 -0.111847
C55   C     C_R   0.290032 0.856657 0.684372 -0.133534
C56   C     C_R   0.375285 0.865312 0.754573 -0.106240
C57   C     C_R   0.511845 0.906500 0.764822 -0.130445
C58   C     C_R   0.563698 0.938923 0.704862 -0.182890
H31   H     H_    0.273496 0.882141 0.570395 0.117958
H32   H     H_    0.183855 0.825031 0.676523 0.130902
H33   H     H_    0.335301 0.840265 0.801049 0.132180
H34   H     H_    0.577529 0.913319 0.819250 0.131626
H35   H     H_    0.669875 0.970610 0.713479 0.125548
C59   C     C_R   0.622182 0.071369 0.375481 0.119113
C60   C     C_R   0.502148 0.113756 0.338671 -0.120882
C61   C     C_R   0.520991 0.145775 0.272500 -0.133210
C62   C     C_R   0.658758 0.135240 0.242070 -0.102060
C63   C     C_R   0.777519 0.092315 0.277560 -0.135299
C64   C     C_R   0.759049 0.060238 0.343727 -0.167379
H36   H     H_    0.393859 0.121944 0.360855 0.119519
H37   H     H_    0.428499 0.178615 0.244695 0.132236
H38   H     H_    0.673120 0.160048 0.190818 0.132167
H39   H     H_    0.883836 0.083766 0.253759 0.124148
H40   H     H_    0.851472 0.026885 0.370293 0.115064

loop_
_geom_bond_atom_site_label_1
_geom_bond_atom_site_label_2
_ccdc_geom_bond_type
C22   H8    S    
C48   C49   A    
C57   C58   A    
C23   O7    A    
C62   C63   A    
C53   C54   A    
C24   O8    A    
C51   H29   S    
C29   H9    S    
C43   C44   A    
C4    C59   S    
C56   H33   S    
C9    N1    A    
C35   C37   A    
C17   H5    S    
C47   C52   A    
C45   H24   S    
C20   C25   A    
C54   H31   S    
C1    O1    A    
C59   C60   A    
C23   O5    A    
C50   H28   S    
C19   C26   A    
C27   H1    S    
C61   C62   A    
C1    C40   S    
C17   N1    A    
C52   H30   S    
C2    C39   S    
C55   C56   A    
C1    O3    A    
C31   C33   A    
O8    Zn1   S    
C23   C27   S    
C41   C46   A    
C16   H4    S    
C9    H17   S    
C53   C58   A    
C36   H12   S    
C37   H13   S    
N1    Zn1   S    
C55   H32   S    
C30   H10   S    
C38   C40   A    
C48   H26   S    
C10   N2    A    
C4    C7    A    
C11   H19   S    
C18   H6    S    
C63   C64   A    
C2    O2    A    
N2    Zn2   S    
C30   C40   A    
C42   C43   A    
C4    C6    A    
C3    C8    A    
C5    C7    A    
C44   C45   A    
C18   N2    A    
C6    C8    A    
C3    C5    A    
C45   C46   A    
C32   C34   A    
C59   C64   A    
O7    Zn2   S    
C41   C42   A    
C46   H25   S    
C3    C53   S    
C31   C41   S    
O4    Zn1   S    
C38   H14   S    
C19   Br1   S    
O6    Zn2   S    
C32   C47   S    
C29   C39   A    
C20   Br2   S    
C58   H35   S    
C9    C11   A    
C62   H38   S    
C10   C12   A    
C60   H36   S    
C16   C18   A    
C12   C14   A    
C13   C15   A    
C35   H11   S    
C7    C34   S    
C14   C16   A    
C13   C26   S    
C20   C22   A    
C57   H34   S    
C15   C17   A    
C21   C25   A    
C49   H27   S    
C10   H18   S    
C47   C48   A    
C5    H15   S    
C24   C28   S    
C6    H16   S    
C2    O4    A    
C42   H21   S    
C44   H23   S    
O3    Zn2   S    
C36   C38   A    
C15   H3    S    
C37   C39   A    
C60   C61   A    
C30   C32   A    
C11   C13   A    
C51   C52   A    
C63   H39   S    
C43   H22   S    
C61   H37   S    
C28   H2    S    
C56   C57   A    
C33   C35   A    
C34   C36   A    
O5    Zn1   S    
C8    C33   S    
O2    Zn2   S    
C14   C25   S    
C24   O6    A    
C64   H40   S    
C12   H20   S    
C49   C50   A    
C29   C31   A    
C54   C55   A    
C22   C26   A    
C27   C28   D    
C21   H7    S    
C50   C51   A    
O1    Zn1   S    
C19   C21   A    
