data_mof_unit_13588.cif
_audit_creation_date              2012-12-10T17:19:22-0500
_audit_creation_method            fapswitch 2.2
_symmetry_space_group_name_H-M    P1
_symmetry_Int_Tables_number       1
_space_group_crystal_system       triclinic
_cell_length_a                    15.066109
_cell_length_b                    10.825121
_cell_length_c                    9.588644
_cell_angle_alpha                 90.369959
_cell_angle_beta                  89.931045
_cell_angle_gamma                 93.846278
_cell_volume                      1560.2801158

loop_
_atom_site_label
_atom_site_type_symbol
_atom_type_description
_atom_site_fract_x
_atom_site_fract_y
_atom_site_fract_z
_atom_type_partial_charge
C1    C     C_R   0.493811 0.262092 0.499585 0.776128
C2    C     C_R   0.908197 0.526990 0.626143 0.109091
C3    C     C_R   0.953634 0.491238 0.246070 -0.211369
C4    C     C_R   0.046215 0.492480 0.246024 -0.208273
C5    C     C_R   0.093397 0.505014 0.371813 0.108254
C6    C     C_R   0.047442 0.518104 0.498788 0.059610
C7    C     C_R   0.094477 0.531727 0.625758 0.102034
C8    C     C_R   0.048186 0.544282 0.751440 -0.203401
C9    C     C_R   0.955503 0.541697 0.751665 -0.210884
C10   C     C_R   0.185722 0.502862 0.373022 -0.254623
C11   C     C_R   0.232591 0.513752 0.499371 -0.052435
C12   C     C_R   0.329128 0.506167 0.499948 0.804021
C13   C     C_R   0.186945 0.530699 0.624981 -0.172407
C14   C     C_R   0.346491 0.107945 0.651161 -0.012853
C15   C     C_R   0.295832 0.036102 0.747635 -0.111267
C16   C     C_R   0.306839 0.910947 0.760424 -0.194698
C17   C     C_R   0.367799 0.855233 0.676710 -0.175444
C18   C     C_R   0.426221 0.926258 0.587875 0.106539
C19   C     C_R   0.418983 0.056406 0.579776 0.003708
C20   C     C_R   0.482826 0.127064 0.496921 -0.116372
C21   C     C_R   0.542381 0.067823 0.411820 -0.175836
C22   C     C_R   0.544394 0.940789 0.412589 -0.205239
C23   C     C_R   0.497167 0.737111 0.500640 0.755402
C24   C     C_R   0.489097 0.870000 0.502186 -0.078761
C25   C     C_R   0.619991 0.665448 0.145129 -0.151113
C26   C     C_R   0.678762 0.746238 0.073176 -0.216783
C27   C     C_R   0.678479 0.746567 0.929341 -0.207830
C28   C     C_R   0.619449 0.666065 0.856554 -0.147574
C29   C     C_R   0.558773 0.581650 0.925589 0.206422
C30   C     C_R   0.558905 0.581451 0.075254 0.214581
C31   C     C_R   0.443949 0.422349 0.073494 -0.064902
C32   C     C_R   0.444042 0.422302 0.925529 -0.056313
C33   C     C_R   0.671391 0.501808 0.499926 0.801151
C34   C     C_R   0.815515 0.522107 0.625661 -0.249846
C35   C     C_R   0.768564 0.506921 0.499679 -0.074613
C36   C     C_R   0.814693 0.497996 0.373184 -0.250400
C37   C     C_R   0.907304 0.502040 0.371960 0.107823
C38   C     C_R   0.954295 0.516127 0.498926 0.066174
Cu1   Cu    Cu3+1 0.499990 0.499990 0.640660 0.940982
Cu2   Cu    Cu3+1 0.500010 0.500010 0.359340 0.930716
H1    H     H_    0.780106 0.530183 0.723468 0.160193
H2    H     H_    0.242188 0.074452 0.805470 0.172997
H3    H     H_    0.263966 0.855199 0.829571 0.144789
H4    H     H_    0.366561 0.755831 0.682446 0.166531
H5    H     H_    0.592031 0.897715 0.346416 0.141998
H6    H     H_    0.398037 0.358713 0.128423 0.138646
H7    H     H_    0.625377 0.673000 0.255269 0.192548
H8    H     H_    0.724766 0.809267 0.129756 0.149787
H9    H     H_    0.724296 0.809801 0.873435 0.153383
H10   H     H_    0.624360 0.673953 0.746459 0.196787
H11   H     H_    0.778651 0.486865 0.275591 0.161953
H12   H     H_    0.398315 0.358482 0.869923 0.173846
H13   H     H_    0.918250 0.480802 0.147899 0.142015
H14   H     H_    0.080858 0.482815 0.147830 0.141934
H15   H     H_    0.220809 0.490812 0.275589 0.157808
H16   H     H_    0.223151 0.540904 0.722503 0.160479
H17   H     H_    0.083590 0.554867 0.849574 0.138765
H18   H     H_    0.920814 0.550478 0.849959 0.141327
H19   H     H_    0.589694 0.120786 0.346659 0.155395
N1    N     N_R   0.500860 0.501210 0.147910 -0.199816
N2    N     N_R   0.500890 0.501290 0.852040 -0.205587
O1    O     O_R   0.499990 0.319640 0.618810 -0.565253
O2    O     O_R   0.500000 0.319660 0.381240 -0.577963
O3    O     O_R   0.370250 0.499960 0.618800 -0.572084
O4    O     O_R   0.370260 0.499980 0.381230 -0.593339
O5    O     O_R   0.500000 0.680340 0.618760 -0.612080
O6    O     O_R   0.500010 0.680360 0.381190 -0.590082
O7    O     O_R   0.629740 0.500020 0.618770 -0.597537
O8    O     O_R   0.629750 0.500040 0.381200 -0.601763
C39   C     C_2   0.310223 0.225167 0.609066 0.365333
H20   H     H_    0.322532 0.260460 0.505045 0.044994
O9    O     O_2   0.261943 0.279686 0.687354 -0.575405

loop_
_geom_bond_atom_site_label_1
_geom_bond_atom_site_label_2
_ccdc_geom_bond_type
C8    C9    A    
Cu2   N1    S    
C11   C13   A    
Cu1   O7    S    
C35   C36   A    
C1    O1    A    
C7    C8    A    
Cu1   O3    S    
C26   C27   A    
C29   C30   A    
Cu2   O2    S    
C18   C24   A    
C23   O5    A    
C28   C29   A    
C32   N2    A    
C21   H19   S    
C5    C6    A    
C12   O3    A    
C15   C16   A    
C34   C35   A    
C23   O6    A    
C32   H12   S    
C28   H10   S    
C19   C20   A    
C16   C17   A    
C31   H6    S    
C30   N1    A    
C23   C24   S    
C6    C38   A    
C39   H20   S    
C25   H7    S    
C26   H8    S    
C13   H16   S    
C2    C34   A    
C21   C22   A    
C14   C39   S    
C34   H1    S    
C1    O2    A    
Cu1   N2    S    
C29   N2    A    
Cu2   O8    S    
Cu1   Cu2   S    
C18   C19   A    
C25   C26   A    
Cu2   O6    S    
C31   N1    A    
C37   C38   A    
C8    H17   S    
C2    C38   A    
C31   C32   A    
C17   C18   A    
C10   H15   S    
C16   H3    S    
C36   H11   S    
C9    H18   S    
Cu2   O4    S    
Cu1   O5    S    
C22   C24   A    
C3    C4    A    
C25   C30   A    
Cu1   O1    S    
C36   C37   A    
C1    C20   S    
C4    H14   S    
C14   C19   A    
C15   H2    S    
C4    C5    A    
C11   C12   S    
C6    C7    A    
C33   O8    A    
C12   O4    A    
C17   H4    S    
C5    C10   A    
C3    H13   S    
C33   C35   S    
C10   C11   A    
C7    C13   A    
C22   H5    S    
C20   C21   A    
C3    C37   A    
C27   C28   A    
C14   C15   A    
C39   O9    D    
C2    C9    A    
C27   H9    S    
C33   O7    A    
