data_mof_unit_37349.cif
_audit_creation_date              2012-12-11T18:58:35-0500
_audit_creation_method            fapswitch 2.2
_symmetry_space_group_name_H-M    P1
_symmetry_Int_Tables_number       1
_space_group_crystal_system       triclinic
_cell_length_a                    8.359954
_cell_length_b                    15.226635
_cell_length_c                    17.413231
_cell_angle_alpha                 100.622749
_cell_angle_beta                  97.134703
_cell_angle_gamma                 99.089422
_cell_volume                      2124.2396576

loop_
_atom_site_label
_atom_site_type_symbol
_atom_type_description
_atom_site_fract_x
_atom_site_fract_y
_atom_site_fract_z
_atom_type_partial_charge
Ba1   Ba    Ba6+2 0.844370 0.541120 0.463210 1.765076
Ba2   Ba    Ba6+2 0.345470 0.458960 0.536800 1.794539
C1    C     C_3   0.654040 0.862546 0.278226 -0.286392
C2    C     C_3   0.636492 0.770738 0.302097 0.423816
C3    C     C_3   0.367442 0.273105 0.284211 0.177770
C4    C     C_3   0.475046 0.342490 0.250901 -0.355556
C5    C     C_3   0.096918 0.214203 0.743905 0.352554
C6    C     C_3   0.120527 0.145083 0.796220 -0.239666
C7    C     C_3   0.677678 0.256623 0.758767 0.304936
C8    C     C_3   0.658872 0.174052 0.798924 -0.218694
C9    C     C_2   0.259302 0.504302 0.273314 -0.254627
C10   C     C_3   0.347539 0.566787 0.227707 -0.039844
C11   C     C_2   0.296762 0.533995 0.139850 -0.025138
C12   C     C_3   0.157585 0.798790 0.264066 0.330683
C13   C     C_2   0.141855 0.488469 0.111615 0.021909
C14   C     C_2   0.040966 0.453432 0.169843 -0.078968
C15   C     C_1   0.106385 0.462543 0.245663 0.085350
C16   C     C_R   0.883773 0.479698 0.863967 -0.112422
C17   C     C_R   0.814144 0.476862 0.785988 -0.022885
C18   C     C_R   0.076377 0.550459 0.759358 0.050077
C19   C     C_R   0.145909 0.555538 0.838580 -0.071795
C20   C     C_R   0.049966 0.520025 0.891828 0.033576
C21   C     C_2   0.068251 0.475500 0.025951 -0.051766
C22   C     C_2   0.126327 0.527434 0.975904 -0.076342
C23   C     C_3   0.180167 0.887616 0.231768 -0.219506
C24   C     C_R   0.908690 0.517020 0.736560 -0.180846
C25   C     C_R   0.326434 0.824045 0.454756 -0.027935
C26   C     C_R   0.582270 0.790665 0.517658 -0.004082
C27   C     C_R   0.770934 0.227657 0.521157 -0.347608
C28   C     C_R   0.868274 0.172792 0.554218 -0.117639
C29   C     C_R   0.801993 0.081156 0.551551 -0.053339
C30   C     C_R   0.642746 0.040755 0.506623 0.011421
C31   C     C_R   0.547533 0.099374 0.473075 0.008672
C32   C     C_R   0.571579 0.945131 0.494607 0.023744
C33   C     C_R   0.403021 0.914963 0.460288 0.001051
C34   C     C_3   0.137469 0.754200 0.706406 0.278048
C35   C     C_R   0.313548 0.975952 0.432919 -0.066581
C36   C     C_R   0.386590 0.064129 0.434805 -0.046517
C37   C     C_R   0.660733 0.877664 0.514320 -0.101962
C38   C     C_R   0.413964 0.766607 0.490146 -0.341078
C39   C     C_R   0.611719 0.193144 0.480948 -0.028428
C40   C     C_3   0.131715 0.790477 0.793444 -0.413779
C41   C     C_3   0.865484 0.249610 0.335255 0.240218
C42   C     C_3   0.771811 0.156800 0.288410 -0.197453
C43   C     C_3   0.709673 0.686748 0.716229 0.326771
C44   C     C_3   0.644395 0.723956 0.791026 -0.298178
H1    H     H_    0.731178 0.775596 0.354052 0.080459
H2    H     H_    0.252784 0.831745 0.822894 0.162356
H3    H     H_    0.037450 0.834164 0.798513 0.127985
H4    H     H_    0.100198 0.733927 0.824025 0.077592
H5    H     H_    0.773193 0.289181 0.354928 0.068428
H6    H     H_    0.707369 0.119449 0.328157 -0.009881
H7    H     H_    0.827156 0.668868 0.736567 -0.111043
H8    H     H_    0.742063 0.775253 0.831989 0.107184
H9    H     H_    0.605096 0.667968 0.821325 0.069736
H10   H     H_    0.539606 0.757471 0.776796 0.156588
H11   H     H_    0.608364 0.911761 0.321692 0.023460
H12   H     H_    0.286403 0.307921 0.320411 0.024940
H13   H     H_    0.570988 0.311491 0.222987 0.129902
H14   H     H_    0.402138 0.368878 0.205571 0.073949
H15   H     H_    0.307806 0.902752 0.219476 0.061426
H16   H     H_    0.251695 0.152487 0.820911 0.169078
H17   H     H_    0.050113 0.155269 0.846154 0.121449
H18   H     H_    0.078779 0.074671 0.761909 0.138289
H19   H     H_    0.800570 0.298495 0.784102 -0.085599
H20   H     H_    0.672265 0.231793 0.694195 0.011621
H21   H     H_    0.770948 0.144359 0.794695 0.018175
H22   H     H_    0.235078 0.579561 0.996829 0.108851
H23   H     H_    0.914831 0.418858 0.149197 0.087583
H24   H     H_    0.807239 0.450514 0.901941 0.075430
H25   H     H_    0.958998 0.423591 0.005234 0.096368
H26   H     H_    0.274554 0.584829 0.858038 0.065268
H27   H     H_    0.328916 0.482460 0.320611 0.042607
H28   H     H_    0.278797 0.794964 0.295231 -0.174652
H29   H     H_    0.184478 0.956492 0.409526 0.112446
H30   H     H_    0.791298 0.889918 0.527673 0.127473
H31   H     H_    0.310631 0.105169 0.408486 0.130158
H32   H     H_    0.165069 0.945638 0.277060 0.094385
H33   H     H_    0.162309 0.813651 0.678197 0.103613
H34   H     H_    0.019207 0.713955 0.674498 0.053490
O1    O     O_2   0.823670 0.438410 0.305690 -0.475567
O2    O     O_3   0.737579 0.755382 0.673039 -0.621715
O3    O     O_3   0.037136 0.800375 0.314357 -0.598693
O4    O     O_2   0.366040 0.561620 0.694360 -0.461745
O5    O     O_3   0.092170 0.555060 0.596100 -0.385084
O6    O     O_3   0.563060 0.391710 0.639940 -0.446553
O7    O     O_3   0.266021 0.705921 0.698295 -0.614169
O8    O     O_3   0.598320 0.387100 0.455790 -0.444746
O9    O     O_3   0.130210 0.342150 0.598540 -0.400868
O10   O     O_2   0.186442 0.181330 0.532429 -0.429659
O11   O     O_3   0.186223 0.198287 0.680961 -0.531378
O12   O     O_3   0.097540 0.445020 0.403910 -0.396991
O13   O     O_3   0.591400 0.612970 0.544220 -0.493575
O14   O     O_2   0.325880 0.273340 0.453540 -0.453913
O15   O     O_3   0.469990 0.228475 0.327464 -0.704449
O16   O     O_2   0.476428 0.465115 0.776937 -0.454905
O17   O     O_3   0.553368 0.307451 0.771987 -0.541598
O18   O     O_3   0.626660 0.608370 0.360070 -0.516360
O19   O     O_2   0.670504 0.528068 0.217191 -0.457464
O20   O     O_3   0.958204 0.292902 0.286936 -0.637139
O21   O     O_3   0.656279 0.702531 0.238986 -0.522654
O22   O     O_2   0.863840 0.726690 0.546510 -0.443926
O23   O     O_3   0.059500 0.657930 0.401470 -0.426643
O24   O     O_2   0.996430 0.819236 0.460884 -0.475589
P1    P     P_3+3 0.993950 0.412000 0.316970 1.062062
P2    P     P_3+3 0.694070 0.714570 0.569730 1.005882
P3    P     P_3+3 0.108057 0.776305 0.406606 0.999958
P4    P     P_3+3 0.195760 0.588070 0.683040 1.085812
P5    P     P_3+3 0.088992 0.223680 0.594298 1.089721
P6    P     P_3+3 0.575034 0.597175 0.258782 1.001797
P7    P     P_3+3 0.501296 0.270675 0.430110 0.944346
P8    P     P_3+3 0.604581 0.412204 0.744033 1.025552
H35   H     H_    0.949121 0.239543 0.386351 0.046009
H36   H     H_    0.678179 0.167224 0.241477 0.104905
C45   C     C_2   0.882586 0.100217 0.250250 0.936435
O25   O     O_2   0.987787 0.074204 0.291045 -0.651697
O26   O     O_R   0.864308 0.077924 0.167735 -0.690178
H37   H     H_    0.949878 0.043188 0.148050 0.358006
H38   H     H_    0.628332 0.624171 0.682454 0.075609
H39   H     H_    0.784900 0.889537 0.277857 0.181494
H40   H     H_    0.514526 0.756323 0.320599 -0.128324
C46   C     C_2   0.259044 0.204774 0.215742 0.931138
O27   O     O_2   0.157455 0.230892 0.173031 -0.566943
O28   O     O_R   0.271896 0.112769 0.198438 -0.703288
H41   H     H_    0.358032 0.094690 0.235424 0.294226
H42   H     H_    0.533473 0.399998 0.299994 0.148158
H43   H     H_    0.582156 0.856096 0.218754 0.157056
C47   C     C_2   0.159030 0.309167 0.791081 0.864605
O29   O     O_2   0.145832 0.372712 0.758977 -0.623949
O30   O     O_R   0.234098 0.325280 0.870089 -0.717624
H44   H     H_    0.278514 0.392070 0.893040 0.321832
H45   H     H_    0.963805 0.205184 0.722546 -0.169745
C48   C     C_2   0.517921 0.097860 0.757645 0.903371
O31   O     O_2   0.435363 0.103110 0.696303 -0.523926
O32   O     O_R   0.484847 0.018363 0.786826 -0.727077
H46   H     H_    0.564270 0.018310 0.835730 0.285231
C49   C     C_2   0.107466 0.716878 0.197250 0.832415
O33   O     O_2   0.191990 0.706017 0.145042 -0.655712
O34   O     O_R   0.959952 0.657002 0.192392 -0.682382
H47   H     H_    0.930172 0.611167 0.140384 0.307950
C50   C     C_2   0.650232 0.203198 0.885757 0.828263
O35   O     O_2   0.532632 0.234053 0.906915 -0.552989
O36   O     O_R   0.778587 0.195061 0.942085 -0.736394
H48   H     H_    0.760321 0.217289 0.998323 0.336612
H49   H     H_    0.378398 0.558055 0.101403 0.083744
H50   H     H_    0.850940 0.521637 0.678750 0.083076
C51   C     C_2   0.320570 0.685317 0.505968 0.902445
O37   O     O_2   0.222033 0.694302 0.550806 -0.550312
O38   O     O_R   0.316274 0.600847 0.458771 -0.665613
H51   H     H_    0.386777 0.605711 0.416541 0.239727
C52   C     C_2   0.832577 0.325431 0.537243 0.904679
O39   O     O_2   0.890001 0.361461 0.487616 -0.566187
O40   O     O_R   0.850621 0.375339 0.613193 -0.727009
H52   H     H_    0.838759 0.335866 0.653477 0.208739
C53   C     C_2   0.890166 0.035543 0.606586 0.800598
O41   O     O_2   0.824609 0.011845 0.660334 -0.627056
O42   O     O_R   0.044130 0.015609 0.594759 -0.708470
H53   H     H_    0.088615 0.980309 0.633913 0.323947
C54   C     C_2   0.064488 0.884445 0.157213 0.925435
O43   O     O_2   0.916229 0.867666 0.155824 -0.595893
O44   O     O_R   0.128159 0.900006 0.089401 -0.704052
H54   H     H_    0.039149 0.895832 0.042975 0.319078

loop_
_geom_bond_atom_site_label_1
_geom_bond_atom_site_label_2
_ccdc_geom_bond_type
C16   H24   S    
O42   H53   S    
O18   P6    S    
C53   O42   S    
C34   C40   S    
C51   O37   D    
C8    C48   S    
C11   H49   S    
C47   O29   D    
C10   P6    S    
O44   H54   S    
O38   H51   S    
C5    C6    S    
C8    H21   S    
C49   O34   S    
O20   P1    S    
C35   C36   A    
C3    H12   S    
C12   H28   S    
C51   O38   S    
O36   H48   S    
Ba1   Ba2   S    
C6    H16   S    
C50   O36   S    
C54   O43   D    
C28   C29   A    
C1    H43   S    
C26   C38   A    
Ba1   O1    S    
C13   C14   S    
O9    P5    S    
O14   P7    D    
Ba2   O5    S    
C32   C33   A    
C24   H50   S    
C17   C24   A    
C7    H20   S    
O8    P7    S    
Ba2   O4    S    
O7    P4    S    
C43   O2    S    
C42   C45   S    
C26   P2    S    
C14   C15   D    
C45   O26   S    
C44   H9    S    
C23   C54   S    
C21   C22   D    
C54   O44   S    
Ba2   O8    S    
C5    C47   S    
O2    P2    S    
O5    P4    S    
O32   H46   S    
C7    C8    S    
Ba1   O23   S    
Ba1   P2    S    
C27   C39   A    
C43   H38   S    
Ba1   O8    S    
C13   C21   S    
C40   H3    S    
C35   H29   S    
C42   H36   S    
C19   C20   A    
C4    H14   S    
C12   O3    S    
C3    O15   S    
C34   O7    S    
Ba1   O5    S    
O34   H47   S    
O1    P1    D    
C19   H26   S    
C23   H32   S    
C21   H25   S    
Ba2   O14   S    
C41   O20   S    
C4    H42   S    
C9    H27   S    
O17   P8    S    
C16   C17   A    
C23   H15   S    
C28   P5    S    
C26   C37   A    
C25   C33   A    
O21   P6    S    
C43   C44   S    
O19   P6    D    
C3    C46   S    
C32   C37   A    
C8    C50   S    
C30   C32   A    
Ba2   O9    S    
O6    P8    S    
C41   C42   S    
C27   C28   A    
C15   P1    S    
O13   P2    S    
C27   C52   S    
O16   P8    D    
C29   C30   A    
C12   C49   S    
C25   P3    S    
C25   C38   A    
C52   O39   D    
C5    O11   S    
C2    O21   S    
C44   H8    S    
C40   H2    S    
C37   H30   S    
C10   C11   S    
Ba2   O12   S    
C5    H45   S    
C40   H4    S    
C1    H11   S    
C6    H18   S    
Ba1   O12   S    
C11   C13   D    
C34   H34   S    
C48   O31   D    
C20   C22   S    
C46   O28   S    
C1    C2    S    
C9    C15   D    
C7    O17   S    
C38   C51   S    
C33   C35   A    
C16   C20   A    
C4    H13   S    
Ba2   O13   S    
C14   H23   S    
C34   H33   S    
C47   O30   S    
Ba1   O18   S    
C29   C53   S    
C9    C10   S    
C42   H6    S    
C36   H31   S    
C49   O33   D    
C31   C36   A    
C31   C39   A    
C30   C31   A    
O11   P5    S    
O30   H44   S    
O40   H52   S    
O15   P7    S    
C50   O35   D    
C41   H35   S    
C41   H5    S    
C3    C4    S    
C18   C24   A    
Ba2   P4    S    
O4    P4    D    
O3    P3    S    
C2    H40   S    
Ba2   O6    S    
C52   O40   S    
C12   C23   S    
C7    H19   S    
C1    H39   S    
C22   H22   S    
C6    H17   S    
C43   H7    S    
O12   P1    S    
C18   C19   A    
Ba1   O13   S    
C39   P7    S    
O22   P2    D    
C44   H10   S    
C53   O41   D    
C48   O32   S    
C17   P8    S    
O23   P3    S    
O10   P5    D    
C46   O27   D    
O26   H37   S    
Ba1   O22   S    
O24   P3    D    
C45   O25   D    
Ba1   P1    S    
O28   H41   S    
C18   P4    S    
C2    H1    S    
