data_mof_unit_20573.cif
_audit_creation_date              2013-03-05T16:02:24-0500
_audit_creation_method            fapswitch 2.2
_symmetry_space_group_name_H-M    P1
_symmetry_Int_Tables_number       1
_space_group_crystal_system       triclinic
_cell_length_a                    15.000508
_cell_length_b                    14.01674
_cell_length_c                    10.626471
_cell_angle_alpha                 89.986111
_cell_angle_beta                  90.139883
_cell_angle_gamma                 90.030094
_cell_volume                      2234.29585074

loop_
_atom_site_label
_atom_site_type_symbol
_atom_site_description
_atom_site_fract_x
_atom_site_fract_y
_atom_site_fract_z
_atom_type_partial_charge
O1    O     O_R   0.367860 0.580280 0.500020 -0.621570
O2    O     O_R   0.367860 0.419720 0.500020 -0.620288
C1    C     C_R   0.326541 0.499947 0.500225 0.892978
O3    O     O_R   0.500000 0.580270 0.314790 -0.632419
O4    O     O_R   0.500000 0.419730 0.314790 -0.633885
C2    C     C_R   0.500007 0.500186 0.257484 0.844293
Zn1   Zn    Zn3+2 0.500020 0.607200 0.499990 0.960142
Zn2   Zn    Zn3+2 0.500020 0.392800 0.499990 0.970673
O5    O     O_R   0.632160 0.580270 0.499960 -0.621176
O6    O     O_R   0.632160 0.419730 0.499960 -0.612393
O7    O     O_R   0.500030 0.580270 0.685200 -0.634990
O8    O     O_R   0.500030 0.419730 0.685200 -0.628011
C3    C     C_R   0.673483 0.499959 0.499935 0.894652
C4    C     C_R   0.500027 0.500172 0.742508 0.845853
C5    C     C_3   0.500331 0.605066 0.071374 -0.332114
C6    C     C_3   0.415490 0.449204 0.071922 -0.376756
H1    H     H_    0.560797 0.643468 0.105388 0.211163
H2    H     H_    0.413376 0.374355 0.106924 0.206410
H3    H     H_    0.440773 0.644480 0.106070 0.208956
H4    H     H_    0.354514 0.485957 0.106577 0.169687
C7    C     C_3   0.499653 0.605054 0.928552 -0.333311
C8    C     C_3   0.415729 0.448728 0.927484 -0.375045
H5    H     H_    0.439162 0.643340 0.894506 0.210407
H6    H     H_    0.354554 0.484650 0.891577 0.169966
H7    H     H_    0.559188 0.644571 0.893822 0.208714
H8    H     H_    0.414370 0.373639 0.893301 0.211789
H9    H     H_    0.645498 0.484912 0.108428 0.170412
H10   H     H_    0.585745 0.373802 0.106804 0.211218
H11   H     H_    0.645532 0.486194 0.893421 0.171068
H12   H     H_    0.586727 0.374488 0.893173 0.210692
C9    C     C_3   0.584341 0.448883 0.072553 -0.377165
C10   C     C_3   0.500022 0.500806 0.121196 0.099477
C11   C     C_3   0.500018 0.500787 0.878800 0.095569
C12   C     C_3   0.584577 0.449338 0.928111 -0.369493
C13   C     C_R   0.814502 0.414729 0.475068 -0.168789
C14   C     C_R   0.769303 0.499379 0.502045 -0.105199
C15   C     C_R   0.815254 0.582779 0.532293 -0.226969
C16   C     C_R   0.907349 0.582539 0.534382 0.131366
C17   C     C_R   0.953558 0.497099 0.507445 0.028091
C18   C     C_R   0.907012 0.411614 0.480006 -0.019282
C19   C     C_R   0.953758 0.666635 0.562087 -0.178408
C20   C     C_R   0.046267 0.666969 0.561505 -0.180348
C21   C     C_R   0.092678 0.583225 0.533094 0.121698
C22   C     C_R   0.046346 0.497805 0.506399 0.066923
C23   C     C_R   0.092973 0.413473 0.477509 0.050076
C24   C     C_R   0.047207 0.328893 0.451632 -0.244327
C25   C     C_R   0.954288 0.326471 0.454384 0.300027
C26   C     C_R   0.184901 0.583466 0.530516 -0.235057
C27   C     C_R   0.230746 0.499572 0.501762 -0.086717
C28   C     C_R   0.185170 0.414901 0.475521 -0.194775
H13   H     H_    0.776912 0.352224 0.447610 0.214904
H14   H     H_    0.779420 0.647952 0.553869 0.172462
H15   H     H_    0.918495 0.732151 0.583286 0.173500
H16   H     H_    0.221366 0.350174 0.452858 0.175386
H17   H     H_    0.083868 0.264020 0.431531 0.197316
C29   C     C_R   0.539118 0.797891 0.403305 0.028954
C30   C     C_R   0.538575 0.202234 0.402890 0.042000
N1    N     N_R   0.500070 0.750030 0.500050 -0.127978
N2    N     N_R   0.500070 0.249970 0.500050 -0.130641
C31   C     C_R   0.461190 0.797811 0.596920 0.022700
C32   C     C_R   0.461881 0.202152 0.597462 0.033328
C33   C     C_R   0.461465 0.898671 0.601205 -0.111983
C34   C     C_R   0.460016 0.101294 0.600101 -0.112343
C35   C     C_R   0.500309 0.949446 0.500230 0.016795
C36   C     C_R   0.500334 0.050608 0.500259 0.015503
C37   C     C_R   0.539127 0.898763 0.399228 -0.112277
C38   C     C_R   0.540722 0.101385 0.400485 -0.105952
C39   C     C_R   0.422538 0.949470 0.702206 0.229064
C40   C     C_R   0.420783 0.050424 0.700880 0.232004
C41   C     C_R   0.580351 0.050616 0.300012 0.236086
C42   C     C_R   0.578417 0.949661 0.298509 0.231664
H18   H     H_    0.570461 0.756531 0.329940 0.167119
H19   H     H_    0.567139 0.243722 0.327392 0.167979
H20   H     H_    0.429784 0.756399 0.670244 0.164900
H21   H     H_    0.433332 0.243585 0.672960 0.172264
H22   H     H_    0.081476 0.732648 0.582430 0.174156
H23   H     H_    0.220868 0.648727 0.551632 0.171037
N3    N     N_R   0.909686 0.237112 0.433072 0.217507
O9    O     O_R   0.851219 0.206158 0.513650 -0.351331
O10   O     O_R   0.939010 0.179025 0.347101 -0.317655
N4    N     N_R   0.383556 0.899094 0.806050 0.219245
O11   O     O_R   0.300711 0.913807 0.836330 -0.316661
O12   O     O_R   0.433032 0.845411 0.877597 -0.356212
N5    N     N_R   0.380659 0.100711 0.803901 0.220009
O13   O     O_R   0.408187 0.085985 0.918468 -0.282658
O14   O     O_R   0.311512 0.154819 0.784577 -0.380147
N6    N     N_R   0.621267 0.101027 0.197646 0.218991
O15   O     O_R   0.594539 0.086485 0.082666 -0.282959
O16   O     O_R   0.690255 0.155215 0.218091 -0.344537
N7    N     N_R   0.617669 0.899381 0.194858 0.220315
O17   O     O_R   0.700668 0.913988 0.165253 -0.298030
O18   O     O_R   0.568331 0.845897 0.122821 -0.357638

loop_
_geom_bond_atom_site_label_1
_geom_bond_atom_site_label_2
_geom_bond_distance
_ccdc_geom_bond_type
C18   C25   1.415378 A    
C2    C10   1.448282 S    
N6    O15   1.301077 A    
C34   C36   1.414254 A    
C19   C20   1.387715 A    
C13   C14   1.397011 A    
C4    C11   1.448330 S    
N4    O11   1.301018 A    
C1    C27   1.437119 S    
C5    C10   1.554221 S    
C9    C10   1.549517 S    
C23   C24   1.396707 A    
C32   H21   1.080045 S    
C5    H3    1.114240 S    
C28   H16   1.084982 S    
C39   N4    1.435471 S    
C14   C15   1.393999 A    
N5    O14   1.301121 A    
Zn2   N2    2.002013 S    
C16   C17   1.413740 A    
O7    C4    1.277106 A    
N3    O10   1.301425 A    
C30   N2    1.360502 A    
C7    C11   1.554310 S    
N1    C31   1.360886 A    
C31   C33   1.414476 A    
C30   H19   1.080093 S    
C32   C34   1.414227 A    
O5    C3    1.285370 A    
C33   C35   1.414083 A    
C34   C40   1.415598 A    
C39   C40   1.415362 A    
C29   H18   1.080388 S    
C24   H17   1.084471 S    
C41   C42   1.415437 A    
C21   C26   1.383741 A    
Zn1   N1    2.002011 S    
C6    H4    1.113490 S    
C30   C38   1.414190 A    
O3    Zn1   2.003986 S    
C41   N6    1.435863 S    
N4    O12   1.300997 A    
N2    C32   1.360547 A    
H12   C12   1.113509 S    
H9    C9    1.113500 S    
N5    O13   1.301075 A    
C3    C14   1.437495 S    
O3    C2    1.277190 A    
C17   C18   1.416526 A    
C15   H14   1.085000 S    
N3    O9    1.301425 A    
C36   C38   1.414243 A    
H11   C12   1.113487 S    
O1    C1    1.285043 A    
C35   C37   1.414065 A    
C26   H23   1.084980 S    
Zn1   O7    2.003910 S    
C21   C22   1.412580 A    
C15   C16   1.381600 A    
N7    O18   1.301028 A    
C37   C42   1.415669 A    
Zn2   O8    2.004089 S    
C11   C12   1.549547 S    
C9    C12   1.534925 S    
C19   H15   1.083993 S    
C16   C19   1.399674 A    
C6    H2    1.113501 S    
C26   C27   1.396829 A    
O8    C4    1.281614 A    
C7    H5    1.114025 S    
C13   H13   1.081421 S    
C8    H6    1.113497 S    
C20   C21   1.398474 A    
C22   C23   1.408127 A    
C5    H1    1.114019 S    
C8    C11   1.549448 S    
C7    H7    1.114248 S    
C24   C25   1.394609 A    
C6    C8    1.534897 S    
O1    Zn1   2.017865 S    
H10   C9    1.113669 S    
O2    Zn2   2.018254 S    
O6    C3    1.283787 A    
O4    Zn2   2.003806 S    
C17   C22   1.391960 A    
C6    C10   1.549581 S    
C20   H22   1.083938 S    
C33   C39   1.415547 A    
C38   C41   1.415488 A    
C35   C36   1.417949 A    
N6    O16   1.301214 A    
C13   C18   1.389277 A    
C40   N5    1.435834 S    
N7    O17   1.301003 A    
O4    C2    1.281509 A    
C42   N7    1.435454 S    
C23   C28   1.383349 A    
C29   C37   1.414551 A    
C31   H20   1.080398 S    
C29   N1    1.360962 A    
O2    C1    1.284302 A    
Zn1   O5    2.017983 S    
C5    C7    1.517702 S    
Zn2   O6    2.017593 S    
C27   C28   1.397151 A    
C8    H8    1.113664 S    
C25   N3    1.437442 S    
