data_mof_unit_26193.cif
_audit_creation_date              2012-10-26T19:42:38-0400
_audit_creation_method            fapswitch 2.2
_symmetry_space_group_name_H-M    P1
_symmetry_Int_Tables_number       1
_space_group_crystal_system       triclinic
_cell_length_a                    19.338165
_cell_length_b                    10.777137
_cell_length_c                    9.601222
_cell_angle_alpha                 90.341281
_cell_angle_beta                  90.408328
_cell_angle_gamma                 92.348004
_cell_volume                      1999.22133272

loop_
_atom_site_label
_atom_site_type_symbol
_atom_type_description
_atom_site_fract_x
_atom_site_fract_y
_atom_site_fract_z
_atom_type_partial_charge
C1    C     C_R   0.501581 0.263047 0.499701 0.537684
C2    C     C_R   0.855143 0.504793 0.495078 0.037569
C3    C     C_R   0.621256 0.134842 0.603614 -0.096385
C4    C     C_R   0.367777 0.505748 0.500150 0.531792
C5    C     C_R   0.680514 0.072299 0.642208 0.003662
C6    C     C_R   0.680882 0.943384 0.626578 -0.132474
C7    C     C_R   0.622405 0.877167 0.577345 -0.138131
C8    C     C_R   0.561175 0.937954 0.544291 0.006982
C9    C     C_R   0.561738 0.068667 0.551512 0.003592
C10   C     C_R   0.504209 0.129661 0.498557 -0.012922
C11   C     C_R   0.449113 0.063749 0.434957 -0.140821
C12   C     C_R   0.291954 0.516821 0.500555 -0.002485
C13   C     C_R   0.445425 0.934627 0.434928 -0.031289
C14   C     C_R   0.500830 0.871600 0.496143 0.008252
C15   C     C_R   0.589558 0.668944 0.146645 -0.079727
C16   C     C_R   0.498528 0.737201 0.499517 0.515125
C17   C     C_R   0.631658 0.755352 0.076052 -0.039415
C18   C     C_R   0.631253 0.754117 0.932073 -0.152175
C19   C     C_R   0.589017 0.668694 0.859443 -0.058695
C20   C     C_R   0.543655 0.583270 0.926875 0.152621
C21   C     C_R   0.543840 0.583201 0.076143 0.139190
C22   C     C_R   0.458670 0.420116 0.072753 -0.009564
C23   C     C_R   0.931194 0.502590 0.488941 0.371967
C24   C     C_R   0.458956 0.419734 0.924881 -0.010876
C25   C     C_R   0.632731 0.500772 0.500595 0.542824
C26   C     C_R   0.256963 0.586626 0.603669 -0.001908
C27   C     C_R   0.183179 0.588022 0.599090 0.012968
C28   C     C_R   0.146925 0.520631 0.491846 0.032758
C29   C     C_R   0.182718 0.458595 0.388972 -0.146539
C30   C     C_R   0.254196 0.456456 0.393379 -0.165952
C31   C     C_3   0.297784 0.665880 0.710754 -0.238513
C32   C     C_3   0.304732 0.598368 0.850622 -0.279966
C33   C     C_3   0.346610 0.677857 0.955869 -0.444196
C34   C     C_R   0.071180 0.510287 0.487235 0.320160
C35   C     C_3   0.744323 0.142106 0.696452 -0.260047
C36   C     C_3   0.801721 0.146195 0.586698 -0.311874
C37   C     C_3   0.871562 0.185054 0.651469 -0.427969
C38   C     C_3   0.384727 0.868842 0.358940 -0.251624
C39   C     C_3   0.314027 0.903461 0.416117 -0.314511
C40   C     C_3   0.255289 0.837635 0.333692 -0.450414
C41   C     C_3   0.676535 0.850279 0.154568 -0.259204
C42   C     C_3   0.637991 0.970589 0.174395 -0.288685
C43   C     C_3   0.683971 0.070912 0.245358 -0.445450
C44   C     C_3   0.142664 0.665830 0.701571 -0.252092
C45   C     C_R   0.821132 0.513568 0.624027 0.228376
C46   C     C_3   0.122363 0.788512 0.635625 -0.303226
C47   C     C_3   0.076189 0.860934 0.732295 -0.441434
C48   C     C_R   0.747885 0.516051 0.627170 0.211339
C49   C     C_R   0.709374 0.502107 0.501718 0.006409
C50   C     C_R   0.744529 0.493068 0.374861 -0.211996
C51   C     C_R   0.816434 0.496027 0.371515 -0.197292
Cu1   Cu    Cu3+1 0.500000 0.499990 0.640660 0.923825
Cu2   Cu    Cu3+1 0.500000 0.500010 0.359340 0.892703
H1    H     H_    0.622979 0.235118 0.610618 0.139985
H2    H     H_    0.280182 0.404589 0.313632 0.122247
H3    H     H_    0.716405 0.484023 0.277120 0.153511
H4    H     H_    0.841914 0.488492 0.271878 0.147967
H5    H     H_    0.408369 0.114440 0.385828 0.112914
H6    H     H_    0.351130 0.626704 0.055392 0.151098
H7    H     H_    0.399443 0.699538 0.915761 0.172146
H8    H     H_    0.320509 0.765917 0.976694 0.138714
H9    H     H_    0.253104 0.575213 0.895273 0.147361
H10   H     H_    0.330357 0.509316 0.835228 0.184475
H11   H     H_    0.349724 0.694200 0.670937 0.168417
H12   H     H_    0.726906 0.893811 0.651844 0.114851
H13   H     H_    0.273299 0.756038 0.726988 0.119302
H14   H     H_    0.868135 0.274198 0.708595 0.197758
H15   H     H_    0.888382 0.112883 0.725053 0.149896
H16   H     H_    0.910902 0.196282 0.568336 0.165507
H17   H     H_    0.806588 0.053464 0.537225 0.164498
H18   H     H_    0.788553 0.213239 0.503965 0.167356
H19   H     H_    0.732327 0.238825 0.725897 0.163971
H20   H     H_    0.762202 0.095523 0.792531 0.143821
H21   H     H_    0.258200 0.735439 0.342782 0.171218
H22   H     H_    0.204661 0.865701 0.374240 0.144143
H23   H     H_    0.626595 0.778576 0.560698 0.108904
H24   H     H_    0.258321 0.863391 0.221977 0.148133
H25   H     H_    0.310268 0.877109 0.527330 0.154995
H26   H     H_    0.307249 0.004938 0.408666 0.159043
H27   H     H_    0.387677 0.894624 0.247092 0.141585
H28   H     H_    0.386901 0.766545 0.363386 0.177845
H29   H     H_    0.704096 0.036685 0.345859 0.167801
H30   H     H_    0.728278 0.097872 0.177437 0.147353
H31   H     H_    0.653526 0.154200 0.265808 0.160784
H32   H     H_    0.620916 0.005704 0.071565 0.172460
H33   H     H_    0.591339 0.951731 0.239133 0.177752
H34   H     H_    0.424626 0.354879 0.126981 0.110704
H35   H     H_    0.691364 0.813330 0.258073 0.138618
H36   H     H_    0.725279 0.869769 0.096349 0.147812
H37   H     H_    0.027432 0.806327 0.753224 0.180012
H38   H     H_    0.103446 0.882277 0.832368 0.151279
H39   H     H_    0.063011 0.949658 0.682326 0.148125
H40   H     H_    0.169860 0.846381 0.613888 0.153051
H41   H     H_    0.094265 0.770574 0.535743 0.187970
H42   H     H_    0.095923 0.613277 0.737911 0.183518
H43   H     H_    0.171553 0.686992 0.799005 0.135363
H44   H     H_    0.833621 0.482372 0.821535 0.325296
H45   H     H_    0.595073 0.673161 0.256312 0.185657
H46   H     H_    0.742661 0.589077 0.811919 0.325664
H47   H     H_    0.664666 0.818770 0.875641 0.123245
H48   H     H_    0.594828 0.671751 0.750500 0.200592
H49   H     H_    0.425244 0.353973 0.868800 0.111809
H50   H     H_    0.154866 0.408346 0.306529 0.126314
N1    N     N_R   0.035333 0.558377 0.379707 -0.238801
N2    N     N_R   0.966395 0.554558 0.380558 -0.243058
N3    N     N_R   0.967381 0.450760 0.593545 -0.178370
N4    N     N_R   0.036085 0.454085 0.592521 -0.243145
N5    N     N_R   0.500660 0.501210 0.147910 -0.241683
N6    N     N_R   0.500680 0.501290 0.852040 -0.241336
O1    O     O_R   0.499990 0.319640 0.618810 -0.498625
O2    O     O_3   0.713434 0.534140 0.750528 -0.718538
O3    O     O_R   0.500000 0.319660 0.381240 -0.497289
O4    O     O_R   0.400140 0.499970 0.618820 -0.505535
O5    O     O_R   0.400150 0.500000 0.381250 -0.509009
O6    O     O_R   0.500000 0.680340 0.618760 -0.530742
O7    O     O_R   0.500010 0.680360 0.381190 -0.532451
O8    O     O_R   0.599850 0.500000 0.618750 -0.457237
O9    O     O_R   0.599860 0.500030 0.381180 -0.534420
O10   O     O_3   0.860439 0.521453 0.744753 -0.704549

loop_
_geom_bond_atom_site_label_1
_geom_bond_atom_site_label_2
_ccdc_geom_bond_type
C31   H13   S    
C41   H36   S    
C37   H16   S    
C43   H30   S    
C47   H39   S    
C19   C20   A    
C25   O9    A    
C7    C8    A    
Cu1   O4    S    
Cu1   Cu2   S    
C26   C27   A    
C3    C9    A    
C34   N4    A    
C4    O5    A    
C28   C29   A    
C1    O3    A    
C38   C39   S    
C3    H1    S    
C45   C48   A    
N3    N4    A    
C23   N2    A    
C37   H15   S    
C37   H14   S    
C11   C13   A    
C29   H50   S    
C18   C19   A    
C41   C42   S    
C27   C44   S    
C6    H12   S    
C35   H20   S    
C35   C36   S    
C36   H17   S    
C8    C9    A    
C51   H4    S    
C14   C16   S    
C4    C12   S    
C11   H5    S    
C50   H3    S    
C9    C10   A    
C36   H18   S    
Cu1   O8    S    
C45   O10   S    
C28   C34   S    
C26   C31   S    
C33   H6    S    
C13   C14   A    
C43   H31   S    
C18   H47   S    
C16   O7    A    
N1    N2    A    
C44   C46   S    
C50   C51   A    
C17   C41   S    
C2    C45   A    
C1    C10   S    
C39   H25   S    
C4    O4    A    
C10   C11   A    
C39   C40   S    
Cu2   O9    S    
C23   N3    A    
C34   N1    A    
C12   C26   A    
C39   H26   S    
H44   O10   S    
C29   C30   A    
C44   H43   S    
C1    O1    A    
C31   C32   S    
C46   H41   S    
Cu1   O1    S    
H46   O2    S    
C17   C18   A    
C42   H32   S    
C22   H34   S    
C13   C38   S    
C7    H23   S    
C42   H33   S    
Cu2   O3    S    
C48   C49   A    
C35   H19   S    
C33   H7    S    
C38   H28   S    
C47   H37   S    
C22   C24   A    
C42   C43   S    
C15   H45   S    
C16   O6    A    
C27   C28   A    
Cu2   O5    S    
Cu1   O6    S    
C15   C17   A    
C41   H35   S    
C46   C47   S    
C36   C37   S    
C8    C14   A    
C12   C30   A    
C47   H38   S    
C31   H11   S    
C24   N6    A    
C32   H10   S    
C3    C5    A    
C25   O8    A    
Cu2   O7    S    
C6    C7    A    
C30   H2    S    
C40   H22   S    
C32   C33   S    
C32   H9    S    
C44   H42   S    
C19   H48   S    
Cu2   N5    S    
C5    C6    A    
C46   H40   S    
C38   H27   S    
Cu1   N6    S    
C22   N5    A    
C5    C35   S    
C40   H21   S    
C24   H49   S    
C25   C49   S    
C21   N5    A    
C2    C51   A    
C20   N6    A    
C15   C21   A    
C48   O2    S    
C20   C21   A    
C33   H8    S    
C49   C50   A    
C2    C23   S    
C43   H29   S    
C40   H24   S    
