data_mof_unit_27353.cif
_audit_creation_date              2013-03-05T16:15:04-0500
_audit_creation_method            fapswitch 2.2
_symmetry_space_group_name_H-M    P1
_symmetry_Int_Tables_number       1
_space_group_crystal_system       triclinic
_cell_length_a                    23.521848
_cell_length_b                    10.65235
_cell_length_c                    9.403929
_cell_angle_alpha                 90.131584
_cell_angle_beta                  90.141111
_cell_angle_gamma                 89.971817
_cell_volume                      2356.26262429

loop_
_atom_site_label
_atom_site_type_symbol
_atom_site_description
_atom_site_fract_x
_atom_site_fract_y
_atom_site_fract_z
_atom_type_partial_charge
O1    O     O_R   0.500030 0.316850 0.620870 -0.578086
O2    O     O_R   0.499970 0.683150 0.379130 -0.580865
O3    O     O_R   0.500000 0.316860 0.379090 -0.576489
O4    O     O_R   0.500000 0.683140 0.620910 -0.573109
C1    C     C_R   0.500596 0.259737 0.499959 0.912609
C2    C     C_R   0.499218 0.740157 0.500033 0.887785
O5    O     O_R   0.417890 0.499960 0.620920 -0.596179
O6    O     O_R   0.582110 0.500040 0.379080 -0.596381
O7    O     O_R   0.417870 0.499970 0.379140 -0.573916
O8    O     O_R   0.582130 0.500030 0.620860 -0.574673
C3    C     C_R   0.390974 0.501002 0.499989 0.869384
C4    C     C_R   0.609022 0.500637 0.500192 0.842217
Cu1   Cu    Cu3+1 0.500010 0.499990 0.643150 0.995077
Cu2   Cu    Cu3+1 0.499990 0.500010 0.356850 0.990791
C5    C     C_R   0.879886 0.618924 0.470794 0.625426
C6    C     C_R   0.119997 0.397741 0.521953 0.618333
N1    N     N_R   0.851864 0.509675 0.500556 -0.466949
N2    N     N_R   0.148088 0.508261 0.499368 -0.467212
C7    C     C_R   0.880295 0.400394 0.526941 0.618094
C8    C     C_R   0.119696 0.617757 0.474000 0.626085
C9    C     C_R   0.939810 0.398264 0.527212 -0.059998
C10   C     C_R   0.060162 0.619819 0.473105 -0.064837
C11   C     C_R   0.969905 0.510110 0.501007 -0.040199
C12   C     C_R   0.030044 0.508369 0.501142 -0.040083
C13   C     C_R   0.939944 0.623315 0.474450 -0.123508
C14   C     C_R   0.059993 0.395445 0.529055 -0.117723
C15   C     C_R   0.969491 0.287144 0.556172 -0.153920
C16   C     C_R   0.030496 0.731586 0.447634 -0.149631
C17   C     C_R   0.028850 0.284845 0.560581 0.332989
C18   C     C_R   0.971148 0.735381 0.450588 0.335056
O9    O     O_2   0.849364 0.721714 0.436635 -0.435041
O10   O     O_2   0.150394 0.291059 0.535189 -0.435672
O11   O     O_2   0.850854 0.294231 0.553202 -0.480139
O12   O     O_2   0.149164 0.724391 0.450519 -0.476578
H1    H     H_    0.946570 0.201552 0.580123 0.241141
H2    H     H_    0.053434 0.818117 0.428774 0.243051
C19   C     C_R   0.238611 0.504607 0.374012 -0.079572
C20   C     C_R   0.761247 0.497863 0.375453 -0.076414
H3    H     H_    0.215446 0.502414 0.274381 0.148239
H4    H     H_    0.784325 0.490491 0.276264 0.150258
C21   C     C_R   0.297742 0.501870 0.372560 -0.128439
C22   C     C_R   0.702132 0.494946 0.373778 -0.167872
H5    H     H_    0.319408 0.498240 0.271154 0.163361
H6    H     H_    0.680386 0.485768 0.272629 0.168129
C23   C     C_R   0.328355 0.503311 0.500628 -0.031631
C24   C     C_R   0.671625 0.503134 0.501305 -0.043924
C25   C     C_R   0.298815 0.508012 0.630218 -0.218497
C26   C     C_R   0.701244 0.515042 0.630552 -0.177054
H7    H     H_    0.322444 0.510170 0.729201 0.194288
H8    H     H_    0.677643 0.522691 0.728937 0.195921
C27   C     C_R   0.239209 0.511748 0.633586 0.004429
C28   C     C_R   0.760867 0.519205 0.634110 0.000023
C29   C     C_R   0.209045 0.509274 0.502972 0.266304
C30   C     C_R   0.790916 0.509672 0.504043 0.266579
C31   C     C_3   0.520771 0.040179 0.623867 -0.095355
C32   C     C_3   0.477946 0.959170 0.376077 -0.096308
C33   C     C_3   0.551580 0.957396 0.515400 0.322847
C34   C     C_3   0.446997 0.041889 0.484578 0.319665
C35   C     C_3   0.498415 0.876216 0.499743 -0.212624
C36   C     C_3   0.500266 0.123457 0.500165 -0.223964
C37   C     C_3   0.466467 0.958317 0.609417 -0.264514
C38   C     C_3   0.532267 0.041056 0.390523 -0.270088
H9    H     H_    0.439258 0.923413 0.697159 0.201093
H10   H     H_    0.559412 0.075941 0.302643 0.208649
C39   C     C_3   0.535879 0.581117 0.051115 -0.003486
C40   C     C_3   0.464121 0.418886 0.948879 -0.007370
C41   C     C_3   0.486141 0.609228 0.949691 -0.020100
C42   C     C_3   0.513860 0.390773 0.050303 -0.026280
H11   H     H_    0.474330 0.701247 0.902927 0.156104
H12   H     H_    0.525672 0.298754 0.097061 0.155651
H13   H     H_    0.565980 0.649383 0.099289 0.153204
H14   H     H_    0.434016 0.350639 0.900688 0.153427
N3    N     N_3   0.500040 0.499970 0.858290 -0.176101
N4    N     N_3   0.499960 0.500030 0.141710 -0.176387
C43   C     C_3   0.549785 0.471863 0.949849 -0.046572
C44   C     C_3   0.450216 0.528138 0.050144 -0.048769
H15   H     H_    0.591693 0.447698 0.903194 0.143344
H16   H     H_    0.408304 0.552274 0.096784 0.138787
N5    N     N_R   0.056080 0.170964 0.604945 0.176229
O13   O     O_R   0.041656 0.064868 0.546406 -0.286784
O14   O     O_R   0.084975 0.169495 0.723117 -0.252770
N6    N     N_R   0.944003 0.855132 0.435243 0.179239
O15   O     O_R   0.957166 0.926832 0.328465 -0.282076
O16   O     O_R   0.916788 0.903455 0.542548 -0.242162
C45   C     C_2   0.210248 0.519136 0.774273 0.911633
O17   O     O_2   0.159776 0.545544 0.782453 -0.559949
O18   O     O_R   0.241246 0.497349 0.899010 -0.762255
H17   H     H_    0.217177 0.505573 0.987851 0.343726
C46   C     C_2   0.789920 0.534371 0.774307 0.913758
O19   O     O_2   0.840775 0.557412 0.781081 -0.559322
O20   O     O_R   0.758608 0.523689 0.900099 -0.764040
H18   H     H_    0.782796 0.536319 0.988383 0.345731
N7    N     N_R   0.608710 0.907101 0.534161 0.138274
O21   O     O_R   0.648233 0.932334 0.442140 -0.298182
O22   O     O_R   0.620268 0.835894 0.642599 -0.340842
N8    N     N_R   0.388778 0.086446 0.467193 0.141591
O23   O     O_R   0.347193 0.006182 0.462083 -0.271918
O24   O     O_R   0.377833 0.205800 0.458824 -0.370656
C47   C     C_2   0.546519 0.086475 0.760100 0.935297
O25   O     O_2   0.523826 0.062126 0.873403 -0.558795
O26   O     O_R   0.596195 0.158200 0.756324 -0.730019
H19   H     H_    0.609156 0.185425 0.854553 0.330605
C48   C     C_2   0.452763 0.912530 0.239246 0.924173
O27   O     O_2   0.475185 0.939235 0.126290 -0.560906
O28   O     O_R   0.404095 0.837471 0.241979 -0.722182
H20   H     H_    0.391510 0.810426 0.143384 0.326776

loop_
_geom_bond_atom_site_label_1
_geom_bond_atom_site_label_2
_geom_bond_distance
_ccdc_geom_bond_type
C40   C42   1.537408 S    
O18   H17   1.013966 S    
N7    O21   1.300237 A    
C15   C17   1.396956 A    
C21   H5    1.082957 S    
C27   C45   1.491476 S    
C33   C38   1.543177 S    
C25   H7    1.083167 S    
C45   O17   1.222492 D    
C42   C43   1.536556 S    
O5    C3    1.300289 A    
O26   H19   1.013813 S    
N4    C44   1.481912 S    
O1    C1    1.288437 A    
Cu2   N4    2.023159 S    
C10   C12   1.408558 A    
C7    C9    1.400076 A    
C44   H16   1.109824 S    
C20   C22   1.390913 A    
C33   C35   1.527384 S    
C42   N4    1.482139 S    
C36   C38   1.548926 S    
C22   C24   1.401587 A    
O4    Cu1   1.962632 S    
C37   H9    1.110357 S    
C34   N8    1.458072 S    
C38   H10   1.110399 S    
N2    C29   1.434174 S    
C40   H14   1.110300 S    
C39   C41   1.537405 S    
C17   N5    1.433918 S    
C11   C12   1.414676 A    
C41   N3    1.482117 S    
C46   O20   1.399898 S    
C8    O12   1.349878 S    
C34   C37   1.543446 S    
C26   H8    1.083027 S    
C9    C15   1.400863 A    
N7    O22   1.300434 A    
C33   N7    1.456899 S    
Cu1   Cu2   2.692345 S    
N3    C43   1.481894 S    
C28   C46   1.491973 S    
O2    C2    1.287894 A    
C22   H6    1.083149 S    
C28   C30   1.417587 A    
C23   C25   1.405087 A    
C6    C14   1.413389 A    
C24   C26   1.404977 A    
C35   C37   1.546724 S    
C45   O18   1.399407 S    
C4    C24   1.472795 S    
C7    O11   1.349946 S    
O20   H18   1.014041 S    
N5    O14   1.301343 A    
C25   C27   1.403036 A    
C15   H1    1.083848 S    
C39   H13   1.110292 S    
C40   N3    1.480949 S    
C39   N4    1.481005 S    
N8    O24   1.299601 A    
C27   C29   1.417172 A    
C18   N6    1.433637 S    
O7    Cu2   1.943468 S    
C43   H15   1.109882 S    
C47   O25   1.221338 D    
C20   C30   1.400129 A    
C26   C28   1.403489 A    
O6    C4    1.301670 A    
C40   C44   1.537638 S    
N8    O23   1.300202 A    
C48   O28   1.396986 S    
C6    N2    1.367593 A    
O7    C3    1.302066 A    
O3    Cu2   1.962632 S    
O8    C4    1.300540 A    
O4    C2    1.290126 A    
C47   O26   1.396973 S    
C8    C10   1.400507 A    
N6    O16   1.301336 A    
C31   C33   1.530398 S    
C32   C38   1.552951 S    
C3    C23   1.473130 S    
O1    Cu1   1.961613 S    
C13   C18   1.420236 A    
C5    N1    1.367581 A    
O6    Cu2   1.942379 S    
C1    C36   1.451727 S    
Cu1   N3    2.023159 S    
C2    C35   1.449467 S    
C32   C48   1.499009 S    
C12   C14   1.418403 A    
O3    C1    1.290545 A    
O8    Cu1   1.943465 S    
C5    O9    1.348052 S    
C6    O10   1.348158 S    
O28   H20   1.013799 S    
C39   C43   1.537658 S    
C32   C35   1.538394 S    
C9    C11   1.408675 A    
C19   C29   1.400245 A    
C19   H3    1.082895 S    
C20   H4    1.083051 S    
C31   C37   1.552475 S    
C16   C18   1.396880 A    
N1    C7    1.365168 A    
C32   C34   1.531766 S    
N2    C8    1.364958 A    
C11   C13   1.418773 A    
C19   C21   1.391262 A    
O2    Cu2   1.961613 S    
C5    C13   1.413798 A    
N5    O13   1.300790 A    
O5    Cu1   1.942384 S    
C16   H2    1.083477 S    
C14   C17   1.419880 A    
C42   H12   1.110177 S    
N6    O15   1.301072 A    
C31   C47   1.498289 S    
C48   O27   1.221361 D    
C21   C23   1.401723 A    
C10   C16   1.400526 A    
C41   C44   1.536539 S    
C41   H11   1.110184 S    
C46   O19   1.222724 D    
C31   C36   1.540905 S    
C34   C36   1.531658 S    
N1    C30   1.434065 S    
