data_mof_unit_26067.cif
_audit_creation_date              2012-12-10T20:51:42-0500
_audit_creation_method            fapswitch 2.2
_symmetry_space_group_name_H-M    P1
_symmetry_Int_Tables_number       1
_space_group_crystal_system       triclinic
_cell_length_a                    8.113866
_cell_length_b                    8.935044
_cell_length_c                    16.708765
_cell_angle_alpha                 89.538865
_cell_angle_beta                  93.972305
_cell_angle_gamma                 90.010873
_cell_volume                      1208.39856328

loop_
_atom_site_label
_atom_site_type_symbol
_atom_type_description
_atom_site_fract_x
_atom_site_fract_y
_atom_site_fract_z
_atom_type_partial_charge
C1    C     C_R   0.499968 0.218015 0.500019 0.939102
C2    C     C_R   0.500032 0.781985 0.499981 0.939112
C3    C     C_R   0.520659 0.501703 0.654012 0.884761
C4    C     C_R   0.479341 0.498285 0.345988 0.884755
C5    C     C_R   0.532759 0.520643 0.740357 -0.103018
C6    C     C_R   0.467243 0.479244 0.259650 -0.103022
C7    C     C_R   0.401133 0.585404 0.777357 -0.225598
C8    C     C_R   0.598878 0.414441 0.222674 -0.225580
C9    C     C_R   0.411765 0.606053 0.859727 0.029990
C10   C     C_R   0.588237 0.393659 0.140314 0.030000
C11   C     C_R   0.553245 0.556201 0.905940 0.168780
C12   C     C_R   0.446741 0.443425 0.094083 0.168741
C13   C     C_R   0.691001 0.501913 0.868296 -0.016121
C14   C     C_R   0.308972 0.497736 0.131709 -0.016113
C15   C     C_R   0.679090 0.483667 0.785239 -0.182038
C16   C     C_R   0.320890 0.516115 0.214757 -0.182038
C17   C     C_1   0.499973 0.065192 0.500005 -0.182358
C18   C     C_1   0.500027 0.934808 0.499995 -0.182363
H1    H     H_    0.708950 0.378103 0.258086 0.172797
H2    H     H_    0.291076 0.621812 0.741956 0.172787
H3    H     H_    0.782764 0.438854 0.755564 0.202283
H4    H     H_    0.217206 0.560949 0.244415 0.202282
N1    N     N_1   0.073640 0.500030 0.499990 -0.029273
N2    N     N_1   0.926360 0.499970 0.500010 -0.029274
N3    N     N_2   0.551832 0.546504 0.989888 -0.184548
N4    N     N_2   0.448175 0.453091 0.010134 -0.184570
O1    O     O_R   0.636850 0.285340 0.500000 -0.614845
O2    O     O_R   0.363150 0.714660 0.500000 -0.614839
O3    O     O_R   0.363100 0.285350 0.500000 -0.610675
O4    O     O_R   0.636900 0.714650 0.500000 -0.610672
O5    O     O_R   0.652140 0.498630 0.616140 -0.621549
O6    O     O_R   0.347860 0.501370 0.383860 -0.621550
O7    O     O_R   0.378390 0.498650 0.616130 -0.615372
O8    O     O_R   0.621610 0.501350 0.383870 -0.615380
Zn1   Zn    Zn3+2 0.682780 0.499990 0.500010 0.999484
Zn2   Zn    Zn3+2 0.317220 0.500010 0.499990 0.999489
C19   C     C_1   0.721209 0.317203 0.104617 0.212701
N5    N     N_1   0.827737 0.254443 0.076709 -0.176981
C20   C     C_1   0.278806 0.682475 0.895452 0.212660
N6    N     N_1   0.172288 0.745208 0.923384 -0.176935
C21   C     C_2   0.845784 0.462544 0.915675 0.421097
H5    H     H_    0.859674 0.489592 0.978730 0.108176
O9    O     O_2   0.959770 0.401158 0.884862 -0.576767
C22   C     C_2   0.154171 0.536998 0.084316 0.421103
H6    H     H_    0.140291 0.509865 0.021272 0.108155
O10   O     O_2   0.040160 0.598390 0.115106 -0.576777

loop_
_geom_bond_atom_site_label_1
_geom_bond_atom_site_label_2
_ccdc_geom_bond_type
C6    C8    A    
N1    N2    T    
C13   C21   S    
C14   C16   A    
C2    C18   S    
C21   O9    D    
C21   H5    S    
C1    C17   S    
C9    C20   S    
C2    O4    A    
C1    O3    A    
C17   C18   T    
C3    O5    A    
C11   C13   A    
O3    Zn2   S    
C9    C11   A    
C4    O6    A    
C10   C12   A    
O4    Zn1   S    
C10   C19   S    
O6    Zn2   S    
C14   C22   S    
C19   N5    T    
C12   C14   A    
O8    Zn1   S    
N1    Zn2   S    
C4    O8    A    
C13   C15   A    
O5    Zn1   S    
C5    C15   A    
N2    Zn1   S    
C3    O7    A    
C6    C16   A    
C8    H1    S    
C7    C9    A    
C15   H3    S    
O7    Zn2   S    
C22   H6    S    
O2    Zn2   S    
C1    O1    A    
C7    H2    S    
C12   N4    S    
C20   N6    T    
C5    C7    A    
C11   N3    S    
C2    O2    A    
C22   O10   D    
O1    Zn1   S    
N3    N4    D    
C4    C6    S    
C8    C10   A    
C16   H4    S    
C3    C5    S    
