data_mof_unit_9767.cif
_audit_creation_date              2012-12-10T19:04:17-0500
_audit_creation_method            fapswitch 2.2
_symmetry_space_group_name_H-M    P1
_symmetry_Int_Tables_number       1
_space_group_crystal_system       triclinic
_cell_length_a                    10.76361
_cell_length_b                    13.000381
_cell_length_c                    13.586232
_cell_angle_alpha                 85.513035
_cell_angle_beta                  89.756695
_cell_angle_gamma                 92.969415
_cell_volume                      1892.69823401

loop_
_atom_site_label
_atom_site_type_symbol
_atom_type_description
_atom_site_fract_x
_atom_site_fract_y
_atom_site_fract_z
_atom_type_partial_charge
C1    C     C_R   0.501589 0.481000 0.685176 0.907222
C2    C     C_3   0.119768 0.496563 0.507169 -0.493197
C3    C     C_3   0.071734 0.518998 0.395402 0.640836
C4    C     C_3   0.073567 0.579919 0.580297 0.597387
C5    C     C_1   0.508655 0.534972 0.211618 -0.184799
C6    C     C_2   0.518500 0.548588 0.018909 0.427865
C7    C     C_2   0.520087 0.457226 0.979851 0.368872
C8    C     C_1   0.514856 0.457234 0.875463 -0.080723
C9    C     C_1   0.513628 0.545301 0.124149 -0.089769
C10   C     C_1   0.508785 0.465763 0.788123 -0.171678
C11   C     C_2   0.480268 0.033846 0.462025 0.364740
C12   C     C_R   0.742291 0.498006 0.505986 1.083564
C13   C     C_2   0.521809 0.966477 0.534500 0.287351
C14   C     C_1   0.520858 0.854372 0.522566 0.095096
C15   C     C_1   0.480097 0.145867 0.476268 0.044512
C16   C     C_R   0.503536 0.519029 0.314752 0.872203
C17   C     C_R   0.257012 0.499325 0.505423 0.971151
C18   C     C_3   0.920770 0.389234 0.565677 0.626590
C19   C     C_3   0.067440 0.381541 0.548149 0.771903
C20   C     C_3   0.926115 0.500772 0.396829 0.665352
C21   C     C_3   0.930690 0.591210 0.563876 0.697595
C22   C     C_3   0.878827 0.494713 0.507839 -0.438916
N1    N     N_1   0.479840 0.234530 0.484780 -0.103276
N2    N     N_1   0.520150 0.765470 0.515220 -0.083785
O1    O     O_R   0.492620 0.402510 0.634760 -0.627193
O2    O     O_R   0.505570 0.572960 0.644530 -0.617282
O3    O     O_R   0.678730 0.414780 0.495130 -0.629862
O4    O     O_R   0.691680 0.585220 0.504900 -0.540697
O5    O     O_R   0.494430 0.427040 0.355470 -0.604696
O6    O     O_R   0.507380 0.597490 0.365240 -0.616271
O7    O     O_R   0.308320 0.414780 0.495100 -0.589280
O8    O     O_R   0.321270 0.585220 0.504870 -0.619850
Zn1   Zn    Zn3+2 0.491360 0.386190 0.493470 0.977443
Zn2   Zn    Zn3+2 0.508640 0.613810 0.506530 1.010021
O9    O     O_3   0.853419 0.304170 0.529123 -0.816611
H1    H     H_    0.781727 0.280642 0.572624 0.367376
O10   O     O_3   0.135097 0.679787 0.566901 -0.816564
H2    H     H_    0.153302 0.700336 0.497067 0.378700
O11   O     O_3   0.868217 0.583725 0.341738 -0.618224
C23   C     C_3   0.869117 0.575426 0.238330 0.215795
H3    H     H_    0.792242 0.521032 0.217850 0.135387
H4    H     H_    0.958518 0.548626 0.211358 0.184508
C24   C     C_3   0.847176 0.680517 0.186018 -0.856648
H5    H     H_    0.922322 0.737398 0.204304 0.268752
H6    H     H_    0.846227 0.674846 0.104873 0.201313
H7    H     H_    0.756285 0.707595 0.209575 0.258943
O12   O     O_3   0.100296 0.624266 0.359805 -0.676067
C25   C     C_3   0.196921 0.641258 0.288705 0.112747
H8    H     H_    0.169453 0.608491 0.218370 0.167005
H9    H     H_    0.283260 0.607855 0.316409 0.152825
C26   C     C_3   0.224451 0.756823 0.267927 -0.810101
H10   H     H_    0.255185 0.791481 0.336530 0.281456
H11   H     H_    0.299719 0.770833 0.211587 0.201459
H12   H     H_    0.140038 0.794553 0.239840 0.247571
O13   O     O_3   0.522542 0.365652 0.039017 -0.786350
H13   H     H_    0.522464 0.307751 0.995540 0.336231
O14   O     O_3   0.516116 0.639676 0.956667 -0.643233
C27   C     C_3   0.520721 0.729759 0.008582 0.088400
H14   H     H_    0.606725 0.734515 0.053620 0.149493
H15   H     H_    0.437004 0.731200 0.056785 0.143572
C28   C     C_3   0.522561 0.824062 0.934825 -0.810494
H16   H     H_    0.437417 0.821988 0.888953 0.257571
H17   H     H_    0.525905 0.895481 0.974774 0.207217
H18   H     H_    0.605707 0.825352 0.885936 0.253133
O15   O     O_3   0.566712 0.004219 0.620557 -0.799887
H19   H     H_    0.592850 0.944977 0.664759 0.330893
O16   O     O_3   0.431889 0.993284 0.377154 -0.642836
C29   C     C_3   0.446233 0.064458 0.293324 0.124279
H20   H     H_    0.544691 0.094960 0.284566 0.148604
H21   H     H_    0.384099 0.129549 0.298703 0.156803
C30   C     C_3   0.410641 0.010046 0.201598 -0.823192
H22   H     H_    0.311580 0.981549 0.206664 0.258163
H23   H     H_    0.423610 0.064789 0.134966 0.216658
H24   H     H_    0.470080 0.943636 0.194364 0.250815
O17   O     O_3   0.892116 0.395929 0.668300 -0.560945
C31   C     C_3   0.896494 0.303178 0.730315 0.192293
H25   H     H_    0.971390 0.313389 0.785119 0.195563
H26   H     H_    0.915551 0.233716 0.691313 0.111925
C32   C     C_3   0.774178 0.284176 0.787145 -0.863857
H27   H     H_    0.777698 0.212978 0.837610 0.214222
H28   H     H_    0.758014 0.350487 0.831573 0.271311
H29   H     H_    0.695536 0.274762 0.735465 0.262581
O18   O     O_3   0.127020 0.357942 0.641505 -0.615088
C33   C     C_3   0.186824 0.263273 0.654805 0.145150
H30   H     H_    0.257425 0.255958 0.596631 0.213763
H31   H     H_    0.119025 0.196497 0.659397 0.105350
C34   C     C_3   0.253094 0.257411 0.753463 -0.863544
H32   H     H_    0.184781 0.257363 0.814915 0.236598
H33   H     H_    0.304327 0.185329 0.762595 0.225168
H34   H     H_    0.320092 0.324172 0.757025 0.266754
O19   O     O_3   0.103313 0.314167 0.473821 -0.595857
C35   C     C_3   0.044402 0.214596 0.468498 0.205515
H35   H     H_    0.970905 0.219306 0.411442 0.245939
H36   H     H_    0.002401 0.180100 0.538555 0.122896
C36   C     C_3   0.137948 0.141306 0.433323 -0.873139
H37   H     H_    0.210146 0.126842 0.489897 0.232359
H38   H     H_    0.089713 0.066250 0.419582 0.228178
H39   H     H_    0.182985 0.174919 0.363611 0.275909
O20   O     O_3   0.894054 0.405475 0.356591 -0.725732
H40   H     H_    0.802825 0.399789 0.347050 0.344019
O21   O     O_3   0.118071 0.449687 0.329491 -0.716907
H41   H     H_    0.209180 0.445918 0.335333 0.329549
O22   O     O_3   0.903472 0.685591 0.509843 -0.764300
H42   H     H_    0.959186 0.701018 0.452689 0.384927
O23   O     O_3   0.867390 0.586994 0.657368 -0.543402
C37   C     C_3   0.868729 0.682964 0.700043 0.258763
H43   H     H_    0.801625 0.734142 0.661464 0.170094
H44   H     H_    0.962858 0.722461 0.697036 0.158503
C38   C     C_3   0.827793 0.664458 0.807544 -0.865480
H45   H     H_    0.891841 0.612570 0.848443 0.263950
H46   H     H_    0.828703 0.739044 0.842233 0.200492
H47   H     H_    0.732006 0.628201 0.812331 0.285205
O24   O     O_3   0.087697 0.538857 0.680669 -0.539545
C39   C     C_3   0.184860 0.586658 0.733474 0.268306
H48   H     H_    0.167813 0.669251 0.741367 0.157459
H49   H     H_    0.275492 0.580390 0.696292 0.163731
C40   C     C_3   0.190016 0.533698 0.837077 -0.878679
H50   H     H_    0.207098 0.450795 0.833781 0.271926
H51   H     H_    0.266308 0.570556 0.878926 0.230915
H52   H     H_    0.100663 0.540618 0.876492 0.253272

loop_
_geom_bond_atom_site_label_1
_geom_bond_atom_site_label_2
_ccdc_geom_bond_type
C34   H32   S    
O21   H41   S    
C12   C22   S    
C36   H37   S    
C31   C32   S    
C7    O13   S    
O13   H13   S    
C6    C9    S    
C39   H48   S    
C36   H39   S    
C7    C8    S    
C13   O15   S    
O3    Zn1   S    
C18   O17   S    
C14   N2    T    
C12   O4    A    
C33   H31   S    
C38   H46   S    
C37   H43   S    
C27   H15   S    
O5    Zn1   S    
C18   C19   S    
C3    O12   S    
C28   H17   S    
C5    C16   S    
C11   C15   S    
O2    Zn2   S    
C25   C26   S    
O20   H40   S    
C29   H20   S    
N1    Zn1   S    
O7    Zn1   S    
C13   C14   S    
C18   O9    S    
C3    O21   S    
C27   C28   S    
C15   N1    T    
O4    Zn2   S    
C21   C22   S    
C2    C17   S    
C1    O1    A    
C6    O14   S    
C19   O18   S    
C11   O16   S    
C23   C24   S    
O6    Zn2   S    
C12   O3    A    
O16   C29   S    
O12   C25   S    
C4    O24   S    
C31   H25   S    
C38   H47   S    
O11   C23   S    
C30   H23   S    
C20   O11   S    
C27   H14   S    
C35   C36   S    
N2    Zn2   S    
C26   H10   S    
C26   H11   S    
O9    H1    S    
O8    Zn2   S    
C28   H18   S    
C2    C4    S    
O17   C31   S    
C5    C9    T    
O10   H2    S    
C30   H24   S    
O18   C33   S    
C35   H36   S    
C3    C20   S    
C33   H30   S    
C24   H6    S    
C8    C10   T    
C25   H8    S    
C20   C22   S    
C34   H33   S    
C24   H5    S    
C1    O2    A    
C17   O7    A    
C40   H52   S    
O19   C35   S    
C32   H28   S    
O24   C39   S    
C23   H3    S    
C2    C19   S    
C18   C22   S    
C1    C10   S    
C31   H26   S    
C23   H4    S    
C32   H29   S    
C39   H49   S    
C36   H38   S    
C6    C7    D    
C33   C34   S    
O23   C37   S    
C26   H12   S    
C40   H51   S    
C2    C3    S    
C16   O5    A    
C30   H22   S    
C40   H50   S    
C4    C21   S    
C11   C13   D    
O14   C27   S    
C20   O20   S    
C37   H44   S    
C29   C30   S    
C25   H9    S    
C35   H35   S    
C28   H16   S    
C24   H7    S    
C39   C40   S    
C19   O19   S    
C32   H27   S    
C21   O22   S    
C4    O10   S    
C29   H21   S    
O15   H19   S    
C34   H34   S    
O22   H42   S    
C17   O8    A    
C38   H45   S    
C16   O6    A    
C21   O23   S    
O1    Zn1   S    
C37   C38   S    
