data_mof_unit_50218.cif
_audit_creation_date              2012-12-11T16:57:15-0500
_audit_creation_method            fapswitch 2.2
_symmetry_space_group_name_H-M    P1
_symmetry_Int_Tables_number       1
_space_group_crystal_system       triclinic
_cell_length_a                    14.464712
_cell_length_b                    16.259793
_cell_length_c                    6.968609
_cell_angle_alpha                 89.833285
_cell_angle_beta                  98.909306
_cell_angle_gamma                 89.973205
_cell_volume                      1619.1874364

loop_
_atom_site_label
_atom_site_type_symbol
_atom_type_description
_atom_site_fract_x
_atom_site_fract_y
_atom_site_fract_z
_atom_type_partial_charge
O1    O     O_R   0.584990 0.413650 0.534420 -0.556531
O2    O     O_R   0.584990 0.586350 0.534420 -0.561088
O3    O     O_R   0.596190 0.585230 0.208380 -0.518970
O4    O     O_R   0.596190 0.414770 0.208380 -0.513505
O5    O     O_R   0.415010 0.586420 0.976930 -0.503579
O6    O     O_R   0.415010 0.413580 0.976930 -0.503251
C1    C     C_R   0.618501 0.614342 0.383889 0.710765
C2    C     C_R   0.618823 0.385825 0.384613 0.713588
O7    O     O_3   0.440560 0.500000 0.319140 -0.340222
V1    V     V_3+5 0.511030 0.500000 0.068070 1.623009
O8    O     O_R   0.403810 0.414840 0.643540 -0.537311
O9    O     O_R   0.403810 0.585160 0.643540 -0.539269
C3    C     C_R   0.381673 0.386016 0.806370 0.784119
C4    C     C_R   0.381669 0.614073 0.806119 0.772445
V2    V     V_3+5 0.488970 0.500000 0.560620 1.540463
O10   O     O_3   0.559440 0.500000 0.859420 -0.378327
H1    H     H_    0.187974 0.805963 0.807324 0.119366
H2    H     H_    0.187828 0.194613 0.807032 0.120777
C5    C     C_2   0.312432 0.682074 0.798689 -0.430557
C6    C     C_2   0.312431 0.318197 0.799045 -0.420104
C7    C     C_2   0.288328 0.716404 0.961484 0.641110
C8    C     C_2   0.288000 0.283779 0.961651 0.644504
H3    H     H_    0.225311 0.796502 0.254716 0.177600
H4    H     H_    0.224752 0.203275 0.254273 0.180394
C9    C     C_2   0.194502 0.818567 0.111736 -0.291859
C10   C     C_2   0.194097 0.181466 0.111298 -0.264922
C11   C     C_2   0.219160 0.784144 0.950362 -0.238612
C12   C     C_2   0.218858 0.216150 0.950092 -0.239550
H5    H     H_    0.280743 0.704843 0.656875 0.109441
H6    H     H_    0.280994 0.295604 0.657237 0.110834
C13   C     C_R   0.754781 0.687349 0.583924 -0.018860
C14   C     C_R   0.757219 0.313429 0.583549 -0.018430
C15   C     C_R   0.688736 0.682076 0.414262 -0.035926
C16   C     C_R   0.689104 0.317941 0.416223 -0.055659
C17   C     C_R   0.689853 0.745465 0.275572 -0.125119
C18   C     C_R   0.688867 0.254149 0.279017 -0.074141
H7    H     H_    0.639281 0.745044 0.143730 0.102496
H8    H     H_    0.636931 0.254008 0.149220 0.128952
C19   C     C_R   0.751829 0.813122 0.312123 -0.123878
C20   C     C_R   0.750902 0.186515 0.314995 -0.068156
H9    H     H_    0.745767 0.864286 0.213266 0.161642
H10   H     H_    0.742602 0.134531 0.218796 0.106858
C21   C     C_R   0.816632 0.818606 0.483648 -0.064510
C22   C     C_R   0.818442 0.182358 0.482736 -0.044708
C23   C     C_R   0.813979 0.755631 0.619383 -0.038068
C24   C     C_R   0.818613 0.246281 0.616479 -0.020854
C25   C     C_3   0.798078 0.762155 0.825211 -0.072139
C26   C     C_3   0.808619 0.240067 0.826192 -0.098808
C27   C     C_3   0.739380 0.682977 0.791050 -0.332239
C28   C     C_3   0.745304 0.316750 0.793295 -0.200623
H11   H     H_    0.664290 0.689152 0.806620 0.131429
H12   H     H_    0.671514 0.307047 0.815344 0.172957
O11   O     O_R   0.921430 0.915960 0.371040 -0.502442
O12   O     O_R   0.921430 0.084040 0.371040 -0.529946
O13   O     O_R   0.910450 0.087500 0.697310 -0.565405
O14   O     O_R   0.910450 0.912500 0.697310 -0.511240
O15   O     O_R   0.091710 0.087460 0.928430 -0.550406
O16   O     O_R   0.091710 0.912540 0.928430 -0.540363
C29   C     C_R   0.886550 0.113035 0.518876 0.664327
C30   C     C_R   0.886000 0.887242 0.519114 0.733931
O17   O     O_3   0.065970 1.000000 0.586140 -0.387071
V3    V     V_3+5 0.995640 1.000000 0.837400 1.510074
O18   O     O_R   0.103020 0.915700 0.261710 -0.539732
O19   O     O_R   0.103020 0.084300 0.261710 -0.544051
C31   C     C_R   0.125285 0.886168 0.100375 0.777667
C32   C     C_R   0.125036 0.113924 0.100088 0.717299
V4    V     V_3+5 0.017940 1.000000 0.344880 1.496550
O20   O     O_3   0.947330 0.000000 0.046180 -0.340350
C33   C     C_2   0.783088 0.607205 0.890292 0.465924
H13   H     H_    0.817607 0.562684 0.809981 0.028891
O21   O     O_2   0.782261 0.596658 0.063367 -0.507336
C34   C     C_2   0.787253 0.393586 0.888775 0.460441
H14   H     H_    0.850342 0.419663 0.847098 0.032235
O22   O     O_2   0.752508 0.425322 0.018825 -0.497897
F1    F     F_    0.327585 0.689630 0.141220 -0.678181
F2    F     F_    0.326903 0.310334 0.141400 -0.674658
C35   C     C_2   0.736777 0.835997 0.853327 0.403034
H15   H     H_    0.661423 0.829070 0.839886 0.020483
O23   O     O_2   0.769664 0.904604 0.884765 -0.510624
C36   C     C_2   0.758131 0.161776 0.866306 0.377084
H16   H     H_    0.797596 0.110331 0.936619 0.092948
O24   O     O_2   0.674170 0.153446 0.812558 -0.537062
C37   C     C_2   0.890459 0.755214 0.960679 0.465750
H17   H     H_    0.937149 0.704034 0.946403 0.016338
O25   O     O_2   0.915386 0.807292 0.082820 -0.513373
C38   C     C_2   0.902144 0.249516 0.955491 0.312950
H18   H     H_    0.966747 0.240751 0.896837 0.055041
O26   O     O_2   0.906169 0.265481 0.127546 -0.523802

loop_
_geom_bond_atom_site_label_1
_geom_bond_atom_site_label_2
_ccdc_geom_bond_type
O16   V3    S    
O18   C31   A    
C34   O22   D    
O13   C29   A    
O1    C2    A    
O2    C1    A    
C8    F2    S    
O15   C32   A    
O4    C2    A    
O15   V3    S    
C25   C27   S    
C6    H6    S    
C35   H15   S    
C5    C7    D    
H4    C10   S    
O3    C1    A    
C38   O26   D    
C22   C29   S    
V2    O10   S    
O13   V3    S    
C23   C25   S    
C33   O21   D    
C28   C34   S    
C14   C16   A    
O8    V2    S    
C27   H11   S    
C28   H12   S    
C13   C15   A    
O1    V2    S    
C25   C37   S    
O7    V1    S    
C16   C18   A    
C20   H10   S    
C7    C11   S    
C27   C33   S    
C1    C15   S    
C33   H13   S    
C13   C27   S    
O11   C30   A    
C22   C24   A    
C24   C26   S    
O12   C29   A    
C35   O23   D    
O18   V4    S    
V4    O20   S    
C10   C32   S    
O19   V4    S    
C18   C20   A    
C9    C31   S    
C19   H9    S    
C38   H18   S    
C36   H16   S    
C19   C21   A    
O12   V4    S    
O14   C30   A    
H1    C11   S    
C17   C19   A    
O17   V4    S    
O16   C31   A    
C37   H17   S    
O9    V2    S    
H2    C12   S    
C2    C16   S    
O2    V2    S    
C21   C23   A    
C14   C28   S    
O5    C4    A    
C21   C30   S    
C36   O24   D    
C37   O25   D    
C6    C8    D    
O14   V3    S    
C25   C35   S    
O4    V1    S    
C5    H5    S    
C3    C6    S    
C17   H7    S    
C14   C24   A    
C4    C5    S    
O9    C4    A    
C34   H14   S    
O6    V1    S    
C9    C11   D    
C7    F1    S    
C10   C12   D    
V3    O20   S    
C26   C36   S    
C18   H8    S    
O7    V2    S    
O5    V1    S    
O3    V1    S    
V1    O10   S    
O6    C3    A    
O8    C3    A    
C26   C28   S    
C15   C17   A    
C26   C38   S    
H3    C9    S    
O17   V3    S    
O11   V4    S    
C20   C22   A    
C13   C23   A    
C8    C12   S    
O19   C32   A    
