data_mof_unit_33849.cif
_audit_creation_date              2013-03-05T15:52:44-0500
_audit_creation_method            fapswitch 2.2
_symmetry_space_group_name_H-M    P1
_symmetry_Int_Tables_number       1
_space_group_crystal_system       triclinic
_cell_length_a                    10.725217
_cell_length_b                    10.74619
_cell_length_c                    16.960613
_cell_angle_alpha                 99.752783
_cell_angle_beta                  99.597881
_cell_angle_gamma                 61.363534
_cell_volume                      1682.59922232

loop_
_atom_site_label
_atom_site_type_symbol
_atom_site_description
_atom_site_fract_x
_atom_site_fract_y
_atom_site_fract_z
_atom_type_partial_charge
O1    O     O_R   0.749250 0.499990 0.439200 -0.442343
O2    O     O_R   0.477870 0.725740 0.440280 -0.457310
C1    C     C_R   0.354182 0.776999 0.402280 0.592334
O3    O     O_R   0.260770 0.742210 0.412610 -0.505503
O4    O     O_R   0.297990 0.466320 0.394220 -0.458628
C2    C     C_R   0.369431 0.346085 0.357280 0.595001
O5    O     O_R   0.487720 0.253870 0.385870 -0.531063
O6    O     O_R   0.721940 0.304340 0.422320 -0.535794
C3    C     C_R   0.777673 0.375893 0.405024 0.563716
O7    O     O_R   0.750770 0.502570 0.614050 -0.452952
O8    O     O_R   0.479280 0.728140 0.602370 -0.440945
C4    C     C_R   0.381624 0.713484 0.631269 0.548326
O9    O     O_R   0.262290 0.744790 0.587460 -0.474820
O10   O     O_R   0.299400 0.468710 0.556310 -0.469990
C5    C     C_R   0.364352 0.345738 0.579572 0.559911
O11   O     O_R   0.489240 0.256450 0.560730 -0.475452
O12   O     O_R   0.723350 0.306730 0.584410 -0.510111
C6    C     C_R   0.776330 0.379515 0.629192 0.567576
Cr1   Cr    Cr6+3 0.608020 0.610770 0.522990 1.162944
Cr2   Cr    Cr6+3 0.289390 0.599570 0.488050 1.128550
Cr3   Cr    Cr6+3 0.602610 0.289690 0.489020 1.056775
O13   O     O_3   0.500010 0.500010 0.500020 -0.322681
C7    C     C_1   0.343293 0.336210 0.273875 0.038261
C8    C     C_1   0.331725 0.327094 0.202911 0.038351
C9    C     C_2   0.856135 0.321697 0.334130 0.212157
C10   C     C_2   0.823784 0.333491 0.157694 -0.043553
C11   C     C_2   0.846326 0.221451 0.193368 -0.116882
C12   C     C_2   0.816940 0.240619 0.276059 -0.150693
H1    H     H_    0.891220 0.113709 0.163274 0.161428
H2    H     H_    0.746193 0.200147 0.286300 0.130936
H3    H     H_    0.775856 0.440753 0.188516 0.146401
C13   C     C_2   0.326940 0.856755 0.334568 -0.017073
C14   C     C_2   0.348983 0.824516 0.158667 0.185052
C15   C     C_2   0.405153 0.889380 0.218423 -0.129877
C16   C     C_2   0.432424 0.859323 0.302426 0.144909
H4    H     H_    0.420456 0.977674 0.207357 0.121609
H5    H     H_    0.222621 0.889890 0.300475 0.109798
C17   C     C_2   0.295746 0.317587 0.637066 0.179153
C18   C     C_2   0.317487 0.307786 0.811078 -0.081468
C19   C     C_2   0.340493 0.195770 0.754765 -0.095596
C20   C     C_2   0.363422 0.195188 0.672010 0.164937
H6    H     H_    0.352584 0.096611 0.771056 0.161652
H7    H     H_    0.307271 0.408074 0.798464 0.131936
C21   C     C_1   0.844102 0.329651 0.705299 0.040166
C22   C     C_1   0.891804 0.293877 0.771589 0.005526
C23   C     C_1   0.359024 0.762868 0.713580 0.002778
C24   C     C_1   0.326137 0.810343 0.780557 -0.011306
O14   O     O_R   0.170650 0.915100 0.051290 -0.469643
O15   O     O_R   0.941960 0.184500 0.049060 -0.500418
C25   C     C_R   0.892478 0.308784 0.086125 0.568310
O16   O     O_R   0.922640 0.402670 0.071640 -0.494017
O17   O     O_R   0.196880 0.368740 0.083740 -0.459218
C26   C     C_R   0.319230 0.300284 0.119565 0.592597
O18   O     O_R   0.411120 0.181190 0.091480 -0.529814
O19   O     O_R   0.364220 0.944920 0.062310 -0.527500
C27   C     C_R   0.294735 0.890810 0.083790 0.560481
O20   O     O_R   0.158740 0.906940 0.874970 -0.485842
O21   O     O_R   0.930920 0.176940 0.885610 -0.486193
C28   C     C_R   0.943132 0.273261 0.853699 0.549802
O22   O     O_R   0.910730 0.394510 0.895320 -0.492758
O23   O     O_R   0.185840 0.361180 0.920280 -0.483481
C29   C     C_R   0.305704 0.289436 0.891231 0.548206
O24   O     O_R   0.399210 0.173040 0.915160 -0.503575
O25   O     O_R   0.353170 0.937370 0.898860 -0.503056
C30   C     C_R   0.280575 0.880637 0.857296 0.541878
Cr4   Cr    Cr6+3 0.053780 0.052210 0.965970 1.077724
Cr5   Cr    Cr6+3 0.060060 0.372530 0.992430 1.098610
Cr6   Cr    Cr6+3 0.372600 0.061970 0.991430 1.039958
O26   O     O_3   0.162150 0.162240 0.983280 -0.297776
N1    N     N_R   0.464359 0.063978 0.632083 0.082564
O27   O     O_R   0.438907 0.030097 0.555898 -0.336289
O28   O     O_R   0.569056 0.968624 0.674048 -0.305856
N2    N     N_R   0.161704 0.430617 0.663125 0.048202
O29   O     O_R   0.065522 0.400265 0.678978 -0.346780
O30   O     O_R   0.136106 0.563254 0.672607 -0.304746
N3    N     N_R   0.963163 0.362174 0.324996 0.062548
O31   O     O_R   0.070600 0.275794 0.284059 -0.378211
O32   O     O_R   0.965345 0.474557 0.366776 -0.316709
N4    N     N_2   0.565405 0.836000 0.348278 -0.465996
H8    H     H_    0.555564 0.893328 0.404226 0.292250
C31   C     C_3   0.679129 0.824538 0.307311 -0.248626
H9    H     H_    0.778143 0.792734 0.349231 0.183338
H10   H     H_    0.650305 0.928884 0.287015 0.130799
H11   H     H_    0.700858 0.741600 0.255108 0.178837
N5    N     N_R   0.335994 0.700232 0.168035 0.051780
O33   O     O_R   0.431706 0.605172 0.213691 -0.374502
O34   O     O_R   0.243035 0.669986 0.121039 -0.323023

loop_
_geom_bond_atom_site_label_1
_geom_bond_atom_site_label_2
_geom_bond_distance
_ccdc_geom_bond_type
O19   C27   1.266451 A    
O11   Cr3   2.035176 S    
C11   H1    1.086401 S    
N2    O29   1.299050 A    
O20   Cr4   2.040845 S    
O19   Cr6   1.921496 S    
C3    C9    1.457237 S    
O4    Cr2   1.934383 S    
N5    O33   1.301819 A    
C21   C22   1.199897 T    
C9    C12   1.352103 D    
O8    Cr1   1.919708 S    
C10   C11   1.339104 D    
O25   Cr6   1.935829 S    
N3    O32   1.301079 A    
C10   C25   1.445088 S    
O4    C2    1.259348 A    
Cr4   O26   1.980167 S    
O18   Cr6   2.056348 S    
C5    O11   1.274322 A    
O12   C6    1.261885 A    
C15   C16   1.464965 S    
C14   N5    1.444307 S    
O24   Cr6   2.037686 S    
O21   Cr4   1.928135 S    
O22   Cr5   2.055045 S    
Cr6   O26   1.972311 S    
C7    C8    1.181330 T    
N1    O27   1.301907 A    
C14   C27   1.456599 S    
C19   H6    1.088110 S    
C10   H3    1.087961 S    
Cr3   O13   1.973744 S    
N2    O30   1.301845 A    
O23   C29   1.273709 A    
C31   H10   1.111050 S    
C31   H9    1.110282 S    
N5    O34   1.301089 A    
O1    Cr1   2.036532 S    
O15   Cr4   1.922490 S    
C13   C16   1.348541 D    
O10   Cr2   1.922190 S    
Cr1   O13   1.981018 S    
O1    C3    1.270703 A    
N3    O31   1.301812 A    
C17   C20   1.346755 D    
C4    C23   1.424038 S    
C18   C19   1.351472 D    
N4    C31   1.447498 S    
O6    C3    1.268873 A    
C18   H7    1.084600 S    
C25   O16   1.267376 A    
C8    C26   1.391063 S    
O5    Cr3   2.057878 S    
O12   Cr3   1.938104 S    
Cr5   O26   1.973807 S    
C5    C17   1.461633 S    
C29   O24   1.252562 A    
C6    C21   1.424721 S    
O23   Cr5   1.916871 S    
O7    Cr1   2.048136 S    
C14   C15   1.354814 D    
O16   Cr5   2.034042 S    
C13   H5    1.088638 S    
O17   Cr5   1.938982 S    
C19   C20   1.463289 S    
Cr2   O13   1.973030 S    
C1    O3    1.270399 A    
C31   H11   1.111283 S    
O17   C26   1.261982 A    
O14   C27   1.270536 A    
C18   C29   1.440457 S    
C23   C24   1.199961 T    
C22   C28   1.422514 S    
O9    Cr2   2.049350 S    
O2    Cr1   1.929764 S    
O20   C30   1.274811 A    
O6    Cr3   1.918026 S    
O8    C4    1.310539 A    
C26   O18   1.255846 A    
C2    O5    1.256697 A    
C9    N3    1.446232 S    
O25   C30   1.265378 A    
C12   H2    1.086710 S    
O2    C1    1.270194 A    
O21   C28   1.313343 A    
O7    C6    1.278233 A    
C2    C7    1.391538 S    
C16   N4    1.433648 S    
C15   H4    1.087336 S    
C1    C13   1.456153 S    
N4    H8    1.031567 S    
O3    Cr2   2.040458 S    
C28   O22   1.285676 A    
C4    O9    1.287723 A    
O15   C25   1.268077 A    
C11   C12   1.447766 S    
O10   C5    1.260902 A    
N1    O28   1.301993 A    
O14   Cr4   2.045341 S    
C24   C30   1.424284 S    
C20   N1    1.441016 S    
C17   N2    1.446984 S    
