data_mof_unit_12876.cif
_audit_creation_date              2012-12-10T19:05:18-0500
_audit_creation_method            fapswitch 2.2
_symmetry_space_group_name_H-M    P1
_symmetry_Int_Tables_number       1
_space_group_crystal_system       triclinic
_cell_length_a                    9.539059
_cell_length_b                    10.860177
_cell_length_c                    17.321371
_cell_angle_alpha                 90.253744
_cell_angle_beta                  85.484584
_cell_angle_gamma                 90.034153
_cell_volume                      1788.8353351

loop_
_atom_site_label
_atom_site_type_symbol
_atom_type_description
_atom_site_fract_x
_atom_site_fract_y
_atom_site_fract_z
_atom_type_partial_charge
C1    C     C_R   0.500166 0.737313 0.500128 0.808343
C2    C     C_R   0.359555 0.551774 0.774932 -0.219274
C3    C     C_R   0.424148 0.556512 0.147577 -0.143415
C4    C     C_R   0.417997 0.555230 0.227848 -0.209722
C5    C     C_R   0.647915 0.458893 0.222572 -0.198804
C6    C     C_R   0.653722 0.459340 0.142044 -0.168684
C7    C     C_R   0.540642 0.505528 0.104118 0.190820
C8    C     C_2   0.431418 0.492489 0.980246 -0.221662
C9    C     C_2   0.547131 0.498370 0.019321 -0.232043
C10   C     C_R   0.529031 0.505219 0.265777 -0.024569
C11   C     C_R   0.378693 0.937967 0.502509 0.132861
C12   C     C_R   0.481151 0.495635 0.649744 0.779091
C13   C     C_R   0.501952 0.869935 0.499985 -0.107500
C14   C     C_R   0.630129 0.935512 0.497199 -0.218390
C15   C     C_R   0.630097 0.064673 0.497118 -0.223231
C16   C     C_R   0.501879 0.130101 0.499801 -0.107567
C17   C     C_R   0.378645 0.061932 0.502328 0.135372
C18   C     C_3   0.222350 0.070689 0.506652 -0.472158
C19   C     C_3   0.222437 0.928873 0.506929 -0.477896
C20   C     C_R   0.931639 0.409183 0.462352 0.259222
C21   C     C_R   0.919407 0.582323 0.543294 -0.086582
C22   C     C_R   0.068353 0.582305 0.543319 -0.080383
C23   C     C_R   0.500151 0.262699 0.499996 0.797830
C24   C     C_R   0.079103 0.409184 0.462334 0.259298
C25   C     C_3   0.096892 0.379974 0.377937 -0.497311
C26   C     C_3   0.937960 0.380307 0.377980 -0.519240
C27   C     C_R   0.518785 0.501068 0.350130 0.792209
C28   C     C_R   0.468638 0.486395 0.734124 -0.081254
C29   C     C_R   0.561090 0.411903 0.774249 0.120510
C30   C     C_R   0.546248 0.413443 0.855523 -0.136778
C31   C     C_R   0.441448 0.484618 0.895639 0.136054
C32   C     C_R   0.345575 0.550244 0.855184 -0.171141
Cu1   Cu    Cu3+1 0.359330 0.500020 0.500000 0.939895
Cu2   Cu    Cu3+1 0.640670 0.499980 0.500000 0.932929
H1    H     H_    0.744935 0.420766 0.109342 0.122194
H2    H     H_    0.730051 0.887808 0.495094 0.166016
H3    H     H_    0.730009 0.112491 0.494960 0.165437
H4    H     H_    0.178125 0.112276 0.562059 0.199366
H5    H     H_    0.183680 0.110712 0.453379 0.192891
H6    H     H_    0.178416 0.888700 0.562572 0.189144
H7    H     H_    0.183820 0.887143 0.453854 0.202514
H8    H     H_    0.858731 0.650496 0.577129 0.139490
H9    H     H_    0.119451 0.650335 0.577243 0.133007
H10   H     H_    0.146951 0.455903 0.342925 0.218345
H11   H     H_    0.326708 0.594151 0.260272 0.142313
H12   H     H_    0.144202 0.287649 0.366301 0.188299
H13   H     H_    0.898609 0.457126 0.343536 0.216653
H14   H     H_    0.893070 0.288232 0.366287 0.191082
H15   H     H_    0.734269 0.419320 0.250843 0.140042
H16   H     H_    0.650586 0.493973 0.988297 0.144430
H17   H     H_    0.262868 0.603824 0.885805 0.131020
H18   H     H_    0.338010 0.598164 0.120149 0.121353
H19   H     H_    0.286880 0.606763 0.744561 0.148982
H20   H     H_    0.327098 0.497398 0.009921 0.145413
H21   H     H_    0.615142 0.359255 0.888459 0.143146
N1    N     N_R   0.852130 0.499070 0.499500 -0.186153
N2    N     N_R   0.148040 0.499110 0.499500 -0.185517
O1    O     O_R   0.381190 0.680360 0.500000 -0.583624
O2    O     O_R   0.618770 0.680320 0.499990 -0.586764
O3    O     O_R   0.367430 0.500040 0.613600 -0.580111
O4    O     O_R   0.605020 0.500000 0.613590 -0.595083
O5    O     O_R   0.381230 0.319680 0.500010 -0.577443
O6    O     O_R   0.618810 0.319640 0.500000 -0.591472
O7    O     O_R   0.394980 0.500000 0.386410 -0.587514
O8    O     O_R   0.632570 0.499960 0.386400 -0.583210
C33   C     C_3   0.671770 0.331498 0.729923 -0.368098
C34   C     C_3   0.739405 0.232131 0.777150 -0.884507
H22   H     H_    0.806769 0.274518 0.819482 0.247415
H23   H     H_    0.657410 0.173403 0.807596 0.258147
H24   H     H_    0.807361 0.172618 0.737612 0.247962
H25   H     H_    0.621828 0.283081 0.682462 0.205157
H26   H     H_    0.756960 0.391342 0.703616 0.222845

loop_
_geom_bond_atom_site_label_1
_geom_bond_atom_site_label_2
_ccdc_geom_bond_type
C10   C27   S    
C21   N1    A    
C2    C28   A    
C18   H5    S    
C32   H17   S    
Cu2   N1    S    
Cu1   O1    S    
C27   O8    A    
C22   H9    S    
C16   C23   S    
C29   C30   A    
C30   H21   S    
C24   N2    A    
C33   H25   S    
C26   H14   S    
C30   C31   A    
C20   N1    A    
C34   H24   S    
C11   C19   S    
C29   C33   S    
C22   N2    A    
C23   O6    A    
Cu1   Cu2   S    
C18   H4    S    
C5    C10   A    
C15   H3    S    
C13   C14   A    
C24   C25   S    
C34   H22   S    
C12   O4    A    
C11   C13   A    
C5    H15   S    
C6    C7    A    
C20   C26   S    
C26   H13   S    
C12   C28   S    
Cu1   O7    S    
C5    C6    A    
Cu2   O8    S    
C21   C22   A    
C28   C29   A    
C17   C18   S    
Cu1   O3    S    
C3    C7    A    
C4    H11   S    
C1    O2    A    
C14   H2    S    
Cu2   O2    S    
C3    H18   S    
C1    C13   S    
C19   H6    S    
C4    C10   A    
C3    C4    A    
C12   O3    A    
C19   H7    S    
C33   C34   S    
C6    H1    S    
C25   H10   S    
C2    C32   A    
C18   C19   S    
C27   O7    A    
C8    H20   S    
C7    C9    S    
C20   C24   A    
C14   C15   A    
Cu2   O6    S    
Cu1   N2    S    
C21   H8    S    
C23   O5    A    
C25   C26   S    
C1    O1    A    
C8    C31   S    
Cu1   O5    S    
C25   H12   S    
C2    H19   S    
C15   C16   A    
C33   H26   S    
C9    H16   S    
C31   C32   A    
C16   C17   A    
C8    C9    D    
C34   H23   S    
Cu2   O4    S    
C11   C17   A    
