data_mof_unit_5298.cif
_audit_creation_date              2012-12-10T17:55:52-0500
_audit_creation_method            fapswitch 2.2
_symmetry_space_group_name_H-M    P1
_symmetry_Int_Tables_number       1
_space_group_crystal_system       triclinic
_cell_length_a                    10.936758
_cell_length_b                    10.848744
_cell_length_c                    9.505223
_cell_angle_alpha                 89.508021
_cell_angle_beta                  101.099441
_cell_angle_gamma                 90.501954
_cell_volume                      1106.62978081

loop_
_atom_site_label
_atom_site_type_symbol
_atom_type_description
_atom_site_fract_x
_atom_site_fract_y
_atom_site_fract_z
_atom_type_partial_charge
C1    C     C_R   0.498405 0.262109 0.500391 0.807960
C2    C     C_R   0.502078 0.737863 0.499753 0.829851
C3    C     C_R   0.262192 0.494009 0.444015 0.803748
C4    C     C_R   0.737572 0.493830 0.555855 0.804120
C5    C     C_R   0.429767 0.416465 0.059703 -0.022816
C6    C     C_R   0.570942 0.583018 0.940505 -0.022620
C7    C     C_R   0.430515 0.416005 0.911064 -0.029077
C8    C     C_R   0.571287 0.582649 0.089497 -0.025403
C9    C     C_2   0.125531 0.482228 0.417621 -0.042863
C10   C     C_2   0.873740 0.481714 0.581161 -0.040418
C11   C     C_2   0.067032 0.418628 0.509796 0.231205
C12   C     C_2   0.930262 0.419067 0.488130 0.226403
C13   C     C_R   0.544606 0.067298 0.394136 -0.300622
C14   C     C_R   0.457342 0.932667 0.606778 -0.295278
C15   C     C_R   0.547927 0.939391 0.391940 0.169241
C16   C     C_R   0.454263 0.060502 0.609210 0.167366
C17   C     C_R   0.503040 0.871683 0.498738 -0.051598
C18   C     C_R   0.498356 0.128280 0.501853 -0.045338
Cu1   Cu    Cu3+1 0.500000 0.500020 0.640660 0.945754
Cu2   Cu    Cu3+1 0.500000 0.499980 0.359340 0.943449
H1    H     H_    0.373442 0.349562 0.103963 0.122093
H2    H     H_    0.627846 0.649425 0.896353 0.121750
H3    H     H_    0.376059 0.347861 0.843767 0.142528
H4    H     H_    0.628814 0.648371 0.157814 0.145562
H5    H     H_    0.580354 0.118865 0.312366 0.160460
H6    H     H_    0.421842 0.881151 0.688758 0.163230
N1    N     N_R   0.500030 0.500030 0.852080 -0.155200
N2    N     N_R   0.499970 0.499970 0.147920 -0.158266
O1    O     O_R   0.499990 0.319660 0.618740 -0.553459
O2    O     O_R   0.500010 0.680340 0.381260 -0.548823
O3    O     O_R   0.499990 0.319630 0.381170 -0.603223
O4    O     O_R   0.500010 0.680370 0.618830 -0.598459
O5    O     O_R   0.320690 0.500020 0.575130 -0.571649
O6    O     O_R   0.679310 0.499980 0.424870 -0.576534
O7    O     O_R   0.320680 0.499990 0.337560 -0.583637
O8    O     O_R   0.679320 0.500010 0.662440 -0.584490
C19   C     C_3   0.860310 0.343507 0.364642 -0.832992
H7    H     H_    0.925368 0.284653 0.318920 0.219012
H8    H     H_    0.791532 0.281595 0.402122 0.212978
H9    H     H_    0.812800 0.404674 0.277192 0.259961
C20   C     C_3   0.134833 0.343531 0.634906 -0.857293
H10   H     H_    0.069215 0.281555 0.677968 0.221508
H11   H     H_    0.206330 0.284929 0.600671 0.226390
H12   H     H_    0.177962 0.405884 0.722618 0.254891
N3    N     N_3   0.947294 0.540261 0.704404 -0.603205
H13   H     H_    0.925379 0.633998 0.699443 0.212978
H14   H     H_    0.920857 0.503093 0.795982 0.226928
N4    N     N_3   0.053673 0.541435 0.293372 -0.605618
H15   H     H_    0.076989 0.635157 0.297785 0.215664
H16   H     H_    0.080278 0.504850 0.202522 0.227097
N5    N     N_3   0.599807 0.879249 0.283472 -0.592273
H17   H     H_    0.691538 0.910430 0.290764 0.207201
H18   H     H_    0.549060 0.906120 0.183343 0.211908
N6    N     N_3   0.403780 0.120397 0.718888 -0.600185
H19   H     H_    0.456140 0.094041 0.818362 0.214238
H20   H     H_    0.312568 0.088397 0.713716 0.205866

loop_
_geom_bond_atom_site_label_1
_geom_bond_atom_site_label_2
_ccdc_geom_bond_type
C11   C12   S    
C4    O8    A    
C19   H7    S    
C3    C9    S    
C15   N5    S    
C5    N2    A    
Cu1   N1    S    
C20   H10   S    
C6    N1    A    
C13   C15   A    
C3    O7    A    
C2    O2    A    
Cu2   O6    S    
C10   N3    S    
N4    H16   S    
C7    N1    A    
C19   H8    S    
C16   C18   A    
Cu2   O2    S    
N3    H13   S    
C14   H6    S    
C2    C17   S    
C20   H11   S    
C14   C17   A    
C9    C11   D    
C1    C18   S    
C10   C12   D    
C13   C18   A    
C7    H3    S    
Cu1   O4    S    
C1    O1    A    
N4    H15   S    
C8    H4    S    
C11   C20   S    
C19   H9    S    
N6    H20   S    
Cu1   O8    S    
N3    H14   S    
C4    O6    A    
C8    N2    A    
C20   H12   S    
C14   C16   A    
C3    O5    A    
C4    C10   S    
N5    H17   S    
C6    H2    S    
C1    O3    A    
C5    H1    S    
C9    N4    S    
C2    O4    A    
Cu1   O5    S    
C16   N6    S    
C12   C19   S    
C15   C17   A    
C5    C7    A    
C6    C8    A    
Cu2   N2    S    
N5    H18   S    
N6    H19   S    
Cu2   O7    S    
Cu1   Cu2   S    
C13   H5    S    
Cu2   O3    S    
Cu1   O1    S    
