data_mof_unit_22106.cif
_audit_creation_date              2012-12-10T16:48:07-0500
_audit_creation_method            fapswitch 2.2
_symmetry_space_group_name_H-M    P1
_symmetry_Int_Tables_number       1
_space_group_crystal_system       triclinic
_cell_length_a                    15.846105
_cell_length_b                    8.687742
_cell_length_c                    7.464199
_cell_angle_alpha                 102.890601
_cell_angle_beta                  95.006301
_cell_angle_gamma                 92.194617
_cell_volume                      996.08771013

loop_
_atom_site_label
_atom_site_type_symbol
_atom_type_description
_atom_site_fract_x
_atom_site_fract_y
_atom_site_fract_z
_atom_type_partial_charge
C1    C     C_R   0.497473 0.199768 0.453332 0.881143
C2    C     C_R   0.502527 0.800232 0.546668 0.881143
C3    C     C_R   0.339974 0.500012 0.500898 0.823216
C4    C     C_R   0.660026 0.499988 0.499101 0.823214
C5    C     C_2   0.496265 0.031916 0.427062 -0.368023
C6    C     C_2   0.503735 0.968084 0.572938 -0.368023
C7    C     C_3   0.968358 0.349184 0.477238 -0.265664
C8    C     C_3   0.031642 0.650815 0.522764 -0.265659
C9    C     C_3   0.019392 0.411840 0.336011 -0.242009
C10   C     C_3   0.980608 0.588159 0.663991 -0.242016
C11   C     C_1   0.250437 0.500976 0.501412 -0.177491
C12   C     C_1   0.749562 0.499024 0.498588 -0.177485
C13   C     C_3   0.032926 0.440357 0.635073 0.334403
C14   C     C_3   0.967074 0.559643 0.364929 0.334406
C15   C     C_3   0.083224 0.501293 0.497144 0.129372
C16   C     C_3   0.916776 0.498707 0.502858 0.129367
C17   C     C_1   0.174843 0.501381 0.498669 -0.040200
C18   C     C_1   0.825157 0.498618 0.501332 -0.040194
Cu1   Cu    Cu3+1 0.509330 0.517380 0.684380 0.955734
Cu2   Cu    Cu3+1 0.490670 0.482620 0.315620 0.955735
H1    H     H_    0.035251 0.340759 0.201635 0.148553
H2    H     H_    0.964748 0.659240 0.798366 0.148554
H3    H     H_    0.942048 0.226252 0.462652 0.146703
H4    H     H_    0.057951 0.773747 0.537350 0.146702
H5    H     H_    0.489225 0.960496 0.286410 0.180065
H6    H     H_    0.510775 0.039504 0.713590 0.180065
H7    H     H_    0.434308 0.376831 0.948224 0.227137
H8    H     H_    0.565692 0.623169 0.051776 0.227137
N1    N     N_2   0.476600 0.456420 0.038510 -0.215649
N2    N     N_2   0.523400 0.543580 0.961490 -0.215649
O1    O     O_R   0.506070 0.286130 0.619780 -0.583944
O2    O     O_R   0.493930 0.713870 0.380220 -0.583944
O3    O     O_R   0.490300 0.256770 0.308360 -0.586455
O4    O     O_R   0.509700 0.743230 0.691640 -0.586455
O5    O     O_R   0.386960 0.514660 0.655680 -0.582843
O6    O     O_R   0.613040 0.485340 0.344320 -0.582841
O7    O     O_R   0.371190 0.485310 0.344260 -0.576928
O8    O     O_R   0.628810 0.514690 0.655740 -0.576929
N3    N     N_2   0.929905 0.629642 0.219920 -0.432903
H9    H     H_    0.972908 0.699479 0.172785 0.236362
C19   C     C_3   0.877178 0.522882 0.072665 -0.683720
H10   H     H_    0.845926 0.591178 0.979082 0.230818
H11   H     H_    0.826880 0.460417 0.128549 0.246646
H12   H     H_    0.916285 0.434733 0.991822 0.215670
N4    N     N_2   0.070094 0.370357 0.780083 -0.432906
H13   H     H_    0.027089 0.300526 0.827221 0.236360
C20   C     C_3   0.122824 0.477114 0.927334 -0.683699
H14   H     H_    0.154058 0.408821 0.020944 0.230807
H15   H     H_    0.083723 0.565295 0.008151 0.215669
H16   H     H_    0.173137 0.539542 0.871446 0.246649

loop_
_geom_bond_atom_site_label_1
_geom_bond_atom_site_label_2
_ccdc_geom_bond_type
C7    C13   S    
C9    C14   S    
C4    O6    A    
C15   C17   S    
N1    N2    D    
Cu1   O8    S    
H7    N1    S    
N3    C19   S    
C19   H10   S    
C20   H14   S    
C1    C5    S    
C3    O5    A    
Cu1   O1    S    
C2    O4    A    
Cu1   Cu2   S    
H8    N2    S    
C9    C15   S    
C1    O3    A    
C10   C16   S    
C20   H15   S    
Cu1   O5    S    
N4    H13   S    
C10   H2    S    
C13   N4    S    
Cu2   O7    S    
C19   H11   S    
C9    H1    S    
C6    H6    S    
C5    H5    S    
Cu2   O3    S    
C16   C18   S    
C7    C16   S    
C8    H4    S    
C4    O8    A    
C20   H16   S    
C14   C16   S    
Cu2   N1    S    
C13   C15   S    
C5    C6    D    
C19   H12   S    
C7    H3    S    
C3    C11   S    
Cu2   O6    S    
C1    O1    A    
C3    O7    A    
C2    O2    A    
Cu2   O2    S    
N4    C20   S    
C12   C18   T    
N3    H9    S    
C7    C9    S    
C11   C17   T    
C8    C14   S    
C8    C15   S    
C14   N3    S    
C4    C12   S    
Cu1   N2    S    
Cu1   O4    S    
C8    C10   S    
C2    C6    S    
C10   C13   S    
