data_mof_unit_61503.cif
_audit_creation_date              2012-10-26T21:09:51-0400
_audit_creation_method            fapswitch 2.2
_symmetry_space_group_name_H-M    P1
_symmetry_Int_Tables_number       1
_space_group_crystal_system       triclinic
_cell_length_a                    15.997875
_cell_length_b                    14.757411
_cell_length_c                    19.378579
_cell_angle_alpha                 90.0
_cell_angle_beta                  89.995028
_cell_angle_gamma                 90.00001
_cell_volume                      4575.03475864

loop_
_atom_site_label
_atom_site_type_symbol
_atom_type_description
_atom_site_fract_x
_atom_site_fract_y
_atom_site_fract_z
_atom_type_partial_charge
C1    C     C_R   0.340819 0.500000 0.500013 0.552736
C2    C     C_R   0.545266 0.047910 0.549797 -0.109370
C3    C     C_R   0.500000 0.902869 0.500000 0.003060
C4    C     C_R   0.500000 0.097131 0.500000 0.003060
C5    C     C_1   0.500000 0.802738 0.500000 0.120763
C6    C     C_1   0.500000 0.197262 0.500000 0.120763
C7    C     C_R   0.499980 0.500000 0.367079 0.544165
C8    C     C_R   0.500020 0.500000 0.632921 0.544166
C9    C     C_R   0.499958 0.582098 0.254642 -0.131279
C10   C     C_R   0.500042 0.417902 0.745358 -0.131279
C11   C     C_R   0.500042 0.582098 0.745358 -0.131262
C12   C     C_R   0.659181 0.500000 0.499987 0.552735
C13   C     C_R   0.499958 0.417902 0.254642 -0.131262
C14   C     C_R   0.499958 0.582111 0.182743 -0.118253
C15   C     C_R   0.500042 0.417889 0.817257 -0.118253
C16   C     C_R   0.500042 0.582111 0.817257 -0.118246
C17   C     C_R   0.499958 0.417889 0.182743 -0.118246
C18   C     C_R   0.499962 0.500000 0.146060 0.033935
C19   C     C_R   0.500038 0.500000 0.853940 0.033935
C20   C     C_R   0.499964 0.500000 0.291203 0.012323
C21   C     C_R   0.500035 0.500000 0.708797 0.012323
C22   C     C_R   0.500021 0.500000 0.930001 0.346167
C23   C     C_1   0.823343 0.500000 0.499990 -0.056201
C24   C     C_R   0.499979 0.500000 0.069999 0.346168
C25   C     C_R   0.956380 0.582242 0.499263 -0.103753
C26   C     C_R   0.043619 0.417757 0.500737 -0.103753
C27   C     C_R   0.043620 0.582242 0.499268 -0.103753
C28   C     C_R   0.956380 0.417757 0.500732 -0.103753
C29   C     C_R   0.912792 0.500000 0.499994 0.038783
C30   C     C_R   0.087208 0.500000 0.500005 0.038783
C31   C     C_1   0.176657 0.500000 0.500010 -0.056201
C32   C     C_1   0.251701 0.500000 0.500012 -0.024088
C33   C     C_1   0.748299 0.500000 0.499987 -0.024088
C34   C     C_R   0.545266 0.952090 0.549797 -0.109365
C35   C     C_R   0.454734 0.047910 0.450203 -0.109365
C36   C     C_R   0.454734 0.952090 0.450203 -0.109370
Cu1   Cu    Cu3+1 0.500000 0.589220 0.500000 0.987168
Cu2   Cu    Cu3+1 0.500000 0.410780 0.500000 0.987168
H1    H     H_    0.499957 0.646433 0.281535 0.134388
H2    H     H_    0.500042 0.353457 0.843984 0.138510
H3    H     H_    0.500042 0.646543 0.843984 0.138514
H4    H     H_    0.499958 0.353457 0.156016 0.138514
H5    H     H_    0.580766 0.083623 0.588848 0.110672
H6    H     H_    0.419234 0.916377 0.411152 0.110672
H7    H     H_    0.419234 0.083623 0.411152 0.110685
H8    H     H_    0.580766 0.916377 0.588848 0.110685
H9    H     H_    0.500043 0.353566 0.718465 0.134388
H10   H     H_    0.500043 0.646433 0.718465 0.134399
H11   H     H_    0.499957 0.353566 0.281535 0.134399
H12   H     H_    0.077013 0.646120 0.498700 0.114603
H13   H     H_    0.922987 0.353880 0.501300 0.114603
H14   H     H_    0.922988 0.646120 0.498691 0.114616
H15   H     H_    0.077012 0.353880 0.501309 0.114616
H16   H     H_    0.499958 0.646543 0.156016 0.138510
N1    N     N_R   0.499990 0.420873 0.034311 -0.230688
N2    N     N_R   0.500010 0.579126 0.965689 -0.230688
N3    N     N_R   0.500010 0.420873 0.965689 -0.230690
N4    N     N_R   0.499990 0.579126 0.034311 -0.230690
N5    N     N_1   0.500000 0.276710 0.500000 -0.194858
N6    N     N_1   0.500000 0.723290 0.500000 -0.194858
O1    O     O_R   0.380310 0.575320 0.500010 -0.488243
O2    O     O_R   0.619690 0.424680 0.499990 -0.488242
O3    O     O_R   0.619690 0.575320 0.499990 -0.488243
O4    O     O_R   0.380310 0.424680 0.500010 -0.488243
O5    O     O_R   0.499990 0.575370 0.400140 -0.498606
O6    O     O_R   0.500010 0.424630 0.599860 -0.498606
O7    O     O_R   0.500010 0.575370 0.599860 -0.498589
O8    O     O_R   0.499990 0.424630 0.400140 -0.498589

loop_
_geom_bond_atom_site_label_1
_geom_bond_atom_site_label_2
_ccdc_geom_bond_type
Cu1   O1    S    
C9    C14   A    
C1    O4    A    
C8    O6    A    
Cu1   Cu2   S    
C34   H8    S    
C25   C27   A    
C12   O2    A    
C11   C16   A    
C14   C18   A    
C9    C20   A    
C2    C4    A    
C35   C36   A    
C3    C34   A    
C27   H12   S    
C13   C17   A    
C2    H5    S    
C3    C5    S    
C2    C34   A    
C22   N3    A    
C8    C21   S    
C12   C33   S    
C4    C35   A    
C24   N1    A    
C15   C19   A    
C11   H10   S    
C3    C36   A    
C16   C19   A    
C18   C24   S    
C23   C29   S    
C6    N5    T    
C4    C6    S    
C28   C29   A    
C14   H16   S    
N2    N4    A    
C17   C18   A    
Cu2   O4    S    
C10   C15   A    
N1    N3    A    
C10   C21   A    
C25   C29   A    
C30   C31   S    
C28   H13   S    
C13   H11   S    
C15   H2    S    
C25   H14   S    
Cu1   N6    S    
C36   H6    S    
C11   C21   A    
Cu2   N5    S    
C35   H7    S    
C26   H15   S    
Cu1   O7    S    
C9    H1    S    
C19   C22   S    
C8    O7    A    
C24   N4    A    
C7    C20   S    
C10   H9    S    
C12   O3    A    
Cu2   O6    S    
C17   H4    S    
C22   N2    A    
C5    N6    T    
C23   C33   T    
C7    O8    A    
Cu1   O3    S    
Cu2   O2    S    
C26   C28   A    
C16   H3    S    
C13   C20   A    
C1    C32   S    
C7    O5    A    
C31   C32   T    
Cu1   O5    S    
Cu2   O8    S    
C27   C30   A    
C26   C30   A    
C1    O1    A    
