data_mof_unit_11698.cif
_audit_creation_date              2012-12-10T19:45:38-0500
_audit_creation_method            fapswitch 2.2
_symmetry_space_group_name_H-M    P1
_symmetry_Int_Tables_number       1
_space_group_crystal_system       triclinic
_cell_length_a                    10.788006
_cell_length_b                    14.725935
_cell_length_c                    14.589532
_cell_angle_alpha                 65.367165
_cell_angle_beta                  103.139934
_cell_angle_gamma                 102.77838
_cell_volume                      2030.62778636

loop_
_atom_site_label
_atom_site_type_symbol
_atom_type_description
_atom_site_fract_x
_atom_site_fract_y
_atom_site_fract_z
_atom_type_partial_charge
C1    C     C_R   0.479505 0.119259 0.311766 0.843871
C2    C     C_R   0.520533 0.880733 0.688236 0.843843
C3    C     C_R   0.871221 0.999850 0.499875 -0.147522
C4    C     C_R   0.128798 0.000110 0.500171 -0.147482
C5    C     C_R   0.942490 0.087178 0.436697 -0.065053
C6    C     C_R   0.057556 0.912789 0.563385 -0.064980
C7    C     C_R   0.472959 0.185814 0.202900 -0.034101
C8    C     C_R   0.527459 0.814150 0.797121 -0.033887
C9    C     C_R   0.485318 0.220747 0.027318 -0.265292
C10   C     C_R   0.516289 0.779216 0.972921 -0.265365
C11   C     C_R   0.479690 0.151460 0.127532 0.146555
C12   C     C_R   0.521312 0.848491 0.872636 0.146611
C13   C     C_R   0.469304 0.288241 0.175918 -0.271089
C14   C     C_R   0.531087 0.711725 0.824018 -0.271261
C15   C     C_R   0.482671 0.359881 0.076926 0.079243
C16   C     C_R   0.518679 0.640113 0.923182 0.079333
C17   C     C_R   0.489115 0.324011 0.002100 0.128155
C18   C     C_R   0.512665 0.675978 0.998118 0.128476
C19   C     C_R   0.493277 0.465826 0.050976 0.070641
C20   C     C_R   0.508482 0.534183 0.949199 0.070536
C21   C     C_R   0.510979 0.494194 0.876608 -0.228170
C22   C     C_R   0.491431 0.505823 0.123699 -0.228522
C23   C     C_R   0.262692 0.000266 0.500043 0.850554
C24   C     C_R   0.737317 0.999715 0.499983 0.850513
C25   C     C_R   0.501769 0.391387 0.902938 -0.219946
C26   C     C_R   0.500679 0.608624 0.097398 -0.219851
C27   C     C_R   0.718132 0.288434 0.665342 -0.356073
C28   C     C_R   0.281884 0.711575 0.334644 -0.356172
C29   C     C_R   0.684049 0.205518 0.637050 0.388937
C30   C     C_R   0.315969 0.794492 0.362935 0.388901
C31   C     C_R   0.517641 0.284712 0.509577 -0.038843
C32   C     C_R   0.482354 0.715285 0.490426 -0.038826
C33   C     C_R   0.548457 0.371719 0.534601 -0.030803
C34   C     C_R   0.451542 0.628281 0.465398 -0.030643
C35   C     C_R   0.650362 0.370940 0.615267 0.144656
C36   C     C_R   0.349642 0.629063 0.384728 0.144671
C37   C     C_R   0.482074 0.458396 0.483721 0.080013
C38   C     C_R   0.517925 0.541604 0.516278 0.080133
C39   C     C_R   0.618591 0.535153 0.598632 -0.232809
C40   C     C_R   0.381413 0.464849 0.401362 -0.232657
C41   C     C_R   0.683799 0.451989 0.646289 -0.179375
C42   C     C_R   0.316205 0.548014 0.353705 -0.179140
C43   C     C_R   0.173298 0.660026 0.655469 0.191970
C44   C     C_R   0.827548 0.340134 0.345163 0.191876
C45   C     C_R   0.122225 0.749068 0.591547 -0.032229
C46   C     C_R   0.878265 0.250902 0.408933 -0.032161
C47   C     C_R   0.117377 0.820950 0.630075 0.080547
C48   C     C_R   0.882798 0.179112 0.370194 0.080685
C49   C     C_R   0.163424 0.802826 0.733253 -0.142441
C50   C     C_R   0.836770 0.197500 0.266964 -0.142396
C51   C     C_R   0.211136 0.712720 0.797700 -0.144905
C52   C     C_R   0.789423 0.287793 0.202670 -0.144530
C53   C     C_R   0.216408 0.641525 0.759059 -0.165189
C54   C     C_R   0.784462 0.358901 0.241518 -0.165274
C55   C     C_R   0.928443 0.913259 0.564102 0.107816
C56   C     C_R   0.071577 0.086691 0.435938 0.107757
Cu1   Cu    Cu3+1 0.466270 0.918260 0.475690 0.985383
Cu2   Cu    Cu3+1 0.533730 0.081740 0.524310 0.985416
H1    H     H_    0.254163 0.572170 0.809415 0.144270
H2    H     H_    0.747046 0.428423 0.191268 0.144306
H3    H     H_    0.491095 0.193899 0.969771 0.137269
H4    H     H_    0.510896 0.806047 0.030575 0.137254
H5    H     H_    0.520061 0.539654 0.797983 0.145358
H6    H     H_    0.483193 0.460375 0.202475 0.145148
H7    H     H_    0.761051 0.450884 0.708864 0.153109
H8    H     H_    0.238955 0.549121 0.291129 0.153102
H9    H     H_    0.559526 0.721701 0.549543 0.157969
H10   H     H_    0.440460 0.278292 0.450468 0.158030
H11   H     H_    0.796956 0.287815 0.726751 0.136741
H12   H     H_    0.203070 0.712200 0.273226 0.136721
H13   H     H_    0.649451 0.593311 0.628674 0.161101
H14   H     H_    0.350561 0.406696 0.371314 0.161232
H15   H     H_    0.086368 0.762379 0.512023 0.135811
H16   H     H_    0.914156 0.237393 0.488493 0.135713
H17   H     H_    0.159692 0.857438 0.764008 0.143531
H18   H     H_    0.840305 0.142973 0.236045 0.143480
H19   H     H_    0.244393 0.698166 0.877648 0.153921
H20   H     H_    0.756269 0.302578 0.122667 0.153988
H21   H     H_    0.505809 0.364468 0.845015 0.152439
H22   H     H_    0.497167 0.635548 0.155441 0.152366
H23   H     H_    0.539974 0.689906 0.764456 0.167344
H24   H     H_    0.459428 0.310013 0.235259 0.167485
N1    N     N_R   0.584450 0.204570 0.560790 -0.168698
N2    N     N_R   0.415550 0.795430 0.439210 -0.168657
O1    O     O_R   0.455540 0.022090 0.338120 -0.527734
O2    O     O_R   0.544460 0.977910 0.661880 -0.527741
O3    O     O_R   0.512510 0.160150 0.379180 -0.597407
O4    O     O_R   0.487490 0.839850 0.620820 -0.597508
O5    O     O_R   0.291160 0.930970 0.479480 -0.567940
O6    O     O_R   0.708840 0.069030 0.520520 -0.567918
O7    O     O_R   0.348130 0.069020 0.520540 -0.568439
O8    O     O_R   0.651870 0.930980 0.479460 -0.568420
N3    N     N_3   0.246423 0.878645 0.311319 -0.515051
H25   H     H_    0.251519 0.905904 0.233472 0.197629
H26   H     H_    0.149887 0.852746 0.320524 0.188270
N4    N     N_3   0.753624 0.121381 0.688645 -0.515006
H27   H     H_    0.748594 0.094138 0.766500 0.197590
H28   H     H_    0.850145 0.147295 0.679395 0.188254
N5    N     N_3   0.180191 0.588543 0.614685 -0.595227
H29   H     H_    0.127893 0.519803 0.655258 0.221752
H30   H     H_    0.276338 0.577757 0.628267 0.218394
N6    N     N_3   0.821071 0.411558 0.386147 -0.595284
H31   H     H_    0.873601 0.480228 0.345693 0.221744
H32   H     H_    0.725029 0.422581 0.372604 0.218397
I1    I     I_    0.823618 0.784999 0.668741 -0.460995
I2    I     I_    0.176397 0.214949 0.331276 -0.461059
N7    N     N_3   0.515403 0.952536 0.847710 -0.571990
H33   H     H_    0.429666 0.956916 0.866646 0.206004
H34   H     H_    0.591679 0.978677 0.893352 0.207576
N8    N     N_3   0.485539 0.047385 0.152553 -0.571967
H35   H     H_    0.571465 0.042901 0.133969 0.206009
H36   H     H_    0.409490 0.021304 0.106710 0.207629

loop_
_geom_bond_atom_site_label_1
_geom_bond_atom_site_label_2
_ccdc_geom_bond_type
C1    O3    A    
N3    H25   S    
Cu1   O8    S    
C27   C29   A    
C5    C56   A    
C36   C42   A    
C19   C20   A    
C18   C26   A    
C6    C55   A    
Cu2   O3    S    
C53   H1    S    
C39   C41   A    
C54   H2    S    
C15   C19   A    
Cu1   O5    S    
C55   I1    S    
C9    H3    S    
C43   N5    S    
C29   N1    A    
C37   C40   A    
C38   C39   A    
Cu2   O2    S    
C31   N1    A    
C45   H15   S    
N8    H35   S    
C3    C55   A    
C43   C53   A    
C52   C54   A    
C49   C51   A    
N4    H28   S    
C50   C52   A    
N7    H33   S    
C49   H17   S    
C2    O4    A    
C23   O7    A    
Cu2   O7    S    
C27   H11   S    
C8    C12   A    
C40   C42   A    
N3    H26   S    
C1    C7    S    
C4    C56   A    
C11   N8    S    
N7    H34   S    
C3    C24   S    
C10   H4    S    
C52   H20   S    
C24   O8    A    
C47   C49   A    
C44   C46   A    
N8    H36   S    
C45   C47   A    
C1    O1    A    
C31   H10   S    
C32   N2    A    
C5    C48   S    
C46   C48   A    
C6    C47   S    
C19   C22   A    
C4    C6    A    
C4    C23   S    
C44   N6    S    
C41   H7    S    
C27   C35   A    
C13   H24   S    
C33   C37   A    
C24   O6    A    
C51   C53   A    
C32   C34   A    
C7    C11   A    
C51   H19   S    
C37   C38   A    
C50   H18   S    
C29   N4    S    
C43   C45   A    
N5    H29   S    
C16   C20   A    
N4    H27   S    
C23   O5    A    
Cu1   N2    S    
N6    H32   S    
C9    C11   A    
C56   I2    S    
C10   C12   A    
Cu2   O6    S    
C32   H9    S    
C9    C17   A    
N5    H30   S    
C13   C15   A    
C14   C16   A    
C46   H16   S    
C15   C17   A    
C21   C25   A    
C31   C33   A    
C8    C14   A    
C40   H14   S    
C34   C38   A    
C28   H12   S    
C3    C5    A    
C25   H21   S    
C12   N7    S    
C30   N3    S    
Cu1   O4    S    
C17   C25   A    
C28   C30   A    
Cu2   N1    S    
Cu1   Cu2   S    
C10   C18   A    
C48   C50   A    
C33   C35   A    
Cu1   O1    S    
C2    O2    A    
C34   C36   A    
C30   N2    A    
N6    H31   S    
C35   C41   A    
C26   H22   S    
C21   H5    S    
C22   H6    S    
C44   C54   A    
C7    C13   A    
C20   C21   A    
C28   C36   A    
C16   C18   A    
C22   C26   A    
C2    C8    S    
C42   H8    S    
C39   H13   S    
C14   H23   S    
