data_mof_unit_28499.cif
_audit_creation_date              2012-12-11T14:17:26-0500
_audit_creation_method            fapswitch 2.2
_symmetry_space_group_name_H-M    P1
_symmetry_Int_Tables_number       1
_space_group_crystal_system       triclinic
_cell_length_a                    6.944023
_cell_length_b                    13.628858
_cell_length_c                    20.42115
_cell_angle_alpha                 102.130457
_cell_angle_beta                  89.611121
_cell_angle_gamma                 90.677063
_cell_volume                      1889.33648505

loop_
_atom_site_label
_atom_site_type_symbol
_atom_type_description
_atom_site_fract_x
_atom_site_fract_y
_atom_site_fract_z
_atom_type_partial_charge
O1    O     O_R   0.506860 0.599390 0.449240 -0.539088
O2    O     O_R   0.180220 0.594600 0.586780 -0.534557
O3    O     O_R   0.004500 0.400610 0.550760 -0.540305
C1    C     C_R   0.347483 0.614445 0.614177 0.756303
O4    O     O_R   0.177490 0.611290 0.451970 -0.538358
O5    O     O_R   0.001750 0.417420 0.414990 -0.544728
C2    C     C_R   0.347326 0.638061 0.435325 0.700949
O6    O     O_R   0.509610 0.582580 0.585010 -0.525395
O7    O     O_3   0.337420 0.436370 0.488020 -0.382975
V1    V     V_3+5 0.064680 0.511800 0.502220 1.485380
O8    O     O_R   0.671710 0.405400 0.413220 -0.551113
C3    C     C_R   0.840111 0.384090 0.386543 0.726431
O9    O     O_R   0.674440 0.388710 0.548030 -0.541849
C4    C     C_R   0.842183 0.362098 0.564847 0.728756
V2    V     V_3+5 0.564010 0.488200 0.497780 1.462835
O10   O     O_3   0.841140 0.563630 0.511980 -0.356969
C5    C     C_R   0.827385 0.109606 0.611133 0.281598
H1    H     H_    0.819086 0.162504 0.519225 0.136957
H2    H     H_    0.825096 0.983980 0.697293 0.178129
C6    C     C_R   0.846900 0.284527 0.604516 -0.090144
C7    C     C_R   0.878290 0.315104 0.927784 -0.169933
C8    C     C_R   0.880387 0.390929 0.891798 -0.120290
C9    C     C_R   0.871789 0.367762 0.822091 -0.155027
C10   C     C_R   0.860534 0.266768 0.786146 0.094717
C11   C     C_R   0.856302 0.189472 0.823569 0.071031
C12   C     C_R   0.853194 0.240056 0.714537 0.033651
C13   C     C_R   0.838672 0.136816 0.681868 0.079715
C14   C     C_R   0.835067 0.062916 0.720312 -0.149130
C15   C     C_R   0.844291 0.088601 0.789637 -0.211509
C16   C     C_R   0.859157 0.312593 0.674134 -0.215808
C17   C     C_R   0.830161 0.183660 0.573282 -0.193354
C18   C     C_R   0.865711 0.214700 0.894480 -0.074263
H3    H     H_    0.871041 0.391852 0.694927 0.125430
H4    H     H_    0.886780 0.334754 0.981947 0.102749
H5    H     H_    0.874059 0.431004 0.798184 0.117457
H6    H     H_    0.889518 0.468563 0.918151 0.120864
H7    H     H_    0.841293 0.028046 0.816511 0.119958
C19   C     C_2   0.005678 0.288735 0.284658 -0.133076
C20   C     C_2   0.842723 0.315725 0.319794 -0.303486
H8    H     H_    0.142997 0.317242 0.306258 0.132081
H9    H     H_    0.704009 0.287680 0.299790 0.126179
C21   C     C_2   0.013368 0.220655 0.217036 -0.131043
C22   C     C_2   0.857971 0.183220 0.180402 -0.307842
H10   H     H_    0.156185 0.201488 0.196662 0.132382
H11   H     H_    0.713785 0.201544 0.199138 0.125539
C23   C     C_2   0.203327 0.781036 0.787343 -0.170716
C24   C     C_2   0.364947 0.813247 0.821074 -0.317505
H12   H     H_    0.065714 0.807609 0.809533 0.139453
H13   H     H_    0.503818 0.784975 0.801638 0.140415
C25   C     C_2   0.198170 0.705720 0.722777 -0.008027
C26   C     C_2   0.353434 0.684000 0.680956 -0.323967
H14   H     H_    0.490908 0.720614 0.694774 0.153652
C27   C     C_R   0.418983 0.886632 0.386787 -0.122264
H15   H     H_    0.416287 0.836299 0.479527 0.152480
H16   H     H_    0.450986 0.010734 0.303235 0.124153
H17   H     H_    0.449223 0.963718 0.411419 0.136689
C28   C     C_R   0.360324 0.714861 0.395198 -0.048041
C29   C     C_R   0.315905 0.686299 0.072091 -0.167757
C30   C     C_R   0.296145 0.610891 0.108074 -0.118883
C31   C     C_R   0.311317 0.633045 0.177640 -0.157233
C32   C     C_R   0.347434 0.732471 0.213342 0.080603
C33   C     C_R   0.369397 0.809363 0.175961 0.066822
C34   C     C_R   0.362341 0.758160 0.284728 0.074271
C35   C     C_R   0.400911 0.859572 0.316830 0.123670
C36   C     C_R   0.421926 0.933314 0.279041 -0.192460
C37   C     C_R   0.406033 0.908868 0.209807 -0.193688
C38   C     C_R   0.341045 0.686798 0.325629 -0.215568
C39   C     C_R   0.399888 0.814513 0.425681 -0.113752
C40   C     C_R   0.352815 0.785162 0.105238 -0.074607
H18   H     H_    0.311544 0.608599 0.305255 0.093925
H19   H     H_    0.301904 0.667571 0.018058 0.103686
H20   H     H_    0.293939 0.570430 0.201742 0.106822
H21   H     H_    0.267936 0.534461 0.081842 0.118784
H22   H     H_    0.423268 0.969014 0.182972 0.118070
O11   O     O_R   0.203230 0.917310 0.915020 -0.539016
O12   O     O_R   0.535500 0.888690 0.048040 -0.541136
O13   O     O_R   0.711080 0.082610 0.085000 -0.545192
C41   C     C_R   0.365772 0.862365 0.065077 0.687482
O14   O     O_R   0.532630 0.905370 0.913230 -0.548206
O15   O     O_R   0.708190 0.099410 0.949230 -0.538628
C42   C     C_R   0.364947 0.883781 0.886739 0.754943
O16   O     O_R   0.206120 0.900510 0.050790 -0.538534
O17   O     O_3   0.375360 0.063570 0.011990 -0.373189
V3    V     V_3+5 0.648170 0.988200 0.997780 1.417411
O18   O     O_R   0.038240 0.111390 0.951940 -0.540605
C43   C     C_R   0.870530 0.137502 0.934777 0.688730
O19   O     O_R   0.041120 0.094710 0.086750 -0.542305
C44   C     C_R   0.872174 0.115699 0.113533 0.743461
V4    V     V_3+5 0.148810 0.011930 0.002180 1.423668
O20   O     O_3   0.871750 0.936430 0.988010 -0.372433
C45   C     C_1   0.013529 0.655975 0.707152 0.320396
N1    N     N_1   0.865891 0.616261 0.694962 -0.387038
Br1   Br    Br    0.805311 0.972704 0.562670 -0.607679

loop_
_geom_bond_atom_site_label_1
_geom_bond_atom_site_label_2
_ccdc_geom_bond_type
O19   C44   A    
O15   V3    S    
O12   V3    S    
C24   H13   S    
C6    C16   A    
O18   C43   A    
C12   C13   A    
O16   V4    S    
V3    O20   S    
C22   C44   S    
C14   C15   A    
O12   C41   A    
C19   C21   S    
O5    C3    A    
O14   V3    S    
C27   C35   A    
C29   H19   S    
H15   C39   S    
C31   H20   S    
V2    O10   S    
C37   H22   S    
C32   C34   A    
C27   C39   A    
O15   C43   A    
O8    V2    S    
O13   C44   A    
C9    C10   A    
O1    V2    S    
O7    V1    S    
C30   H21   S    
C1    O6    A    
C11   C18   A    
C30   C31   A    
O9    C4    A    
C40   C41   S    
C21   H10   S    
C28   C38   A    
H16   C36   S    
C23   H12   S    
C11   C15   A    
O17   V4    S    
C7    C18   A    
C34   C38   A    
C33   C37   A    
C1    C26   S    
C26   H14   S    
C5    C13   A    
C4    C6    S    
C10   C11   A    
C20   H9    S    
C45   N1    T    
O4    C2    A    
O18   V4    S    
O11   C42   A    
C7    H4    S    
O13   V3    S    
C29   C30   A    
C33   C40   A    
C31   C32   A    
O2    C1    A    
C41   O16   A    
O17   V3    S    
C18   C43   S    
C25   C26   D    
H2    C14   S    
C22   H11   S    
O3    C4    A    
C12   C16   A    
O6    V2    S    
C9    H5    S    
O9    V2    S    
C5    C17   A    
C5    Br1   S    
C21   C22   D    
C28   C39   A    
O2    V1    S    
O14   C42   A    
C27   H17   S    
C23   C24   D    
C16   H3    S    
O1    C2    A    
C10   C12   A    
O5    V1    S    
O8    C3    A    
C29   C40   A    
C8    H6    S    
C23   C25   S    
C38   H18   S    
C35   C36   A    
C3    C20   S    
O19   V4    S    
O7    V2    S    
O4    V1    S    
O3    V1    S    
V1    O10   S    
C19   H8    S    
C19   C20   D    
C24   C42   S    
C32   C33   A    
O11   V4    S    
C34   C35   A    
C25   C45   S    
C36   C37   A    
C15   H7    S    
C13   C14   A    
C8    C9    A    
H1    C17   S    
V4    O20   S    
C7    C8    A    
C2    C28   S    
C6    C17   A    
