data_mof_unit_28043.cif
_audit_creation_date              2012-12-10T17:52:07-0500
_audit_creation_method            fapswitch 2.2
_symmetry_space_group_name_H-M    P1
_symmetry_Int_Tables_number       1
_space_group_crystal_system       triclinic
_cell_length_a                    14.890172
_cell_length_b                    14.785321
_cell_length_c                    19.237067
_cell_angle_alpha                 71.59975
_cell_angle_beta                  102.28489
_cell_angle_gamma                 116.423595
_cell_volume                      3585.74696254

loop_
_atom_site_label
_atom_site_type_symbol
_atom_type_description
_atom_site_fract_x
_atom_site_fract_y
_atom_site_fract_z
_atom_type_partial_charge
C1    C     C_R   0.880547 0.310976 0.510818 0.961888
C2    C     C_R   0.119688 0.689426 0.487460 0.850772
C3    C     C_R   0.812075 0.198845 0.520089 -0.180704
C4    C     C_R   0.188077 0.800987 0.482507 -0.182385
C5    C     C_R   0.775171 0.011601 0.556960 0.013544
C6    C     C_R   0.229042 0.987521 0.454703 0.031943
C7    C     C_R   0.842358 0.117623 0.527130 0.407201
C8    C     C_R   0.158567 0.885875 0.451659 0.320554
C9    C     C_R   0.710477 0.173761 0.519436 -0.235510
C10   C     C_R   0.287443 0.821978 0.513121 -0.269433
C11   C     C_R   0.639649 0.071404 0.529451 0.030516
C12   C     C_R   0.361353 0.924302 0.504161 0.039896
C13   C     C_R   0.672534 0.990391 0.563477 0.039720
C14   C     C_R   0.332176 0.006851 0.464228 0.033688
C15   C     C_R   0.536862 0.049324 0.507598 0.064503
C16   C     C_R   0.464291 0.946449 0.529301 0.058103
C17   C     C_R   0.496768 0.870796 0.578131 -0.215178
C18   C     C_R   0.506989 0.125543 0.456898 -0.190799
C19   C     C_R   0.599437 0.893025 0.599241 0.135625
C20   C     C_R   0.406594 0.103691 0.431737 0.128525
C21   C     C_R   0.693442 0.624891 0.353636 0.073838
C22   C     C_R   0.300335 0.365978 0.646038 0.059208
C23   C     C_R   0.999459 0.498221 0.632629 0.905384
C24   C     C_R   0.995722 0.494345 0.368080 0.915359
C25   C     C_R   0.785807 0.619192 0.384146 0.143093
C26   C     C_R   0.209481 0.374680 0.614049 0.071602
C27   C     C_R   0.718404 0.519691 0.500318 0.520251
C28   C     C_R   0.283429 0.481717 0.501327 0.445141
C29   C     C_R   0.628266 0.536780 0.473035 -0.183154
C30   C     C_R   0.370363 0.459440 0.529179 -0.167888
C31   C     C_R   0.609124 0.564850 0.395819 -0.082021
C32   C     C_R   0.386809 0.427309 0.606059 -0.084074
C33   C     C_R   0.549569 0.512553 0.517211 0.051894
C34   C     C_R   0.449429 0.484714 0.485759 0.054618
C35   C     C_R   0.430218 0.474041 0.413829 -0.137867
C36   C     C_R   0.566978 0.519107 0.590576 -0.152262
C37   C     C_R   0.507096 0.522022 0.366154 0.444581
C38   C     C_R   0.488201 0.467810 0.637358 0.434443
C39   C     C_R   0.013611 0.424905 0.770718 0.299459
C40   C     C_R   0.903127 0.482816 0.241308 0.268050
C41   C     C_R   0.030035 0.443139 0.841479 0.246320
C42   C     C_R   0.913194 0.510071 0.165107 0.316496
C43   C     C_R   0.016322 0.528508 0.849029 -0.147986
C44   C     C_R   0.999126 0.514290 0.141614 -0.131863
C45   C     C_R   0.001715 0.603595 0.786366 0.123167
C46   C     C_R   0.076748 0.498405 0.193844 0.077892
C47   C     C_R   0.998715 0.591389 0.716881 -0.228574
C48   C     C_R   0.071741 0.488847 0.267560 -0.175940
C49   C     C_R   0.003136 0.503111 0.708255 -0.205360
C50   C     C_R   0.989109 0.487842 0.291499 -0.237999
C51   C     C_R   0.001745 0.522721 0.063987 0.516459
C52   C     C_R   0.007567 0.532147 0.922463 0.488241
Cu1   Cu    Cu3+1 0.081740 0.475680 0.518680 1.062950
Cu2   Cu    Cu3+1 0.918260 0.524320 0.481320 1.108331
H1    H     H_    0.143096 0.333281 0.643667 0.217108
H2    H     H_    0.848328 0.655744 0.350609 0.205010
H3    H     H_    0.354233 0.428371 0.394876 0.195734
H4    H     H_    0.642453 0.560386 0.612151 0.222356
H5    H     H_    0.989846 0.650171 0.668537 0.180476
H6    H     H_    0.130904 0.477481 0.307303 0.227586
H7    H     H_    0.307918 0.756923 0.538496 0.173920
H8    H     H_    0.685583 0.235023 0.511132 0.221057
H9    H     H_    0.442841 0.795194 0.603387 0.149079
H10   H     H_    0.562022 0.200675 0.431012 0.180641
N1    N     N_R   0.933364 0.452378 0.962586 -0.147461
N2    N     N_R   0.075147 0.603687 0.023570 -0.195829
N3    N     N_R   0.930395 0.447822 0.032145 -0.156332
N4    N     N_R   0.078348 0.608064 0.953896 -0.227270
N5    N     N_R   0.795420 0.560800 0.453240 -0.251036
N6    N     N_R   0.204580 0.439200 0.546760 -0.255045
O1    O     O_R   0.977910 0.338110 0.524620 -0.515392
O2    O     O_R   0.022090 0.661890 0.475380 -0.523833
O3    O     O_R   0.839850 0.379180 0.493080 -0.528821
O4    O     O_R   0.160150 0.620820 0.506920 -0.559379
O5    O     O_R   0.069040 0.479450 0.615630 -0.578191
O6    O     O_R   0.930960 0.520550 0.384370 -0.547202
O7    O     O_R   0.930990 0.520520 0.584090 -0.514100
O8    O     O_R   0.069010 0.479480 0.415910 -0.539763
S1    S     S_3+6 0.993367 0.300674 0.761381 0.062464
O9    O     O_2   0.093158 0.296689 0.764791 -0.267335
O10   O     O_2   0.936100 0.215314 0.823203 -0.205771
O11   O     O_3   0.927871 0.277175 0.681574 -0.555756
H11   H     H_    0.856677 0.237505 0.692932 0.373571
S2    S     S_3+6 0.780801 0.416421 0.273614 0.073922
O12   O     O_2   0.748805 0.493704 0.284026 -0.229781
O13   O     O_2   0.705267 0.359634 0.219716 -0.205930
O14   O     O_3   0.780762 0.328353 0.354044 -0.551955
H12   H     H_    0.797796 0.277227 0.342711 0.357772
S3    S     S_3+6 0.470512 0.505077 0.275337 -0.003785
O15   O     O_2   0.449692 0.596156 0.225520 -0.266340
O16   O     O_2   0.551365 0.495363 0.246790 -0.229720
O17   O     O_3   0.364105 0.396460 0.274909 -0.592968
H13   H     H_    0.355673 0.385066 0.225469 0.380663
S4    S     S_3+6 0.521216 0.475954 0.730152 -0.018660
O18   O     O_2   0.438735 0.481725 0.759673 -0.302486
O19   O     O_2   0.540557 0.382236 0.776167 -0.256905
O20   O     O_3   0.627289 0.583063 0.735591 -0.585520
H14   H     H_    0.641160 0.581612 0.788534 0.384671
S5    S     S_3+6 0.301281 0.591228 0.419714 0.017631
O21   O     O_2   0.298222 0.560305 0.352002 -0.303693
O22   O     O_2   0.231119 0.644297 0.400142 -0.262096
O23   O     O_3   0.417596 0.682922 0.432025 -0.507819
H15   H     H_    0.416450 0.703267 0.476103 0.329689
S6    S     S_3+6 0.716545 0.428156 0.590176 0.007025
O24   O     O_2   0.609902 0.354410 0.606235 -0.312623
O25   O     O_2   0.769514 0.359252 0.600384 -0.292388
O26   O     O_3   0.769325 0.496076 0.654617 -0.558637
H16   H     H_    0.751465 0.443595 0.702132 0.398145
C53   C     C_3   0.690594 0.702764 0.280702 -0.343096
C54   C     C_3   0.765918 0.813776 0.282949 -0.717561
H17   H     H_    0.755448 0.834767 0.330376 0.267457
H18   H     H_    0.844278 0.821483 0.287150 0.300247
H19   H     H_    0.754002 0.869673 0.231510 0.262960
H20   H     H_    0.706967 0.680392 0.236387 0.277497
H21   H     H_    0.616072 0.705977 0.267006 0.268055
C55   C     C_3   0.298924 0.282617 0.716553 -0.291990
C56   C     C_3   0.222710 0.174050 0.708941 -0.768555
H22   H     H_    0.144456 0.167878 0.702280 0.286188
H23   H     H_    0.236529 0.156897 0.660916 0.254608
H24   H     H_    0.230485 0.114396 0.759286 0.257647
H25   H     H_    0.372740 0.277727 0.731030 0.261021
H26   H     H_    0.280742 0.300902 0.762180 0.275752
S7    S     S_3+6 0.071840 0.363745 0.921050 0.090256
O27   O     O_2   0.981718 0.276144 0.957831 -0.180449
O28   O     O_2   0.132829 0.318464 0.901690 -0.182502
O29   O     O_3   0.144093 0.434133 0.981506 -0.537427
H27   H     H_    0.202943 0.488921 0.955053 0.355932
S8    S     S_3+6 0.822676 0.545697 0.098950 0.085226
O30   O     O_2   0.748186 0.452349 0.071590 -0.216002
O31   O     O_2   0.767904 0.584175 0.132073 -0.195376
O32   O     O_3   0.880484 0.641573 0.027376 -0.534971
H28   H     H_    0.825781 0.644080 0.988183 0.375593
C57   C     C_3   0.986101 0.695798 0.791398 -0.387658
C58   C     C_3   0.876860 0.664214 0.803015 -0.737759
H29   H     H_    0.826420 0.632453 0.757032 0.291412
H30   H     H_    0.855594 0.604373 0.855723 0.263297
H31   H     H_    0.866653 0.733576 0.804380 0.240156
H32   H     H_    0.037027 0.730134 0.836149 0.230062
H33   H     H_    0.005255 0.759162 0.739894 0.201207
C59   C     C_3   0.164217 0.488234 0.173505 -0.353372
C60   C     C_3   0.132587 0.379512 0.163296 -0.663517
H34   H     H_    0.109311 0.319728 0.215808 0.247535
H35   H     H_    0.069163 0.362040 0.120206 0.285813
H36   H     H_    0.196901 0.374980 0.146354 0.264618
H37   H     H_    0.195415 0.548596 0.123131 0.242469
H38   H     H_    0.227201 0.501308 0.217429 0.272117
C61   C     C_3   0.627956 0.820811 0.667223 -0.416135
C62   C     C_3   0.554256 0.768806 0.727152 -0.697897
H39   H     H_    0.533484 0.826841 0.737139 0.249667
H40   H     H_    0.485551 0.703765 0.711933 0.266800
H41   H     H_    0.590257 0.735186 0.779272 0.260981
H42   H     H_    0.635645 0.759310 0.650797 0.249307
H43   H     H_    0.700068 0.867647 0.694312 0.214806
C63   C     C_3   0.384655 0.176844 0.361600 -0.428579
C64   C     C_3   0.434643 0.184414 0.296985 -0.639178
H44   H     H_    0.517853 0.223570 0.305325 0.283616
H45   H     H_    0.412877 0.105318 0.289998 0.249208
H46   H     H_    0.409593 0.231131 0.245671 0.262067
H47   H     H_    0.303216 0.149056 0.344286 0.239229
H48   H     H_    0.412746 0.255768 0.370747 0.248435
S9    S     S_3+6 0.040294 0.871654 0.401578 -0.006147
O33   O     O_2   0.958453 0.815541 0.453310 -0.285142
O34   O     O_2   0.038890 0.975915 0.360235 -0.262495
O35   O     O_3   0.018973 0.802543 0.340687 -0.553332
H49   H     H_    0.077304 0.842159 0.310539 0.356361
S10   S     S_3+6 0.955362 0.148800 0.489011 -0.031257
O36   O     O_2   0.039971 0.163548 0.548916 -0.344789
O37   O     O_2   0.945592 0.064288 0.456705 -0.273257
O38   O     O_3   0.982220 0.258752 0.420628 -0.554184
H50   H     H_    0.050655 0.276955 0.408603 0.364904
C65   C     C_3   0.809488 0.923213 0.571916 -0.347127
C66   C     C_3   0.757423 0.856413 0.516527 -0.692680
H51   H     H_    0.675178 0.815214 0.521687 0.228831
H52   H     H_    0.770182 0.905624 0.459470 0.288384
H53   H     H_    0.788223 0.796928 0.526795 0.251650
H54   H     H_    0.891769 0.952524 0.571545 0.263750
H55   H     H_    0.799541 0.873159 0.628155 0.171635
C67   C     C_3   0.196024 0.049668 0.486460 -0.324850
C68   C     C_3   0.203383 0.156222 0.437758 -0.703988
H56   H     H_    0.282429 0.214303 0.437665 0.215717
H57   H     H_    0.169318 0.152080 0.381108 0.282484
H58   H     H_    0.162607 0.185063 0.461219 0.277191
H59   H     H_    0.117106 0.003349 0.501483 0.262012
H60   H     H_    0.241946 0.061445 0.539187 0.184164

loop_
_geom_bond_atom_site_label_1
_geom_bond_atom_site_label_2
_ccdc_geom_bond_type
C15   C18   A    
N2    N4    A    
C65   C66   S    
O29   H27   S    
C27   C29   A    
C56   H22   S    
O38   H50   S    
C40   S2    S    
C61   C62   S    
S2    O14   S    
C4    C8    A    
C18   H10   S    
C26   H1    S    
C58   H31   S    
S6    O25   D    
O20   H14   S    
S7    O27   D    
C39   C41   A    
Cu1   Cu2   S    
C21   C31   A    
C1    O1    A    
C22   C32   A    
O35   H49   S    
C35   C37   A    
S2    O13   D    
C36   H4    S    
C8    S9    S    
C60   H35   S    
C43   C52   S    
C23   C49   S    
C64   H45   S    
C15   C16   A    
C29   C33   A    
C27   S6    S    
C33   C36   A    
C55   C56   S    
C34   C35   A    
C54   H17   S    
C11   C15   A    
C12   C16   A    
C66   H52   S    
C16   C17   A    
N1    N3    A    
O26   H16   S    
C25   H2    S    
C32   C38   A    
S3    O16   D    
C5    C13   A    
C67   H59   S    
C27   N5    A    
C66   H53   S    
C42   S8    S    
C68   H58   S    
C23   O7    A    
C40   C42   A    
C57   H32   S    
S8    O30   D    
C64   H46   S    
S10   O37   D    
C41   C43   A    
Cu1   O5    S    
C42   C44   A    
C2    O2    A    
Cu1   N6    S    
C10   C12   A    
S6    O24   D    
S9    O34   D    
C44   C46   A    
C48   H6    S    
C45   C47   A    
C24   C50   S    
C46   C48   A    
C55   H25   S    
C30   C34   A    
C9    H8    S    
C14   C20   A    
C62   H41   S    
C59   C60   S    
C47   C49   A    
C60   H36   S    
C59   H38   S    
C5    C7    A    
C13   C19   A    
C24   O6    A    
S7    O29   S    
C6    C8    A    
S4    O20   S    
C52   N4    A    
C20   C63   S    
C19   C61   S    
C31   C37   A    
C1    C3    S    
C51   N2    A    
C39   S1    S    
O14   H12   S    
C2    C4    S    
C63   H48   S    
C3    C9    A    
C6    C14   A    
Cu2   O3    S    
C9    C11   A    
C21   C53   S    
S5    O21   D    
C38   S4    S    
C33   C34   A    
C5    C65   S    
S4    O18   D    
C51   N3    A    
S2    O12   D    
S3    O17   S    
S4    O19   D    
C48   C50   A    
C43   C45   A    
C54   H19   S    
C63   C64   S    
C55   H26   S    
C53   H20   S    
Cu2   O6    S    
C28   S5    S    
C24   O8    A    
C39   C49   A    
C7    S10   S    
C12   C14   A    
C57   H33   S    
S10   O36   D    
C26   N6    A    
C56   H24   S    
C10   H7    S    
C25   N5    A    
C4    C10   A    
O32   H28   S    
Cu1   O1    S    
S8    O32   S    
S9    O35   S    
C23   O5    A    
C66   H51   S    
C44   C51   S    
C46   C59   S    
C21   C25   A    
S5    O22   D    
C45   C57   S    
C28   N6    A    
C62   H40   S    
S8    O31   D    
C59   H37   S    
S1    O11   S    
C58   H30   S    
S1    O10   D    
C58   H29   S    
C68   H56   S    
C65   H54   S    
C3    C7    A    
C37   S3    S    
C35   H3    S    
C1    O3    A    
Cu2   O7    S    
C56   H23   S    
C61   H42   S    
C28   C30   A    
C29   C31   A    
S9    O33   D    
C60   H34   S    
C17   H9    S    
C36   C38   A    
C30   C32   A    
C11   C13   A    
C41   S7    S    
C57   C58   S    
Cu2   N5    S    
C40   C50   A    
C22   C55   S    
O17   H13   S    
C17   C19   A    
Cu1   O8    S    
C18   C20   A    
C62   H39   S    
O23   H15   S    
C61   H43   S    
C54   H18   S    
S7    O28   D    
C53   H21   S    
C47   H5    S    
S1    O9    D    
C63   H47   S    
S5    O23   S    
Cu2   O2    S    
S10   O38   S    
O11   H11   S    
C22   C26   A    
C64   H44   S    
C65   H55   S    
C2    O4    A    
S3    O15   D    
C53   C54   S    
S6    O26   S    
C67   H60   S    
C52   N1    A    
C6    C67   S    
C67   C68   S    
C68   H57   S    
Cu1   O4    S    
