data_mof_unit_59371.cif
_audit_creation_date              2012-12-10T16:49:23-0500
_audit_creation_method            fapswitch 2.2
_symmetry_space_group_name_H-M    P1
_symmetry_Int_Tables_number       1
_space_group_crystal_system       triclinic
_cell_length_a                    7.740472
_cell_length_b                    8.577636
_cell_length_c                    12.990588
_cell_angle_alpha                 88.70023
_cell_angle_beta                  88.527785
_cell_angle_gamma                 92.54369
_cell_volume                      861.130047266

loop_
_atom_site_label
_atom_site_type_symbol
_atom_type_description
_atom_site_fract_x
_atom_site_fract_y
_atom_site_fract_z
_atom_type_partial_charge
C1    C     C_R   0.457282 0.205744 0.495356 0.961156
C2    C     C_R   0.699973 0.449495 0.145752 -0.164232
C3    C     C_R   0.583566 0.439273 0.872834 -0.089008
C4    C     C_R   0.416381 0.560724 0.127162 -0.090224
C5    C     C_R   0.574390 0.466448 0.978403 0.126737
C6    C     C_R   0.425623 0.533673 0.021576 0.129637
C7    C     C_2   0.449149 0.047030 0.472573 0.046401
C8    C     C_2   0.550841 0.953004 0.527086 0.095500
C9    C     C_2   0.268590 0.647042 0.169613 0.496561
C10   C     C_2   0.731149 0.352652 0.830412 0.495975
C11   C     C_R   0.542757 0.794283 0.504380 0.970842
C12   C     C_R   0.466458 0.495216 0.699620 0.956532
C13   C     C_R   0.533534 0.504761 0.300376 0.942634
C14   C     C_R   0.550831 0.508112 0.189590 -0.064763
C15   C     C_R   0.449159 0.491931 0.810400 -0.080079
C16   C     C_R   0.286933 0.569019 0.958704 -0.157341
C17   C     C_R   0.713112 0.431160 0.041261 -0.156045
C18   C     C_R   0.300084 0.550685 0.854218 -0.174638
H1    H     H_    0.805744 0.413542 0.192580 0.165124
H2    H     H_    0.711032 0.871310 0.785188 0.402504
H3    H     H_    0.194354 0.586696 0.807380 0.172998
H4    H     H_    0.167739 0.613584 0.988884 0.159802
H5    H     H_    0.832310 0.386627 0.011058 0.161403
H6    H     H_    0.997656 0.615995 0.420806 0.217315
H7    H     H_    0.002343 0.383983 0.579181 0.216919
H8    H     H_    0.171803 0.589243 0.220810 0.066091
H9    H     H_    0.828016 0.410224 0.779167 0.076086
H10   H     H_    0.211456 0.194102 0.299863 0.369092
N1    N     N_2   0.054030 0.541640 0.471970 -0.169625
N2    N     N_2   0.945970 0.458360 0.528030 -0.167056
O1    O     O_R   0.609680 0.261530 0.506880 -0.583260
O2    O     O_2   0.749229 0.217130 0.857189 -0.491259
O3    O     O_2   0.483479 0.902036 0.292180 -0.276360
O4    O     O_2   0.190194 0.910314 0.366980 -0.282452
O5    O     O_3   0.329559 0.163181 0.280620 -0.524990
O6    O     O_2   0.810375 0.088398 0.632241 -0.268895
O7    O     O_2   0.516440 0.097298 0.707604 -0.309499
O8    O     O_3   0.671161 0.835365 0.717512 -0.557881
O9    O     O_R   0.390320 0.738470 0.493120 -0.585488
O10   O     O_R   0.323330 0.288220 0.488910 -0.625232
O11   O     O_R   0.676670 0.711780 0.511090 -0.589920
O12   O     O_R   0.619510 0.488830 0.661140 -0.619630
O13   O     O_R   0.380490 0.511170 0.338860 -0.640211
O14   O     O_R   0.333160 0.515520 0.643180 -0.639645
O15   O     O_R   0.666840 0.484480 0.356820 -0.645360
O16   O     O_2   0.250238 0.782556 0.142909 -0.461603
S1    S     S_3+6 0.360477 0.000021 0.350942 0.063056
S2    S     S_3+6 0.639679 0.999665 0.648663 0.053682
Zn1   Zn    Zn3+2 0.691200 0.482180 0.511990 1.042955
Zn2   Zn    Zn3+2 0.308800 0.517820 0.488010 1.025696

loop_
_geom_bond_atom_site_label_1
_geom_bond_atom_site_label_2
_ccdc_geom_bond_type
C10   H9    S    
C15   C18   A    
C11   O9    A    
C8    S2    S    
O13   Zn2   S    
C11   O11   A    
N1    N2    D    
C18   H3    S    
H2    O8    S    
O8    S2    S    
C12   C15   S    
O15   Zn1   S    
O5    S1    S    
C2    H1    S    
C9    O16   D    
C12   O14   A    
C3    C10   S    
C13   C14   S    
C2    C17   A    
C13   O15   A    
C17   H5    S    
O1    Zn1   S    
C8    C11   S    
O3    S1    D    
C16   C18   A    
N2    Zn1   S    
C9    H8    S    
O6    S2    D    
N1    Zn2   S    
C1    O1    A    
C4    C14   A    
C5    C6    A    
C2    C14   A    
O10   Zn2   S    
C5    C17   A    
O12   Zn1   S    
C6    C16   A    
C10   O2    D    
C13   O13   A    
O9    Zn2   S    
C3    C15   A    
C4    C6    A    
C7    C8    D    
O14   Zn2   S    
H7    N2    S    
H6    N1    S    
C12   O12   A    
O4    S1    D    
C1    O10   A    
C3    C5    A    
C4    C9    S    
C1    C7    S    
O11   Zn1   S    
H10   O5    S    
C16   H4    S    
O7    S2    D    
C7    S1    S    
