data_mof_unit_56632.cif
_audit_creation_date              2012-12-10T17:07:46-0500
_audit_creation_method            fapswitch 2.2
_symmetry_space_group_name_H-M    P1
_symmetry_Int_Tables_number       1
_space_group_crystal_system       triclinic
_cell_length_a                    10.665393
_cell_length_b                    10.641627
_cell_length_c                    10.01742
_cell_angle_alpha                 90.62005
_cell_angle_beta                  90.33597
_cell_angle_gamma                 90.017939
_cell_volume                      1136.86225988

loop_
_atom_site_label
_atom_site_type_symbol
_atom_type_description
_atom_site_fract_x
_atom_site_fract_y
_atom_site_fract_z
_atom_type_partial_charge
C1    C     C_R   0.499306 0.262165 0.499060 0.931787
C2    C     C_3   0.877752 0.498570 0.501017 0.112152
C3    C     C_3   0.923575 0.619845 0.432430 -0.381255
C4    C     C_3   0.925004 0.382261 0.422174 -0.455670
C5    C     C_2   0.582249 0.934241 0.398978 0.016158
C6    C     C_2   0.545153 0.867556 0.505300 -0.432742
C7    C     C_2   0.576952 0.070794 0.407969 -0.181813
C8    C     C_2   0.502120 0.129086 0.495619 -0.305662
C9    C     C_2   0.591513 0.544834 0.926009 -0.124162
C10   C     C_2   0.595139 0.536268 0.075834 -0.092844
C11   C     C_R   0.257525 0.501176 0.499456 0.857207
C12   C     C_R   0.513830 0.736716 0.500767 0.997842
C13   C     C_R   0.741982 0.498541 0.500565 0.843366
C14   C     C_3   0.072340 0.487134 0.643379 -0.417127
C15   C     C_3   0.929791 0.493461 0.645932 -0.385361
C16   C     C_3   0.067111 0.631215 0.446492 -0.206433
C17   C     C_3   0.069371 0.385043 0.415883 -0.175090
C18   C     C_3   0.120537 0.502021 0.497190 -0.011774
H1    H     H_    0.882509 0.379638 0.320347 0.202536
H2    H     H_    0.633106 0.124939 0.338720 0.176385
H3    H     H_    0.441564 0.081236 0.565099 0.148158
H4    H     H_    0.671166 0.587834 0.877500 0.162754
H5    H     H_    0.429728 0.453514 0.896977 0.168845
H6    H     H_    0.681557 0.563412 0.125863 0.198437
H7    H     H_    0.103763 0.395764 0.685327 0.190879
H8    H     H_    0.892956 0.409549 0.698455 0.192494
H9    H     H_    0.084041 0.701803 0.527739 0.120745
H10   H     H_    0.878554 0.704096 0.478555 0.158892
H11   H     H_    0.103928 0.299468 0.467744 0.128317
H12   H     H_    0.893851 0.294885 0.472513 0.154176
N1    N     N_2   0.501360 0.501330 0.852150 -0.189871
N2    N     N_2   0.501390 0.501360 0.147810 -0.183739
O1    O     O_R   0.499980 0.319060 0.613040 -0.616825
O2    O     O_R   0.500020 0.319100 0.386900 -0.586562
O3    O     O_R   0.314770 0.499960 0.613070 -0.626047
O4    O     O_R   0.314820 0.500000 0.386930 -0.585086
O5    O     O_R   0.499980 0.680900 0.613100 -0.620817
O6    O     O_R   0.500020 0.680940 0.386960 -0.543395
O7    O     O_R   0.685180 0.500000 0.613070 -0.636953
O8    O     O_R   0.685230 0.500040 0.386930 -0.619529
Zn1   Zn    Zn3+2 0.499970 0.499970 0.650990 0.949198
Zn2   Zn    Zn3+2 0.500030 0.500030 0.349010 1.022477
H13   H     H_    0.110256 0.562743 0.710043 0.201968
C19   C     C_2   0.128619 0.689062 0.324768 0.970523
O9    O     O_2   0.232761 0.736172 0.336176 -0.624987
O10   O     O_R   0.064683 0.697732 0.202835 -0.758139
H14   H     H_    0.116114 0.740507 0.131654 0.348719
H15   H     H_    0.893501 0.616357 0.326079 0.263677
C20   C     C_2   0.631261 0.878197 0.273120 0.964416
O11   O     O_2   0.698880 0.785512 0.276114 -0.660546
O12   O     O_R   0.605119 0.936029 0.151440 -0.793799
H16   H     H_    0.644680 0.890405 0.072919 0.338983
H17   H     H_    0.534786 0.911453 0.602839 0.158668
H18   H     H_    0.417143 0.483296 0.101456 0.176879
H19   H     H_    0.900036 0.578598 0.703163 0.184993
C21   C     C_2   0.114879 0.372394 0.273191 0.936750
O13   O     O_2   0.076142 0.442521 0.186465 -0.606836
O14   O     O_R   0.200375 0.277435 0.240735 -0.793847
H20   H     H_    0.224598 0.277911 0.143020 0.338527

loop_
_geom_bond_atom_site_label_1
_geom_bond_atom_site_label_2
_ccdc_geom_bond_type
C2    C4    S    
C11   C18   S    
C8    H3    S    
C1    C8    S    
C17   H11   S    
C9    C10   S    
C14   C18   S    
O4    Zn2   S    
O2    Zn2   S    
O1    Zn1   S    
C16   H9    S    
C11   O3    A    
C17   C18   S    
C1    O1    A    
C7    C8    D    
O7    Zn1   S    
C19   O9    D    
O5    Zn1   S    
C2    C15   S    
C17   C21   S    
C5    C20   S    
C4    C17   S    
C6    C12   S    
O8    Zn2   S    
C3    H10   S    
C19   O10   S    
C1    O2    A    
O6    Zn2   S    
C2    C3    S    
C14   H7    S    
C12   O6    A    
C5    C6    D    
O3    Zn1   S    
C9    H4    S    
C13   O7    A    
C9    N1    D    
C6    H17   S    
O12   H16   S    
C13   O8    A    
C10   N2    D    
C3    H15   S    
C21   O13   D    
C16   C18   S    
C20   O11   D    
N2    H18   S    
C12   O5    A    
C5    C7    S    
C2    C13   S    
C16   C19   S    
C14   C15   S    
C11   O4    A    
C15   H8    S    
N2    Zn2   S    
N1    Zn1   S    
C10   H6    S    
O14   H20   S    
O10   H14   S    
C4    H1    S    
C7    H2    S    
C4    H12   S    
C3    C16   S    
C21   O14   S    
C14   H13   S    
C20   O12   S    
H5    N1    S    
C15   H19   S    
