data_mof_unit_55567.cif
_audit_creation_date              2012-12-10T17:59:15-0500
_audit_creation_method            fapswitch 2.2
_symmetry_space_group_name_H-M    P1
_symmetry_Int_Tables_number       1
_space_group_crystal_system       triclinic
_cell_length_a                    10.88031
_cell_length_b                    9.549606
_cell_length_c                    10.836686
_cell_angle_alpha                 90.026185
_cell_angle_beta                  91.173593
_cell_angle_gamma                 90.010002
_cell_volume                      1125.72431896

loop_
_atom_site_label
_atom_site_type_symbol
_atom_type_description
_atom_site_fract_x
_atom_site_fract_y
_atom_site_fract_z
_atom_type_partial_charge
C1    C     C_R   0.262188 0.499989 0.498757 0.922045
C2    C     C_3   0.635027 0.503201 0.931104 0.282328
C3    C     C_R   0.063482 0.372633 0.492355 0.531578
C4    C     C_R   0.063534 0.627338 0.493353 0.533518
C5    C     C_R   0.936419 0.372721 0.490222 0.495493
C6    C     C_R   0.936484 0.627267 0.491157 0.494853
C7    C     C_R   0.871640 0.499993 0.493011 -0.498026
C8    C     C_R   0.128297 0.499978 0.495463 -0.514928
C9    C     C_R   0.421031 0.074208 0.424821 0.668840
C10   C     C_R   0.420614 0.925846 0.425351 0.658818
C11   C     C_R   0.579060 0.925273 0.575693 0.174641
C12   C     C_R   0.578790 0.074886 0.575979 0.162948
C13   C     C_R   0.495763 0.499695 0.260232 0.887983
C14   C     C_R   0.737788 0.499999 0.497661 0.870307
C15   C     C_R   0.496612 0.500141 0.739967 0.791098
C16   C     C_3   0.437222 0.642299 0.070897 0.556960
C17   C     C_3   0.411174 0.372669 0.072318 0.569492
C18   C     C_3   0.421356 0.634652 0.926245 0.516058
C19   C     C_3   0.420856 0.365341 0.926921 0.530226
C20   C     C_3   0.634325 0.476653 0.076527 0.255863
C21   C     C_3   0.494787 0.498300 0.122562 -0.344180
C22   C     C_3   0.494046 0.500438 0.878286 -0.308372
Cu1   Cu    Cu3+1 0.500020 0.640660 0.500000 1.106270
Cu2   Cu    Cu3+1 0.500020 0.359340 0.500000 1.092859
N1    N     N_R   0.500030 0.852070 0.500030 -0.258766
N2    N     N_R   0.500030 0.147930 0.500030 -0.265925
O1    O     O_R   0.319660 0.618740 0.499990 -0.498930
O2    O     O_R   0.319660 0.381260 0.499990 -0.506740
O3    O     O_R   0.499990 0.618790 0.317690 -0.516552
O4    O     O_R   0.499990 0.381210 0.317690 -0.524286
O5    O     O_R   0.680370 0.618830 0.500010 -0.523362
O6    O     O_R   0.680370 0.381170 0.500010 -0.527530
O7    O     O_R   0.500030 0.618780 0.682310 -0.531632
O8    O     O_R   0.500030 0.381220 0.682310 -0.552615
F1    F     F_    0.517086 0.751202 0.097602 -0.616376
F2    F     F_    0.453156 0.245872 0.120001 -0.572361
N3    N     N_3   0.660354 0.850139 0.656660 -0.483106
H1    H     H_    0.750543 0.880145 0.638975 0.267721
H2    H     H_    0.640900 0.878993 0.747126 0.244174
N4    N     N_3   0.659068 0.150110 0.658005 -0.479347
H3    H     H_    0.749638 0.123140 0.638789 0.269458
H4    H     H_    0.641038 0.116476 0.747385 0.236815
N5    N     N_3   0.323623 0.682751 0.134757 -0.467787
H5    H     H_    0.243591 0.636375 0.101372 0.198270
H6    H     H_    0.309092 0.790152 0.122001 0.320345
N6    N     N_3   0.284207 0.386004 0.117361 -0.573833
H7    H     H_    0.222512 0.427811 0.052718 0.206293
H8    H     H_    0.248956 0.287029 0.138151 0.321635
N7    N     N_3   0.291050 0.630153 0.886949 -0.626502
H9    H     H_    0.284831 0.620166 0.790985 0.246001
H10   H     H_    0.251126 0.727528 0.904925 0.264552
N8    N     N_3   0.298436 0.350694 0.867222 -0.607691
H11   H     H_    0.305692 0.335891 0.772331 0.259094
H12   H     H_    0.258233 0.258234 0.898958 0.272263
F3    F     F_    0.468137 0.757235 0.876459 -0.608842
F4    F     F_    0.483122 0.243873 0.897305 -0.630630
N9    N     N_3   0.723576 0.570765 0.140630 -0.490232
H13   H     H_    0.698396 0.675049 0.146432 0.299376
H14   H     H_    0.739128 0.537879 0.231641 0.203359
N10   N     N_3   0.681535 0.334196 0.104694 -0.493477
H15   H     H_    0.675430 0.309759 0.198225 0.267435
H16   H     H_    0.643244 0.253206 0.052873 0.320294
N11   N     N_3   0.696271 0.637850 0.905115 -0.515517
H17   H     H_    0.660952 0.724819 0.949200 0.319752
H18   H     H_    0.697375 0.656475 0.810503 0.243485
N12   N     N_3   0.713765 0.398008 0.870662 -0.505652
H19   H     H_    0.732232 0.427047 0.779840 0.214445
H20   H     H_    0.675147 0.299658 0.864826 0.277704
F5    F     F_    0.122055 0.247037 0.491244 -0.530787
F6    F     F_    0.122136 0.752955 0.493367 -0.527351
F7    F     F_    0.877855 0.247395 0.483834 -0.583287
F8    F     F_    0.878002 0.752645 0.485695 -0.581539
F9    F     F_    0.341202 0.143502 0.349218 -0.535327
F10   F     F_    0.339143 0.856659 0.351745 -0.553160

loop_
_geom_bond_atom_site_label_1
_geom_bond_atom_site_label_2
_ccdc_geom_bond_type
C19   F4    S    
C2    C22   S    
C1    O2    A    
N12   H20   S    
Cu1   Cu2   S    
Cu2   O6    S    
C11   N3    S    
C12   N4    S    
C16   C21   S    
C17   F2    S    
Cu1   O1    S    
C20   N10   S    
C1    C8    S    
C10   F10   S    
C9    C10   A    
C16   F1    S    
C15   O8    A    
N4    H4    S    
C14   O5    A    
C4    C8    A    
C3    F5    S    
N11   H18   S    
N12   H19   S    
C3    C5    A    
C13   C21   S    
C5    F7    S    
C16   C18   S    
C18   C22   S    
N8    H11   S    
C17   N6    S    
N10   H16   S    
C6    F8    S    
N5    H6    S    
C16   N5    S    
N9    H13   S    
C6    C7    A    
C9    F9    S    
C18   F3    S    
Cu1   O3    S    
C10   N1    A    
C4    F6    S    
N4    H3    S    
C17   C19   S    
N3    H1    S    
Cu2   N2    S    
C9    N2    A    
N7    H9    S    
N6    H8    S    
Cu1   N1    S    
N5    H5    S    
N3    H2    S    
Cu2   O4    S    
N9    H14   S    
C4    C6    A    
C11   N1    A    
C2    C20   S    
N11   H17   S    
C13   O3    A    
C13   O4    A    
C7    C14   S    
C19   C22   S    
C14   O6    A    
C20   C21   S    
C18   N7    S    
C1    O1    A    
C3    C8    A    
C12   N2    A    
C5    C7    A    
C2    N11   S    
Cu1   O7    S    
C20   N9    S    
N6    H7    S    
C2    N12   S    
C19   N8    S    
C15   O7    A    
C15   C22   S    
Cu2   O8    S    
Cu2   O2    S    
C11   C12   A    
N8    H12   S    
N10   H15   S    
N7    H10   S    
Cu1   O5    S    
C17   C21   S    
