data_mof_unit_7128.cif
_audit_creation_date              2012-12-10T17:29:14-0500
_audit_creation_method            fapswitch 2.2
_symmetry_space_group_name_H-M    P1
_symmetry_Int_Tables_number       1
_space_group_crystal_system       triclinic
_cell_length_a                    12.117091
_cell_length_b                    12.750009
_cell_length_c                    12.999694
_cell_angle_alpha                 85.581954
_cell_angle_beta                  113.802476
_cell_angle_gamma                 94.653755
_cell_volume                      1829.31600303

loop_
_atom_site_label
_atom_site_type_symbol
_atom_type_description
_atom_site_fract_x
_atom_site_fract_y
_atom_site_fract_z
_atom_type_partial_charge
C1    C     C_R   0.475842 0.299993 0.496751 0.964156
C2    C     C_R   0.614666 0.514733 0.830391 -0.090908
C3    C     C_R   0.546246 0.811015 0.514822 -0.164447
C4    C     C_R   0.567857 0.501483 0.708914 1.002732
C5    C     C_R   0.456066 0.188665 0.485851 -0.172770
C6    C     C_R   0.370583 0.039804 0.369406 0.443832
C7    C     C_R   0.371649 0.147347 0.385686 -0.223129
C8    C     C_R   0.533055 0.125570 0.572929 0.418776
C9    C     C_R   0.544730 0.021323 0.552770 -0.154003
C10   C     C_R   0.464199 0.979680 0.448051 -0.069845
C11   C     C_R   0.476595 0.876471 0.426449 0.345981
C12   C     C_R   0.563901 0.530307 0.989467 -0.091722
C13   C     C_R   0.629415 0.849746 0.616381 0.340739
C14   C     C_R   0.635885 0.958166 0.631754 -0.123311
C15   C     C_R   0.010433 0.604129 0.394115 -0.104004
C16   C     C_R   0.524384 0.700072 0.503043 1.066926
C17   C     C_R   0.130234 0.592390 0.405262 -0.017312
C18   C     C_R   0.156830 0.456874 0.547713 0.584060
C19   C     C_R   0.036366 0.464922 0.539475 -0.083087
C20   C     C_R   0.962624 0.541398 0.463609 -0.241540
C21   C     C_R   0.842690 0.549278 0.458501 0.500165
C22   C     C_R   0.867878 0.407713 0.594515 0.366206
C23   C     C_R   0.542360 0.556948 0.876974 -0.081194
C24   C     C_R   0.987088 0.395616 0.603496 0.292291
C25   C     C_R   0.432172 0.501425 0.290411 0.910194
C26   C     C_R   0.263252 0.589506 0.986622 -0.086024
C27   C     C_R   0.388766 0.507954 0.167083 -0.169180
C28   C     C_R   0.726153 0.475496 0.901436 -0.347786
C29   C     C_R   0.764469 0.475823 0.018638 0.381562
C30   C     C_R   0.682665 0.503059 0.063723 0.465671
C31   C     C_1   0.740391 0.003378 0.722301 0.256171
C32   C     C_1   0.291648 0.216273 0.297818 0.188809
C33   C     C_1   0.937384 0.677344 0.306432 0.263836
C34   C     C_R   0.466614 0.535049 0.023027 -0.005772
C35   C     C_1   0.177899 0.660324 0.337411 0.348225
C36   C     C_1   0.145133 0.622054 0.909027 0.298448
C37   C     C_1   0.527095 0.382088 0.162429 0.269927
C38   C     C_R   0.361631 0.589671 0.952691 -0.039252
C39   C     C_R   0.357804 0.640260 0.850361 0.342651
C40   C     C_R   0.452003 0.627435 0.815581 0.383047
C41   C     C_R   0.466312 0.479885 0.120507 -0.023471
C42   C     C_R   0.279765 0.552906 0.097303 0.384634
H1    H     H_    0.783772 0.445767 0.865925 0.196256
H2    H     H_    0.297031 0.373516 0.610252 0.374447
H3    H     H_    0.799433 0.483544 0.219321 0.375715
H4    H     H_    0.924445 0.432375 0.044602 0.356211
H5    H     H_    0.424623 0.755957 0.719130 0.340284
H6    H     H_    0.432145 0.893822 0.266301 0.378435
H7    H     H_    0.123090 0.596282 0.086217 0.336851
H8    H     H_    0.741037 0.812717 0.770569 0.348472
H9    H     H_    0.211531 0.037326 0.242565 0.349333
H10   H     H_    0.584390 0.117237 0.733551 0.335028
H11   H     H_    0.815490 0.695092 0.423146 0.322289
H12   H     H_    0.886349 0.330093 0.734394 0.331819
H13   H     H_    0.998361 0.254069 0.673147 0.346544
H14   H     H_    0.247355 0.696005 0.705058 0.339172
N1    N     N_R   0.798200 0.480260 0.519790 -0.135835
N2    N     N_R   0.201820 0.519740 0.480210 -0.190872
N3    N     N_1   0.824081 0.039265 0.794428 -0.156979
N4    N     N_1   0.227954 0.271329 0.227775 -0.152148
N5    N     N_1   0.879706 0.735694 0.236189 -0.143966
N6    N     N_1   0.213656 0.716474 0.282241 -0.073547
N7    N     N_1   0.050578 0.647578 0.847321 -0.161503
N8    N     N_1   0.574976 0.304019 0.195925 -0.184397
O1    O     O_R   0.579910 0.341070 0.505280 -0.545828
O2    O     O_3   0.702297 0.779471 0.697166 -0.734086
O3    O     O_3   0.279725 0.991000 0.279752 -0.731793
O4    O     O_3   0.594430 0.168750 0.676365 -0.737288
O5    O     O_3   0.769662 0.627707 0.395844 -0.675756
O6    O     O_3   0.819856 0.349355 0.661926 -0.696484
O7    O     O_3   0.053972 0.314636 0.670542 -0.680695
O8    O     O_3   0.262543 0.701246 0.785415 -0.764463
O9    O     O_3   0.228333 0.386500 0.627715 -0.696508
O10   O     O_3   0.719136 0.512689 0.178154 -0.728034
O11   O     O_3   0.879071 0.447432 0.089998 -0.764127
O12   O     O_R   0.388440 0.353740 0.492580 -0.666820
O13   O     O_3   0.464105 0.688869 0.727940 -0.758447
O14   O     O_3   0.424634 0.837310 0.320285 -0.720341
O15   O     O_R   0.643280 0.490550 0.663120 -0.574223
O16   O     O_R   0.451810 0.503220 0.650420 -0.615356
O17   O     O_R   0.611560 0.646260 0.507420 -0.569794
O18   O     O_R   0.420090 0.658930 0.494720 -0.612732
O19   O     O_R   0.548190 0.496780 0.349580 -0.570053
O20   O     O_R   0.356720 0.509450 0.336880 -0.566997
O21   O     O_3   0.190806 0.554870 0.138187 -0.738581
Zn1   Zn    Zn3+2 0.627850 0.491540 0.508480 1.084064
Zn2   Zn    Zn3+2 0.372150 0.508460 0.491520 1.002454

loop_
_geom_bond_atom_site_label_1
_geom_bond_atom_site_label_2
_ccdc_geom_bond_type
C19   C20   A    
O20   Zn2   S    
C14   C31   S    
H11   O5    S    
N2    Zn2   S    
C22   N1    A    
O1    Zn1   S    
C12   C23   A    
C1    C5    S    
C28   C29   A    
C4    O16   A    
O16   Zn2   S    
C38   C39   A    
C30   O10   S    
C31   N3    T    
O18   Zn2   S    
N1    Zn1   S    
C18   C19   A    
H6    O14   S    
C18   N2    A    
C8    C9    A    
H14   O8    S    
C25   O20   A    
C1    O1    A    
C39   O8    S    
C36   N7    T    
C9    C10   A    
O17   Zn1   S    
C3    C13   A    
C17   N2    A    
C13   C14   A    
C34   C41   A    
H4    O11   S    
C13   O2    S    
C15   C20   A    
H7    O21   S    
C4    O15   A    
C39   C40   A    
C5    C7    A    
C26   C38   A    
C21   O5    S    
H3    O10   S    
C2    C4    S    
C9    C14   A    
C21   N1    A    
C29   C30   A    
C11   O14   S    
C27   C41   A    
H12   O6    S    
C16   O18   A    
C42   O21   S    
H9    O3    S    
H8    O2    S    
O12   Zn2   S    
C26   C36   S    
C6    O3    S    
C8    O4    S    
C18   O9    S    
C22   C24   A    
H5    O13   S    
C12   C34   A    
C37   N8    T    
C26   C42   A    
C15   C17   A    
C7    C32   S    
C12   C30   A    
C34   C38   A    
C1    O12   A    
H10   O4    S    
C6    C10   A    
C5    C8    A    
C6    C7    A    
C29   O11   S    
C25   C27   S    
C28   H1    S    
C19   C24   A    
C27   C42   A    
C16   O17   A    
C22   O6    S    
C35   N6    T    
C37   C41   S    
H2    O9    S    
C3    C11   A    
C10   C11   A    
O19   Zn1   S    
C20   C21   A    
C33   N5    T    
C2    C23   A    
C25   O19   A    
C32   N4    T    
C40   O13   S    
C2    C28   A    
C17   C35   S    
C15   C33   S    
O15   Zn1   S    
H13   O7    S    
C3    C16   S    
C23   C40   A    
C24   O7    S    
