data_mof_unit_64932.cif
_audit_creation_date              2012-12-10T16:39:51-0500
_audit_creation_method            fapswitch 2.2
_symmetry_space_group_name_H-M    P1
_symmetry_Int_Tables_number       1
_space_group_crystal_system       triclinic
_cell_length_a                    10.923308
_cell_length_b                    10.927879
_cell_length_c                    16.025123
_cell_angle_alpha                 90.833569
_cell_angle_beta                  97.542577
_cell_angle_gamma                 99.014769
_cell_volume                      1871.71650999

loop_
_atom_site_label
_atom_site_type_symbol
_atom_type_description
_atom_site_fract_x
_atom_site_fract_y
_atom_site_fract_z
_atom_type_partial_charge
C1    C     C_R   0.838122 0.525579 0.517924 0.482994
C2    C     C_R   0.527941 0.834953 0.518068 0.523119
C3    C     C_R   0.473438 0.163216 0.482291 0.491796
C4    C     C_R   0.484058 0.515904 0.275932 0.514925
C5    C     C_R   0.515939 0.484160 0.723720 0.502090
C6    C     C_1   0.478220 0.521767 0.186396 0.034577
C7    C     C_2   0.470108 0.529738 0.020890 -0.126434
C8    C     C_2   0.537328 0.463555 0.978617 -0.007591
C9    C     C_1   0.618288 0.384016 0.020618 0.232364
C10   C     C_3   0.944073 0.321643 0.459675 -0.270792
C11   C     C_3   0.010714 0.220539 0.426719 -0.284880
C12   C     C_1   0.529478 0.471098 0.888609 -0.049497
C13   C     C_3   0.922683 0.096901 0.411187 -0.444007
C14   C     C_1   0.036532 0.664550 0.540818 0.237125
C15   C     C_1   0.355292 0.960173 0.424628 0.218482
C16   C     C_3   0.663762 0.031852 0.582638 -0.251048
C17   C     C_3   0.752337 0.945012 0.621725 -0.314508
C18   C     C_3   0.865570 0.017980 0.676889 -0.444395
C19   C     C_1   0.473994 0.525956 0.111094 -0.025621
C20   C     C_1   0.523003 0.477328 0.813276 0.015707
C21   C     C_2   0.024754 0.447799 0.487200 -0.033624
C22   C     C_2   0.971519 0.538987 0.519865 -0.011952
C23   C     C_2   0.461753 0.028132 0.479374 -0.029933
C24   C     C_2   0.545841 0.967908 0.526287 -0.014007
C25   C     C_R   0.160642 0.471234 0.484070 0.523928
H1    H     H_    0.410264 0.588541 0.987178 0.131781
H2    H     H_    0.835182 0.067801 0.729490 0.165927
H3    H     H_    0.927991 0.953276 0.703751 0.165019
H4    H     H_    0.701885 0.876548 0.661049 0.167569
H5    H     H_    0.786653 0.894391 0.571152 0.188228
H6    H     H_    0.718632 0.098581 0.544563 0.162515
H7    H     H_    0.634533 0.082246 0.635529 0.183871
H8    H     H_    0.893601 0.061750 0.471351 0.153176
H9    H     H_    0.838409 0.107516 0.366625 0.163759
H10   H     H_    0.971726 0.027625 0.383713 0.180250
H11   H     H_    0.043739 0.248175 0.366000 0.206509
H12   H     H_    0.091479 0.206498 0.473509 0.185082
H13   H     H_    0.901043 0.284042 0.515009 0.161883
H14   H     H_    0.867467 0.336929 0.409879 0.149023
H15   H     H_    0.919082 0.086104 0.638996 0.155206
N1    N     N_1   0.683062 0.320385 0.054238 -0.287358
N2    N     N_1   0.087670 0.764646 0.557422 -0.279411
N3    N     N_1   0.270506 0.906101 0.381147 -0.281272
O1    O     O_3   0.500000 0.500000 0.500000 -0.443408
O2    O     O_R   0.566290 0.591070 0.323460 -0.530857
O3    O     O_R   0.580640 0.419420 0.684420 -0.537763
O4    O     O_R   0.407770 0.434760 0.307690 -0.530859
O5    O     O_R   0.445300 0.554750 0.684430 -0.537815
O6    O     O_R   0.452040 0.769470 0.559450 -0.523041
O7    O     O_R   0.554760 0.223750 0.537250 -0.567651
O8    O     O_R   0.782610 0.596300 0.470630 -0.539813
O9    O     O_R   0.210590 0.410470 0.432660 -0.551608
O10   O     O_R   0.777820 0.443700 0.559450 -0.552456
O11   O     O_R   0.228980 0.549520 0.537250 -0.525037
O12   O     O_R   0.592170 0.786730 0.470640 -0.548041
O13   O     O_R   0.401030 0.220040 0.432660 -0.531965
Zn1   Zn    Zn3+2 0.408180 0.591840 0.569080 0.965785
Zn2   Zn    Zn3+2 0.608390 0.616500 0.442190 0.949575
Zn3   Zn    Zn3+2 0.381900 0.393170 0.419650 0.949118
Zn4   Zn    Zn3+2 0.601540 0.398480 0.569080 0.915261

loop_
_geom_bond_atom_site_label_1
_geom_bond_atom_site_label_2
_ccdc_geom_bond_type
O6    Zn1   S    
C23   C24   D    
C13   H8    S    
C17   H5    S    
O9    Zn3   S    
C16   H7    S    
C11   C13   S    
C3    O13   A    
C9    N1    T    
O13   Zn3   S    
C8    C12   S    
O1    Zn1   S    
C10   H13   S    
O7    Zn4   S    
C14   C22   S    
C15   C23   S    
C17   C18   S    
C25   O9    A    
C15   N3    T    
C13   H9    S    
C16   C24   S    
O8    Zn2   S    
C21   C22   D    
C16   H6    S    
C1    O10   A    
C6    C19   T    
C1    O8    A    
C4    O4    A    
C12   C20   T    
C10   H14   S    
C7    H1    S    
O1    Zn4   S    
C11   H11   S    
C2    O6    A    
O10   Zn4   S    
C13   H10   S    
C7    C19   S    
C2    O12   A    
C10   C21   S    
C2    C24   S    
C17   H4    S    
C5    O5    A    
C5    C20   S    
O2    Zn2   S    
C10   C11   S    
O1    Zn3   S    
O4    Zn3   S    
C4    O2    A    
C7    C8    D    
O5    Zn1   S    
C18   H3    S    
C25   O11   A    
C4    C6    S    
C5    O3    A    
O12   Zn2   S    
C11   H12   S    
C21   C25   S    
C8    C9    S    
C1    C22   S    
C18   H15   S    
O3    Zn4   S    
C14   N2    T    
C3    C23   S    
C3    O7    A    
C18   H2    S    
O1    Zn2   S    
C16   C17   S    
O11   Zn1   S    
