data_mof_unit_15289.cif
_audit_creation_date              2012-12-10T16:55:49-0500
_audit_creation_method            fapswitch 2.2
_symmetry_space_group_name_H-M    P1
_symmetry_Int_Tables_number       1
_space_group_crystal_system       triclinic
_cell_length_a                    7.771966
_cell_length_b                    8.655272
_cell_length_c                    10.487816
_cell_angle_alpha                 91.339736
_cell_angle_beta                  85.703612
_cell_angle_gamma                 93.601856
_cell_volume                      702.003607961

loop_
_atom_site_label
_atom_site_type_symbol
_atom_type_description
_atom_site_fract_x
_atom_site_fract_y
_atom_site_fract_z
_atom_type_partial_charge
C1    C     C_R   0.545063 0.794132 0.496845 0.924061
C2    C     C_3   0.504362 0.499980 0.877007 -0.143863
C3    C     C_3   0.337798 0.525339 0.048673 -0.231541
C4    C     C_3   0.662200 0.474646 0.951329 -0.231517
C5    C     C_2   0.564705 0.954719 0.477629 -0.243249
C6    C     C_2   0.435306 0.045279 0.522377 -0.243229
C7    C     C_1   0.713827 0.005731 0.392752 0.296537
C8    C     C_1   0.286269 0.994291 0.607360 0.296436
C9    C     C_R   0.454938 0.205867 0.503153 0.924052
C10   C     C_R   0.501899 0.500391 0.742371 0.946666
C11   C     C_R   0.498100 0.499602 0.257629 0.946675
C12   C     C_3   0.454957 0.636622 0.963314 0.460876
C13   C     C_3   0.545043 0.363362 0.036687 0.460910
C14   C     C_3   0.612124 0.613073 0.039811 -0.242316
C15   C     C_3   0.387876 0.386911 0.960189 -0.242331
C16   C     C_3   0.495638 0.500006 0.122994 -0.143854
Cl1   Cl    Cl    0.397549 0.819335 0.910539 -0.570054
Cl2   Cl    Cl    0.602510 0.180691 0.089456 -0.570065
H1    H     H_    0.701386 0.706041 0.076623 0.200301
H2    H     H_    0.298617 0.293941 0.923378 0.200301
H3    H     H_    0.206391 0.547014 0.091713 0.191670
H4    H     H_    0.793607 0.452974 0.908290 0.191672
H5    H     H_    0.013760 0.382458 0.404204 0.207438
H6    H     H_    0.986240 0.617542 0.595796 0.207423
N1    N     N_2   0.950320 0.457950 0.465730 -0.170972
N2    N     N_2   0.049680 0.542050 0.534270 -0.170979
N3    N     N_1   0.832596 0.045474 0.325623 -0.139506
N4    N     N_1   0.167591 0.954588 0.674610 -0.139370
O1    O     O_R   0.389250 0.738570 0.508410 -0.607506
O2    O     O_R   0.610750 0.261430 0.491590 -0.607514
O3    O     O_R   0.678390 0.711620 0.486450 -0.632334
O4    O     O_R   0.321610 0.288380 0.513550 -0.632323
O5    O     O_R   0.355460 0.513510 0.697030 -0.602673
O6    O     O_R   0.644540 0.486490 0.302970 -0.602668
O7    O     O_R   0.644600 0.486560 0.675070 -0.631925
O8    O     O_R   0.355400 0.513440 0.324930 -0.631927
Zn1   Zn    Zn3+2 0.306940 0.517990 0.514670 0.988347
Zn2   Zn    Zn3+2 0.693060 0.482010 0.485330 0.988350

loop_
_geom_bond_atom_site_label_1
_geom_bond_atom_site_label_2
_ccdc_geom_bond_type
C12   Cl1   S    
C2    C4    S    
N2    Zn1   S    
C10   O7    A    
N1    Zn2   S    
C4    H4    S    
C11   C16   S    
O3    Zn2   S    
C2    C12   S    
C6    C9    S    
C13   C15   S    
C3    C15   S    
O4    Zn1   S    
C2    C15   S    
C5    C6    D    
C13   Cl2   S    
C1    C5    S    
C9    O2    A    
C1    O1    A    
C11   O8    A    
C12   C14   S    
C10   O5    A    
H5    N1    S    
C4    C14   S    
C15   H2    S    
C8    N4    T    
C14   C16   S    
C3    H3    S    
C2    C10   S    
C1    O3    A    
O7    Zn2   S    
C7    N3    T    
O2    Zn2   S    
C13   C16   S    
O1    Zn1   S    
C4    C13   S    
C5    C7    S    
O8    Zn1   S    
C6    C8    S    
C3    C12   S    
C9    O4    A    
N1    N2    D    
O6    Zn2   S    
C14   H1    S    
C11   O6    A    
O5    Zn1   S    
C3    C16   S    
H6    N2    S    
