data_mof_unit_10262.cif
_audit_creation_date              2012-12-10T16:33:52-0500
_audit_creation_method            fapswitch 2.2
_symmetry_space_group_name_H-M    P1
_symmetry_Int_Tables_number       1
_space_group_crystal_system       monoclinic
_cell_length_a                    28.353045
_cell_length_b                    18.574017
_cell_length_c                    16.966016
_cell_angle_alpha                 90.0
_cell_angle_beta                  60.880642
_cell_angle_gamma                 90.0
_cell_volume                      7805.52197339

loop_
_atom_site_label
_atom_site_type_symbol
_atom_type_description
_atom_site_fract_x
_atom_site_fract_y
_atom_site_fract_z
_atom_type_partial_charge
C1    C     C_R   0.700072 0.264253 0.676747 0.918423
C2    C     C_R   0.299800 0.735491 0.323261 0.926048
C3    C     C_R   0.299928 0.264253 0.323253 0.918423
C4    C     C_R   0.700200 0.735491 0.676739 0.926048
C5    C     C_R   0.200072 0.764253 0.676747 0.918423
C6    C     C_R   0.799800 0.235491 0.323261 0.926048
C7    C     C_R   0.799928 0.764253 0.323253 0.918423
C8    C     C_R   0.200200 0.235491 0.676739 0.926048
C9    C     C_R   0.050164 0.369882 0.506224 0.455871
C10   C     C_R   0.951220 0.628355 0.490260 0.443246
C11   C     C_R   0.949836 0.369882 0.493776 0.455873
C12   C     C_R   0.048780 0.628355 0.509740 0.443246
C13   C     C_R   0.550164 0.869882 0.506224 0.455872
C14   C     C_R   0.451220 0.128355 0.490259 0.443246
C15   C     C_R   0.449836 0.869882 0.493776 0.455873
C16   C     C_R   0.548780 0.128355 0.509740 0.443247
C17   C     C_R   0.717854 0.260584 0.957067 -0.056392
C18   C     C_R   0.281487 0.737936 0.043254 -0.061229
C19   C     C_R   0.282146 0.260584 0.042933 -0.056392
C20   C     C_R   0.718513 0.737936 0.956746 -0.061229
C21   C     C_R   0.217854 0.760584 0.957067 -0.056391
C22   C     C_R   0.781487 0.237936 0.043254 -0.061229
C23   C     C_R   0.782146 0.760584 0.042933 -0.056392
C24   C     C_R   0.218513 0.237936 0.956746 -0.061230
C25   C     C_R   0.772336 0.281891 0.915710 -0.243018
C26   C     C_R   0.227001 0.716584 0.084629 -0.263448
C27   C     C_R   0.227664 0.281891 0.084290 -0.243018
C28   C     C_R   0.772999 0.716584 0.915371 -0.263447
C29   C     C_R   0.272336 0.781891 0.915710 -0.243018
C30   C     C_R   0.727001 0.216584 0.084629 -0.263448
C31   C     C_R   0.727664 0.781891 0.084290 -0.243018
C32   C     C_R   0.272999 0.216584 0.915371 -0.263448
C33   C     C_R   0.804253 0.271350 0.957558 0.492607
C34   C     C_R   0.195065 0.727202 0.042805 0.406196
C35   C     C_R   0.195747 0.271350 0.042442 0.492607
C36   C     C_R   0.804934 0.727202 0.957195 0.406198
C37   C     C_R   0.304253 0.771350 0.957558 0.492607
C38   C     C_R   0.695065 0.227202 0.042805 0.406197
C39   C     C_R   0.695747 0.771350 0.042442 0.492607
C40   C     C_R   0.304934 0.227202 0.957195 0.406200
C41   C     C_R   0.645948 0.329317 0.943754 -0.180159
C42   C     C_R   0.353662 0.669871 0.056501 -0.184439
C43   C     C_R   0.354052 0.329317 0.056246 -0.180159
C44   C     C_R   0.646338 0.669871 0.943499 -0.184439
C45   C     C_R   0.145948 0.829317 0.943754 -0.180159
C46   C     C_R   0.853662 0.169871 0.056501 -0.184439
C47   C     C_R   0.854052 0.829317 0.056246 -0.180160
C48   C     C_R   0.146338 0.169871 0.943499 -0.184438
C49   C     C_R   0.618487 0.349289 0.896465 -0.075926
C50   C     C_R   0.381337 0.650403 0.103609 -0.083727
C51   C     C_R   0.381513 0.349289 0.103535 -0.075927
C52   C     C_R   0.618663 0.650403 0.896391 -0.083726
C53   C     C_R   0.118487 0.849289 0.896465 -0.075926
C54   C     C_R   0.881337 0.150403 0.103609 -0.083726
C55   C     C_R   0.881513 0.849289 0.103535 -0.075926
C56   C     C_R   0.118663 0.150403 0.896391 -0.083726
C57   C     C_R   0.633787 0.321715 0.812494 -0.290671
C58   C     C_R   0.366073 0.678142 0.187473 -0.286190
C59   C     C_R   0.366213 0.321715 0.187506 -0.290672
C60   C     C_R   0.633927 0.678142 0.812527 -0.286190
C61   C     C_R   0.133787 0.821715 0.812494 -0.290672
C62   C     C_R   0.866073 0.178142 0.187473 -0.286190
C63   C     C_R   0.866213 0.821715 0.187506 -0.290671
C64   C     C_R   0.133927 0.178142 0.812527 -0.286191
C65   C     C_R   0.675445 0.272835 0.774390 -0.160204
C66   C     C_R   0.324185 0.726658 0.225706 -0.178874
C67   C     C_R   0.324555 0.272835 0.225610 -0.160204
C68   C     C_R   0.675815 0.726658 0.774294 -0.178874
C69   C     C_R   0.175445 0.772835 0.774390 -0.160204
C70   C     C_R   0.824185 0.226658 0.225706 -0.178874
C71   C     C_R   0.824555 0.772835 0.225610 -0.160205
C72   C     C_R   0.175815 0.226658 0.774294 -0.178874
C73   C     C_R   0.697836 0.242840 0.826935 0.472849
C74   C     C_R   0.301449 0.756126 0.173378 0.477186
C75   C     C_R   0.302164 0.242840 0.173065 0.472849
C76   C     C_R   0.698551 0.756126 0.826622 0.477185
C77   C     C_R   0.197836 0.742840 0.826935 0.472849
C78   C     C_R   0.801449 0.256126 0.173378 0.477185
C79   C     C_R   0.802164 0.742840 0.173065 0.472849
C80   C     C_R   0.198551 0.256126 0.826622 0.477185
C81   C     C_R   0.686058 0.276184 0.909514 0.037692
C82   C     C_R   0.313283 0.722626 0.090864 0.060946
C83   C     C_R   0.313942 0.276184 0.090486 0.037692
C84   C     C_R   0.686717 0.722626 0.909136 0.060945
C85   C     C_R   0.186058 0.776184 0.909514 0.037692
C86   C     C_R   0.813283 0.222626 0.090864 0.060946
C87   C     C_R   0.813942 0.776184 0.090486 0.037692
C88   C     C_R   0.186717 0.222626 0.909136 0.060944
C89   C     C_R   0.698703 0.128452 0.511189 0.950168
C90   C     C_R   0.299906 0.871087 0.492635 0.921851
C91   C     C_R   0.301297 0.128452 0.488811 0.950168
C92   C     C_R   0.700094 0.871087 0.507365 0.921851
C93   C     C_R   0.198703 0.628452 0.511189 0.950168
C94   C     C_R   0.799906 0.371086 0.492635 0.921851
C95   C     C_R   0.801296 0.628452 0.488811 0.950168
C96   C     C_R   0.200094 0.371086 0.507365 0.921851
C97   C     C_R   0.075936 0.097395 0.932040 0.925652
C98   C     C_R   0.924072 0.902573 0.067964 0.937432
C99   C     C_R   0.924064 0.097395 0.067960 0.925652
C100  C     C_R   0.075928 0.902573 0.932035 0.937432
C101  C     C_R   0.575936 0.597395 0.932040 0.925652
C102  C     C_R   0.424072 0.402573 0.067964 0.937432
C103  C     C_R   0.424064 0.597395 0.067960 0.925652
C104  C     C_R   0.575928 0.402573 0.932035 0.937432
C105  C     C_R   0.551637 0.999226 0.492579 -0.132288
C106  C     C_R   0.448363 0.999226 0.507421 -0.132288
C107  C     C_R   0.051637 0.499226 0.492579 -0.132288
C108  C     C_R   0.948363 0.499226 0.507421 -0.132288
C109  C     C_R   0.524967 0.065090 0.499704 0.057843
C110  C     C_R   0.474702 0.933147 0.501218 0.039722
C111  C     C_R   0.475033 0.065090 0.500295 0.057844
C112  C     C_R   0.525298 0.933147 0.498782 0.039723
C113  C     C_R   0.024967 0.565090 0.499705 0.057843
C114  C     C_R   0.974702 0.433147 0.501218 0.039722
C115  C     C_R   0.975033 0.565090 0.500295 0.057844
C116  C     C_R   0.025298 0.433147 0.498782 0.039723
C117  C     C_R   0.629765 0.934399 0.481997 -0.110191
C118  C     C_R   0.371382 0.064793 0.514615 -0.112307
C119  C     C_R   0.370235 0.934399 0.518003 -0.110192
C120  C     C_R   0.628618 0.064793 0.485385 -0.112307
C121  C     C_R   0.129765 0.434399 0.481997 -0.110191
C122  C     C_R   0.871382 0.564793 0.514615 -0.112308
C123  C     C_R   0.870235 0.434399 0.518003 -0.110191
C124  C     C_R   0.128618 0.564793 0.485385 -0.112308
C125  C     C_R   0.678812 0.935523 0.486442 -0.186389
C126  C     C_R   0.322796 0.063891 0.508816 -0.112461
C127  C     C_R   0.321188 0.935523 0.513558 -0.186389
C128  C     C_R   0.677204 0.063891 0.491183 -0.112461
C129  C     C_R   0.178812 0.435523 0.486442 -0.186389
C130  C     C_R   0.822796 0.563891 0.508817 -0.112461
C131  C     C_R   0.821188 0.435523 0.513558 -0.186389
C132  C     C_R   0.177204 0.563891 0.491183 -0.112461
C133  C     C_R   0.705314 0.000219 0.478495 0.364427
C134  C     C_R   0.294686 0.000219 0.521505 0.364427
C135  C     C_R   0.205314 0.500219 0.478495 0.364427
C136  C     C_R   0.794686 0.500219 0.521505 0.364427
C137  C     C_R   0.603108 0.999444 0.487857 -0.015173
C138  C     C_R   0.396891 0.999444 0.512143 -0.015173
C139  C     C_R   0.103108 0.499444 0.487857 -0.015173
C140  C     C_R   0.896891 0.499444 0.512143 -0.015173
C141  C     C_R   0.105609 0.370812 0.472937 0.243050
C142  C     C_R   0.895912 0.628419 0.522654 0.268180
C143  C     C_R   0.894391 0.370812 0.527062 0.243050
C144  C     C_R   0.104088 0.628419 0.477346 0.268180
C145  C     C_R   0.605609 0.870812 0.472938 0.243051
C146  C     C_R   0.395912 0.128419 0.522654 0.268177
C147  C     C_R   0.394391 0.870812 0.527063 0.243051
C148  C     C_R   0.604088 0.128419 0.477346 0.268180
H1    H     H_    0.789926 0.307808 0.850363 0.233574
H2    H     H_    0.209401 0.690757 0.150071 0.243842
H3    H     H_    0.210074 0.307808 0.149637 0.233574
H4    H     H_    0.790599 0.690757 0.849929 0.243842
H5    H     H_    0.289926 0.807808 0.850363 0.233574
H6    H     H_    0.709401 0.190757 0.150071 0.243842
H7    H     H_    0.710074 0.807808 0.149637 0.233574
H8    H     H_    0.290599 0.190757 0.849929 0.243842
H9    H     H_    0.636297 0.355047 0.007163 0.192302
H10   H     H_    0.363386 0.644084 0.993089 0.194352
H11   H     H_    0.363702 0.355047 0.992837 0.192303
H12   H     H_    0.636614 0.644084 0.006911 0.194352
H13   H     H_    0.136297 0.855047 0.007163 0.192302
H14   H     H_    0.863386 0.144084 0.993089 0.194352
H15   H     H_    0.863702 0.855047 0.992837 0.192302
H16   H     H_    0.136614 0.144084 0.006911 0.194352
H17   H     H_    0.614871 0.341639 0.774502 0.204854
H18   H     H_    0.385228 0.658643 0.225279 0.206819
H19   H     H_    0.385129 0.341639 0.225497 0.204854
H20   H     H_    0.614772 0.658643 0.774721 0.206819
H21   H     H_    0.114871 0.841639 0.774502 0.204854
H22   H     H_    0.885228 0.158643 0.225279 0.206819
H23   H     H_    0.885129 0.841639 0.225497 0.204854
H24   H     H_    0.114772 0.158643 0.774721 0.206819
O1    O     O_R   0.746490 0.236330 0.638080 -0.505922
O2    O     O_R   0.253510 0.763670 0.361920 -0.499008
O3    O     O_R   0.253510 0.236330 0.361920 -0.505922
O4    O     O_R   0.746490 0.763670 0.638080 -0.499008
O5    O     O_R   0.246490 0.736330 0.638080 -0.505922
O6    O     O_R   0.753510 0.263670 0.361920 -0.499008
O7    O     O_R   0.753510 0.736330 0.361920 -0.505922
O8    O     O_R   0.246490 0.263670 0.638080 -0.499008
O9    O     O_R   0.674170 0.186160 0.516270 -0.616244
O10   O     O_R   0.325830 0.813840 0.483730 -0.610278
O11   O     O_R   0.325830 0.186160 0.483730 -0.616245
O12   O     O_R   0.674170 0.813840 0.516270 -0.610278
O13   O     O_R   0.174170 0.686160 0.516270 -0.616244
O14   O     O_R   0.825830 0.313840 0.483730 -0.610278
O15   O     O_R   0.825830 0.686160 0.483730 -0.616244
O16   O     O_R   0.174170 0.313840 0.516270 -0.610278
O17   O     O_R   0.739960 0.127620 0.525000 -0.541797
O18   O     O_R   0.260040 0.872380 0.475000 -0.578717
O19   O     O_R   0.260040 0.127620 0.475000 -0.541796
O20   O     O_R   0.739960 0.872380 0.525000 -0.578717
O21   O     O_R   0.239960 0.627620 0.525000 -0.541797
O22   O     O_R   0.760040 0.372380 0.475000 -0.578717
O23   O     O_R   0.760040 0.627620 0.475000 -0.541797
O24   O     O_R   0.239960 0.372380 0.525000 -0.578717
O25   O     O_R   0.680700 0.294870 0.629350 -0.663835
O26   O     O_R   0.319300 0.705130 0.370650 -0.646908
O27   O     O_R   0.319300 0.294870 0.370650 -0.663836
O28   O     O_R   0.680700 0.705130 0.629350 -0.646908
O29   O     O_R   0.180700 0.794870 0.629350 -0.663835
O30   O     O_R   0.819300 0.205130 0.370650 -0.646908
O31   O     O_R   0.819300 0.794870 0.370650 -0.663835
O32   O     O_R   0.180700 0.205130 0.629350 -0.646908
O33   O     O_R   0.062020 0.072840 0.007170 -0.618217
O34   O     O_R   0.937980 0.927160 0.992830 -0.615792
O35   O     O_R   0.937980 0.072840 0.992830 -0.618217
O36   O     O_R   0.062020 0.927160 0.007170 -0.615793
O37   O     O_R   0.562020 0.572840 0.007170 -0.618217
O38   O     O_R   0.437980 0.427160 0.992830 -0.615792
O39   O     O_R   0.437980 0.572840 0.992830 -0.618217
O40   O     O_R   0.562020 0.427160 0.007170 -0.615793
O41   O     O_R   0.947860 0.073950 0.109290 -0.620015
O42   O     O_R   0.052140 0.926050 0.890710 -0.619205
O43   O     O_R   0.052140 0.073950 0.890710 -0.620016
O44   O     O_R   0.947860 0.926050 0.109290 -0.619205
O45   O     O_R   0.447860 0.573950 0.109290 -0.620015
O46   O     O_R   0.552140 0.426050 0.890710 -0.619205
O47   O     O_R   0.552140 0.573950 0.890710 -0.620016
O48   O     O_R   0.447860 0.426050 0.109290 -0.619205
Zn1   Zn    Zn3+2 0.792340 0.208750 0.507670 1.186849
Zn2   Zn    Zn3+2 0.207660 0.791250 0.492330 1.149513
Zn3   Zn    Zn3+2 0.207660 0.208750 0.492330 1.186849
Zn4   Zn    Zn3+2 0.792340 0.791250 0.507670 1.149513
Zn5   Zn    Zn3+2 0.292340 0.708750 0.507670 1.186849
Zn6   Zn    Zn3+2 0.707660 0.291250 0.492330 1.149512
Zn7   Zn    Zn3+2 0.707660 0.708750 0.492330 1.186849
Zn8   Zn    Zn3+2 0.292340 0.291250 0.507670 1.149512
Zn9   Zn    Zn3+2 0.505960 0.500000 0.080520 1.034816
Zn10  Zn    Zn3+2 0.494040 0.500000 0.919480 1.034816
Zn11  Zn    Zn3+2 0.005960 1.000000 0.080520 1.034816
Zn12  Zn    Zn3+2 0.994040 1.000000 0.919480 1.034815
O49   O     O_3   0.758821 0.002490 0.458032 -0.707257
H25   H     H_    0.778508 0.964702 0.412305 0.334328
O50   O     O_3   0.241178 0.002490 0.541968 -0.707256
H26   H     H_    0.221492 0.964702 0.587695 0.334328
O51   O     O_3   0.258821 0.502490 0.458032 -0.707257
H27   H     H_    0.278508 0.464701 0.412305 0.334328
O52   O     O_3   0.741178 0.502490 0.541968 -0.707257
H28   H     H_    0.721492 0.464701 0.587695 0.334328
S1    S     S_3+6 0.141792 0.312997 0.379794 0.085907
O53   O     O_2   0.143196 0.238605 0.413299 -0.215138
O54   O     O_2   0.113452 0.309022 0.324638 -0.196081
O55   O     O_3   0.204806 0.344005 0.314450 -0.604249
H29   H     H_    0.200337 0.389158 0.287719 0.352883
S2    S     S_3+6 0.860224 0.686609 0.615859 0.074934
O56   O     O_2   0.803395 0.660407 0.673601 -0.319196
O57   O     O_2   0.887895 0.688065 0.672191 -0.244979
O58   O     O_3   0.860046 0.770497 0.578535 -0.488862
H30   H     H_    0.892520 0.794192 0.574192 0.359622
S3    S     S_3+6 0.858208 0.312997 0.620206 0.085907
O59   O     O_2   0.856804 0.238605 0.586701 -0.215138
O60   O     O_2   0.886548 0.309022 0.675362 -0.196081
O61   O     O_3   0.795194 0.344005 0.685550 -0.604250
H31   H     H_    0.799663 0.389158 0.712281 0.352884
S4    S     S_3+6 0.139776 0.686609 0.384141 0.074934
O62   O     O_2   0.196605 0.660407 0.326398 -0.319196
O63   O     O_2   0.112105 0.688065 0.327809 -0.244978
O64   O     O_3   0.139954 0.770497 0.421465 -0.488863
H32   H     H_    0.107480 0.794192 0.425807 0.359622
S5    S     S_3+6 0.641792 0.812997 0.379794 0.085907
O65   O     O_2   0.643196 0.738605 0.413299 -0.215138
O66   O     O_2   0.613452 0.809022 0.324639 -0.196081
O67   O     O_3   0.704806 0.844005 0.314450 -0.604249
H33   H     H_    0.700336 0.889158 0.287719 0.352883
S6    S     S_3+6 0.360224 0.186609 0.615859 0.074934
O68   O     O_2   0.303395 0.160406 0.673601 -0.319196
O69   O     O_2   0.387896 0.188064 0.672191 -0.244979
O70   O     O_3   0.360046 0.270497 0.578535 -0.488860
H34   H     H_    0.392521 0.294191 0.574190 0.359619
S7    S     S_3+6 0.358208 0.812997 0.620206 0.085907
O71   O     O_2   0.356804 0.738605 0.586701 -0.215138
O72   O     O_2   0.386548 0.809022 0.675362 -0.196081
O73   O     O_3   0.295194 0.844005 0.685550 -0.604250
H35   H     H_    0.299663 0.889158 0.712281 0.352884
S8    S     S_3+6 0.639776 0.186609 0.384141 0.074934
O74   O     O_2   0.696605 0.160407 0.326398 -0.319197
O75   O     O_2   0.612105 0.188065 0.327809 -0.244979
O76   O     O_3   0.639954 0.270497 0.421465 -0.488862
H36   H     H_    0.607480 0.294192 0.425807 0.359622
O77   O     O_3   0.020381 0.309460 0.549620 -0.647405
H37   H     H_    0.044709 0.272673 0.553002 0.362200
O78   O     O_3   0.981885 0.688116 0.446610 -0.673883
H38   H     H_    0.958441 0.724517 0.439999 0.342505
O79   O     O_3   0.979619 0.309460 0.450380 -0.647406
H39   H     H_    0.955291 0.272673 0.446999 0.362200
O80   O     O_3   0.018115 0.688116 0.553390 -0.673883
H40   H     H_    0.041559 0.724517 0.560000 0.342505
O81   O     O_3   0.520381 0.809460 0.549620 -0.647405
H41   H     H_    0.544709 0.772673 0.553002 0.362201
O82   O     O_3   0.481885 0.188116 0.446609 -0.673883
H42   H     H_    0.458441 0.224516 0.439999 0.342503
O83   O     O_3   0.479619 0.809460 0.450380 -0.647406
H43   H     H_    0.455290 0.772673 0.446999 0.362201
O84   O     O_3   0.518115 0.188116 0.553390 -0.673883
H44   H     H_    0.541559 0.224517 0.560000 0.342504
S9    S     S_3+6 0.627225 0.196857 0.099603 0.112424
O85   O     O_2   0.609500 0.173100 0.033403 -0.191843
O86   O     O_2   0.621422 0.134567 0.160231 -0.201390
O87   O     O_3   0.587115 0.264512 0.162256 -0.522399
H45   H     H_    0.603042 0.281086 0.199691 0.376459
S10   S     S_3+6 0.371885 0.802304 0.901169 0.091135
O88   O     O_2   0.407416 0.742666 0.842395 -0.273211
O89   O     O_2   0.376655 0.866033 0.843132 -0.220423
O90   O     O_3   0.392425 0.826746 0.975096 -0.505013
H46   H     H_    0.431635 0.835979 0.937845 0.392594
S11   S     S_3+6 0.372775 0.196857 0.900396 0.112423
O91   O     O_2   0.390499 0.173100 0.966597 -0.191843
O92   O     O_2   0.378578 0.134567 0.839768 -0.201392
O93   O     O_3   0.412885 0.264513 0.837745 -0.522400
H47   H     H_    0.396959 0.281085 0.800307 0.376460
S12   S     S_3+6 0.628115 0.802304 0.098831 0.091136
O94   O     O_2   0.592584 0.742666 0.157605 -0.273211
O95   O     O_2   0.623345 0.866033 0.156868 -0.220423
O96   O     O_3   0.607575 0.826746 0.024904 -0.505012
H48   H     H_    0.568365 0.835979 0.062155 0.392594
S13   S     S_3+6 0.127225 0.696857 0.099603 0.112424
O97   O     O_2   0.109500 0.673100 0.033403 -0.191844
O98   O     O_2   0.121422 0.634567 0.160231 -0.201390
O99   O     O_3   0.087115 0.764512 0.162256 -0.522398
H49   H     H_    0.103042 0.781087 0.199691 0.376458
S14   S     S_3+6 0.871885 0.302304 0.901169 0.091135
O100  O     O_2   0.907416 0.242666 0.842395 -0.273211
O101  O     O_2   0.876655 0.366033 0.843132 -0.220424
O102  O     O_3   0.892425 0.326746 0.975096 -0.505012
H50   H     H_    0.931635 0.335980 0.937845 0.392594
S15   S     S_3+6 0.872775 0.696857 0.900396 0.112424
O103  O     O_2   0.890499 0.673100 0.966597 -0.191844
O104  O     O_2   0.878578 0.634567 0.839769 -0.201390
O105  O     O_3   0.912885 0.764512 0.837744 -0.522399
H51   H     H_    0.896958 0.781086 0.800309 0.376458
S16   S     S_3+6 0.128115 0.302304 0.098831 0.091135
O106  O     O_2   0.092584 0.242666 0.157605 -0.273211
O107  O     O_2   0.123345 0.366033 0.156868 -0.220423
O108  O     O_3   0.107575 0.326746 0.024904 -0.505013
H52   H     H_    0.068365 0.335979 0.062155 0.392594
S17   S     S_3+6 0.733466 0.159488 0.798289 0.093519
O109  O     O_2   0.719916 0.115736 0.737423 -0.253773
O110  O     O_2   0.793095 0.173701 0.752178 -0.217951
O111  O     O_3   0.716355 0.111571 0.892515 -0.511761
H53   H     H_    0.741859 0.070515 0.872728 0.384548
S18   S     S_3+6 0.265313 0.839105 0.202067 0.086284
O112  O     O_2   0.205777 0.824122 0.248793 -0.261185
O113  O     O_2   0.278885 0.883557 0.262390 -0.244472
O114  O     O_3   0.281751 0.886669 0.107832 -0.506638
H54   H     H_    0.255461 0.926812 0.127505 0.380484
S19   S     S_3+6 0.266533 0.159488 0.201711 0.093519
O115  O     O_2   0.280084 0.115736 0.262577 -0.253774
O116  O     O_2   0.206904 0.173701 0.247822 -0.217950
O117  O     O_3   0.283645 0.111571 0.107485 -0.511762
H55   H     H_    0.258141 0.070514 0.127272 0.384549
S20   S     S_3+6 0.734687 0.839105 0.797933 0.086284
O118  O     O_2   0.794223 0.824122 0.751207 -0.261184
O119  O     O_2   0.721115 0.883557 0.737610 -0.244472
O120  O     O_3   0.718249 0.886669 0.892168 -0.506638
H56   H     H_    0.744539 0.926813 0.872495 0.380485
S21   S     S_3+6 0.233466 0.659488 0.798289 0.093519
O121  O     O_2   0.219916 0.615736 0.737423 -0.253774
O122  O     O_2   0.293095 0.673700 0.752178 -0.217950
O123  O     O_3   0.216355 0.611571 0.892515 -0.511762
H57   H     H_    0.241858 0.570514 0.872728 0.384550
S22   S     S_3+6 0.765313 0.339105 0.202067 0.086284
O124  O     O_2   0.705777 0.324122 0.248793 -0.261185
O125  O     O_2   0.778885 0.383557 0.262390 -0.244472
O126  O     O_3   0.781751 0.386669 0.107832 -0.506638
H58   H     H_    0.755461 0.426812 0.127505 0.380484
S23   S     S_3+6 0.766533 0.659488 0.201711 0.093519
O127  O     O_2   0.780084 0.615736 0.262577 -0.253774
O128  O     O_2   0.706905 0.673701 0.247822 -0.217950
O129  O     O_3   0.783645 0.611571 0.107485 -0.511762
H59   H     H_    0.758141 0.570514 0.127272 0.384549
S24   S     S_3+6 0.234687 0.339105 0.797933 0.086284
O130  O     O_2   0.294223 0.324122 0.751207 -0.261182
O131  O     O_2   0.221115 0.383557 0.737610 -0.244472
O132  O     O_3   0.218249 0.386669 0.892168 -0.506638
H60   H     H_    0.244539 0.426812 0.872495 0.380485

loop_
_geom_bond_atom_site_label_1
_geom_bond_atom_site_label_2
_ccdc_geom_bond_type
S14   O101  D    
O24   Zn8   S    
S21   O121  D    
O82   H42   S    
O2    Zn2   S    
C79   C87   A    
S17   O109  D    
C100  O36   A    
C61   C69   A    
C100  O42   A    
C143  S3    S    
C13   C112  A    
C12   O80   S    
S14   O102  S    
O15   Zn4   S    
S7    O71   D    
S4    O64   S    
S24   O130  D    
C30   C38   A    
O73   H35   S    
C45   H13   S    
C107  C113  A    
C7    O31   A    
C142  S2    S    
C27   H3    S    
C40   S11   S    
O42   Zn12  S    
C50   C103  S    
C41   C49   A    
C16   C109  A    
C62   H22   S    
C52   C101  S    
O105  H51   S    
C16   O84   S    
C8    O32   A    
O111  H53   S    
C57   C65   A    
S18   O112  D    
C20   C28   A    
C27   C35   A    
C91   O19   A    
C135  O51   S    
C99   O35   A    
O28   Zn7   S    
C23   C31   A    
S13   O99   S    
C24   C32   A    
C8    O8    A    
O120  H56   S    
S20   O118  D    
C120  C128  A    
C105  C112  A    
C63   C71   A    
C120  C148  A    
S21   O123  S    
C61   H21   S    
O47   Zn10  S    
O19   Zn3   S    
S17   O111  S    
C59   H19   S    
O87   H45   S    
C4    C68   S    
C94   O22   A    
C9    C116  A    
S18   O114  S    
O132  H60   S    
O10   Zn5   S    
C48   H16   S    
S24   O132  S    
O23   Zn7   S    
C17   C25   A    
O21   Zn5   S    
C80   C88   A    
O126  H58   S    
O22   Zn6   S    
C55   C98   S    
C18   C82   S    
O31   Zn4   S    
S23   O129  S    
O117  H55   S    
C97   O43   A    
O108  H52   S    
C30   H6    S    
C126  C134  A    
C23   C36   A    
O3    Zn3   S    
C98   O34   A    
S1    O54   D    
C118  C138  A    
C11   C143  A    
C96   C129  S    
C113  C115  A    
O39   Zn10  S    
C43   C83   A    
C124  C139  A    
C69   C77   A    
C127  C134  A    
C13   C145  A    
C43   C51   A    
C92   C125  S    
C49   C104  S    
C71   C79   A    
O129  H59   S    
O55   H29   S    
C51   C102  S    
C1    O1    A    
O58   H30   S    
S22   O125  D    
O48   Zn9   S    
C108  C115  A    
C43   H11   S    
C109  C111  A    
C5    O29   A    
S5    O65   D    
S22   O124  D    
C66   C74   A    
S20   O120  S    
C49   C57   A    
S12   O94   D    
C124  C132  A    
C25   H1    S    
S1    O53   D    
C52   C60   A    
C59   C67   A    
C32   H8    S    
C53   C61   A    
O67   H33   S    
C55   C63   A    
C95   C130  S    
C147  S7    S    
C56   C64   A    
C93   C132  S    
O49   H25   S    
O41   Zn11  S    
C102  O48   A    
O25   Zn6   S    
C44   C52   A    
C77   C85   A    
O51   H27   S    
S9    O86   D    
O30   Zn1   S    
C56   C97   S    
C19   C83   S    
O123  H57   S    
C106  C111  A    
S10   O89   D    
C7    O7    A    
O43   Zn12  S    
S16   O106  D    
C11   O79   S    
C131  C136  A    
C92   O12   A    
C103  O39   A    
S15   O104  D    
S3    O61   S    
C101  O37   A    
C37   S10   S    
C47   C87   A    
O83   H43   S    
C77   S21   S    
O50   H26   S    
O81   H41   S    
C60   C68   A    
S6    O69   D    
C42   C50   A    
C20   C84   S    
O32   Zn3   S    
C145  S5    S    
C54   C99   S    
O33   Zn11  S    
C67   C75   A    
C104  O40   A    
C90   O18   A    
C105  C109  A    
S2    O56   D    
C22   C30   A    
C119  C138  A    
C1    O25   A    
C94   O14   A    
C2    C66   S    
S6    O70   S    
S5    O67   S    
C114  C116  A    
C68   C76   A    
S12   O96   S    
S11   O93   S    
C121  C139  A    
C122  C140  A    
C72   C80   A    
S19   O117  S    
O40   Zn9   S    
S24   O131  D    
C17   C38   A    
C107  C139  A    
C58   H18   S    
C110  C112  A    
C107  C116  A    
C19   C40   A    
O5    Zn5   S    
O16   Zn3   S    
C4    O28   A    
S8    O74   D    
C14   O82   S    
C117  C125  A    
C89   C128  S    
C34   S13   S    
C6    O6    A    
C25   C33   A    
S2    O58   S    
C119  C127  A    
S7    O73   S    
C91   O11   A    
O52   H28   S    
C18   C26   A    
S16   O108  S    
O1    Zn1   S    
C76   C84   A    
C95   O15   A    
S3    O59   D    
C74   S18   S    
C144  S4    S    
O27   Zn8   S    
C47   C55   A    
S18   O113  D    
O35   Zn12  S    
C57   H17   S    
C119  C147  A    
O44   Zn11  S    
C117  C145  A    
C10   C142  A    
C108  C114  A    
S13   O98   D    
O46   Zn10  S    
C5    C69   S    
S23   O127  D    
S20   O119  D    
C90   C127  S    
C48   C88   A    
O4    Zn4   S    
C79   S23   S    
C78   S22   S    
C47   H15   S    
S14   O100  D    
O96   H48   S    
S21   O122  D    
O70   H34   S    
C76   S20   S    
C15   C110  A    
C42   H10   S    
C74   C82   A    
S17   O110  D    
C53   C100  S    
C21   C85   S    
C8    C72   S    
O34   Zn12  S    
S11   O91   D    
C50   C58   A    
C121  C141  A    
C26   H2    S    
O20   Zn4   S    
S19   O115  D    
C20   C39   A    
C21   C34   A    
C54   C62   A    
O8    Zn8   S    
C141  S1    S    
C10   O78   S    
C64   H24   S    
O79   H39   S    
C108  C140  A    
C63   H23   S    
O80   H40   S    
S8    O76   S    
C41   C81   A    
C46   C54   A    
O38   Zn10  S    
S23   O128  D    
C133  O49   S    
C24   C88   S    
C104  O46   A    
C73   C81   A    
C41   H9    S    
C3    O3    A    
O13   Zn2   S    
C44   H12   S    
O84   H44   S    
C6    C70   S    
O93   H47   S    
C95   O23   A    
C123  C131  A    
C93   O21   A    
C80   S24   S    
C121  C129  A    
C44   C84   A    
O11   Zn8   S    
C31   H7    S    
C36   S15   S    
O9    Zn6   S    
C99   O41   A    
C94   C131  S    
C75   S19   S    
S1    O55   S    
O61   H31   S    
O18   Zn2   S    
O76   H36   S    
S15   O103  D    
C15   C147  A    
C75   C83   A    
C21   C29   A    
C73   S17   S    
S12   O95   D    
C33   S14   S    
C17   C81   S    
C22   C86   S    
O102  H50   S    
C35   S16   S    
C106  C138  A    
O36   Zn11  S    
C96   O24   A    
C28   C36   A    
O90   H46   S    
C4    O4    A    
C136  O52   S    
C29   C37   A    
C89   O17   A    
C120  C137  A    
O12   Zn7   S    
C97   O33   A    
C92   O20   A    
C89   O9    A    
S22   O126  S    
C93   O13   A    
C13   O81   S    
C91   C126  S    
C70   C78   A    
S9    O85   D    
C96   O16   A    
C39   S12   S    
C42   C82   A    
S10   O90   S    
C60   H20   S    
C18   C37   A    
S16   O107  D    
C6    O30   A    
C7    C71   S    
O17   Zn1   S    
S3    O60   D    
C65   C73   A    
C146  S6    S    
C11   C114  A    
C101  O47   A    
O45   Zn9   S    
C58   C66   A    
C90   O10   A    
C3    O27   A    
C134  O50   S    
C19   C27   A    
C48   C56   A    
O26   Zn5   S    
C78   C86   A    
C32   C40   A    
C129  C135  A    
O7    Zn7   S    
C62   C70   A    
C130  C136  A    
O29   Zn2   S    
C26   C34   A    
C14   C111  A    
S2    O57   D    
C24   C35   A    
C118  C146  A    
S5    O66   D    
C9    C141  A    
C102  O38   A    
O77   H37   S    
C117  C137  A    
C123  C140  A    
C12   C144  A    
S4    O63   D    
S11   O92   D    
C45   C85   A    
S19   O116  D    
C1    C65   S    
S4    O62   D    
C148  S8    S    
C9    O77   S    
O37   Zn9   S    
C5    O5    A    
C103  O45   A    
S8    O75   D    
C28   H4    S    
S9    O87   S    
C51   C59   A    
C122  C142  A    
O64   H32   S    
O78   H38   S    
C29   H5    S    
C12   C113  A    
C106  C110  A    
C125  C133  A    
S7    O72   D    
C22   C33   A    
C98   O44   A    
S10   O88   D    
C15   O83   S    
C2    O26   A    
O14   Zn1   S    
C3    C67   S    
S15   O105  S    
C14   C146  A    
C16   C148  A    
O99   H49   S    
C105  C137  A    
C128  C133  A    
C2    O2    A    
C132  C135  A    
C31   C39   A    
C64   C72   A    
S13   O97   D    
O6    Zn6   S    
S6    O68   D    
C45   C53   A    
C38   S9    S    
C46   H14   S    
C123  C143  A    
C124  C144  A    
C23   C87   S    
C118  C126  A    
O114  H54   S    
C122  C130  A    
C10   C115  A    
C46   C86   A    
