data_mof_unit_11967.cif
_audit_creation_date              2012-12-10T20:27:51-0500
_audit_creation_method            fapswitch 2.2
_symmetry_space_group_name_H-M    P1
_symmetry_Int_Tables_number       1
_space_group_crystal_system       triclinic
_cell_length_a                    12.849966
_cell_length_b                    10.721944
_cell_length_c                    9.884913
_cell_angle_alpha                 89.480366
_cell_angle_beta                  97.119662
_cell_angle_gamma                 90.456423
_cell_volume                      1351.32110103

loop_
_atom_site_label
_atom_site_type_symbol
_atom_type_description
_atom_site_fract_x
_atom_site_fract_y
_atom_site_fract_z
_atom_type_partial_charge
C1    C     C_R   0.498980 0.260405 0.500220 0.896379
C2    C     C_R   0.028859 0.530772 0.558454 0.084074
C3    C     C_R   0.971463 0.477657 0.441271 0.121833
C4    C     C_R   0.864613 0.465207 0.434580 -0.287448
C5    C     C_R   0.870242 0.550089 0.662801 -0.353365
C6    C     C_R   0.979171 0.566351 0.671082 0.468290
C7    C     C_R   0.539841 0.062545 0.615640 0.025308
C8    C     C_R   0.501651 0.128783 0.498838 -0.099501
C9    C     C_R   0.471197 0.067392 0.375903 -0.287972
C10   C     C_R   0.469809 0.938684 0.372424 0.199815
C11   C     C_R   0.500780 0.872027 0.494665 -0.179345
C12   C     C_R   0.298283 0.500587 0.473019 0.869695
C13   C     C_R   0.540156 0.934734 0.612984 -0.061922
C14   C     C_3   0.505290 0.926150 0.752895 0.358575
C15   C     C_3   0.506468 0.067672 0.755403 -0.524909
C16   C     C_R   0.411260 0.527217 0.057275 0.183077
C17   C     C_R   0.590378 0.483018 0.086304 -0.122717
C18   C     C_R   0.590437 0.483540 0.942654 -0.106932
C19   C     C_R   0.410623 0.524847 0.914993 0.137211
C20   C     C_3   0.308231 0.454332 0.898913 -0.020740
C21   C     C_3   0.309214 0.460572 0.052545 -0.491129
C22   C     C_R   0.497822 0.739776 0.498520 0.889550
C23   C     C_R   0.701807 0.499929 0.526822 0.909649
C24   C     C_R   0.814104 0.503671 0.543253 -0.098332
C25   C     C_R   0.186129 0.499797 0.455754 -0.062502
C26   C     C_R   0.021749 0.437289 0.332123 -0.188489
C27   C     C_R   0.129683 0.446402 0.340468 -0.207842
C28   C     C_R   0.135752 0.546471 0.560868 -0.253186
H1    H     H_    0.820547 0.425803 0.343999 0.156527
H2    H     H_    0.427024 0.107832 0.755198 0.178698
H3    H     H_    0.567664 0.109178 0.831389 0.210838
H4    H     H_    0.663082 0.467175 0.151336 0.142166
H5    H     H_    0.663081 0.468601 0.900680 0.139667
H6    H     H_    0.243213 0.507172 0.841564 0.190127
H7    H     H_    0.247141 0.522034 0.083117 0.180837
H8    H     H_    0.316703 0.368839 0.106308 0.216064
H9    H     H_    0.828827 0.574461 0.747580 0.151329
H10   H     H_    0.978073 0.395844 0.242610 0.136144
H11   H     H_    0.168914 0.408829 0.259300 0.150571
H12   H     H_    0.180626 0.594324 0.644818 0.182528
H13   H     H_    0.443120 0.118690 0.283675 0.172301
H14   H     H_    0.424625 0.886901 0.749999 0.102430
N1    N     N_R   0.499290 0.499140 0.142710 -0.098358
N2    N     N_R   0.499290 0.499180 0.857070 -0.105532
O1    O     O_R   0.500010 0.316790 0.614690 -0.631398
O2    O     O_R   0.500000 0.316760 0.385350 -0.624767
O3    O     O_R   0.346360 0.499990 0.595720 -0.646137
O4    O     O_R   0.346350 0.499960 0.366370 -0.622357
O5    O     O_R   0.500000 0.683240 0.614650 -0.613141
O6    O     O_R   0.499990 0.683210 0.385310 -0.584413
O7    O     O_R   0.653650 0.500040 0.633630 -0.630168
O8    O     O_R   0.653640 0.500010 0.404280 -0.633138
Zn1   Zn    Zn3+2 0.500010 0.500020 0.653130 0.939103
Zn2   Zn    Zn3+2 0.499990 0.499980 0.346870 0.947502
O9    O     O_3   0.574672 0.869647 0.859393 -0.601310
C29   C     C_3   0.681903 0.875056 0.840139 0.165436
H15   H     H_    0.706664 0.970938 0.813756 0.133871
H16   H     H_    0.697686 0.809376 0.758704 0.146023
C30   C     C_3   0.747456 0.836240 0.972237 -0.894263
H17   H     H_    0.730525 0.737447 0.997021 0.254954
H18   H     H_    0.831958 0.846754 0.961586 0.199787
H19   H     H_    0.729217 0.896473 0.056914 0.262627
N3    N     N_2   0.317464 0.327341 0.852333 -0.278197
H20   H     H_    0.355297 0.320587 0.766967 0.276438
C31   C     C_3   0.220625 0.256324 0.839184 -0.795443
H21   H     H_    0.236468 0.158507 0.812468 0.225298
H22   H     H_    0.163536 0.297104 0.757283 0.251044
H23   H     H_    0.186170 0.255445 0.936854 0.253527
O10   O     O_3   0.040777 0.603832 0.790033 -0.638582
C32   C     C_3   0.994472 0.700948 0.856737 0.084580
H24   H     H_    0.937098 0.661331 0.921115 0.154404
H25   H     H_    0.955406 0.770625 0.783166 0.133796
C33   C     C_3   0.079512 0.768334 0.949897 -0.846729
H26   H     H_    0.139229 0.807963 0.889182 0.249432
H27   H     H_    0.044391 0.845265 0.003082 0.208937
H28   H     H_    0.118231 0.702398 0.027242 0.256617
N4    N     N_2   0.426416 0.878153 0.250471 -0.303614
H29   H     H_    0.355075 0.914332 0.209669 0.209729
C34   C     C_3   0.497838 0.868287 0.149042 -0.642705
H30   H     H_    0.516539 0.962330 0.109956 0.232236
H31   H     H_    0.460614 0.811332 0.062786 0.246021
H32   H     H_    0.571551 0.821786 0.192746 0.251535

loop_
_geom_bond_atom_site_label_1
_geom_bond_atom_site_label_2
_ccdc_geom_bond_type
C6    O10   S    
O9    C29   S    
N3    C31   S    
C16   C21   S    
C5    H9    S    
C1    C8    S    
C33   H26   S    
C19   C20   S    
C12   O4    A    
C7    C8    A    
C21   H8    S    
N4    H29   S    
C25   C28   A    
O4    Zn2   S    
C26   C27   A    
O6    Zn2   S    
C5    C6    A    
C4    C24   A    
C1    O2    A    
C28   H12   S    
C29   H15   S    
N2    Zn1   S    
C27   H11   S    
C8    C9    A    
C31   H22   S    
C23   C24   S    
C32   H24   S    
C9    C10   A    
C4    H1    S    
C14   H14   S    
C20   H6    S    
C7    C15   S    
C14   O9    S    
O1    Zn1   S    
C30   H17   S    
C13   C14   S    
C33   H27   S    
C2    C6    A    
C12   O3    A    
C10   N4    S    
O8    Zn2   S    
N4    C34   S    
C30   H18   S    
C22   O6    A    
C34   H31   S    
C26   H10   S    
N3    H20   S    
O7    Zn1   S    
C17   N1    A    
C18   N2    A    
N1    Zn2   S    
C23   O7    A    
C31   H23   S    
O2    Zn2   S    
C32   C33   S    
C17   C18   A    
C16   N1    A    
C22   O5    A    
C33   H28   S    
C3    C4    A    
C19   N2    A    
C15   H2    S    
C30   H19   S    
C3    C26   A    
C34   H32   S    
C32   H25   S    
C15   H3    S    
C21   H7    S    
C25   C27   A    
C11   C22   S    
C9    H13   S    
C29   C30   S    
O3    Zn1   S    
C12   C25   S    
C20   N3    S    
C2    C3    A    
C11   C13   A    
C1    O1    A    
C23   O8    A    
C5    C24   A    
C16   C19   A    
O5    Zn1   S    
C29   H16   S    
O10   C32   S    
C18   H5    S    
C10   C11   A    
C34   H30   S    
C7    C13   A    
C20   C21   S    
C31   H21   S    
C17   H4    S    
C14   C15   S    
C2    C28   A    
