data_mof_unit_26298.cif
_audit_creation_date              2013-03-05T16:02:29-0500
_audit_creation_method            fapswitch 2.2
_symmetry_space_group_name_H-M    P1
_symmetry_Int_Tables_number       1
_space_group_crystal_system       triclinic
_cell_length_a                    16.978602
_cell_length_b                    7.252651
_cell_length_c                    14.852696
_cell_angle_alpha                 89.530826
_cell_angle_beta                  94.389593
_cell_angle_gamma                 89.657041
_cell_volume                      1823.49294246

loop_
_atom_site_label
_atom_site_type_symbol
_atom_site_description
_atom_site_fract_x
_atom_site_fract_y
_atom_site_fract_z
_atom_type_partial_charge
O1    O     O_R   0.663460 0.361760 0.165970 -0.584785
O2    O     O_R   0.336540 0.638240 0.834030 -0.584785
O3    O     O_R   0.836540 0.861760 0.334030 -0.560706
O4    O     O_R   0.163460 0.138240 0.665970 -0.560686
O5    O     O_R   0.827100 0.689870 0.163730 -0.560076
O6    O     O_R   0.172900 0.310130 0.836270 -0.560094
O7    O     O_R   0.672900 0.189870 0.336270 -0.602102
O8    O     O_R   0.327100 0.810130 0.663730 -0.602100
C1    C     C_R   0.854721 0.523332 0.145401 0.950815
C2    C     C_R   0.145280 0.476667 0.854599 0.950814
C3    C     C_R   0.645157 0.023379 0.354380 0.961533
C4    C     C_R   0.354842 0.976621 0.645620 0.961498
O9    O     O_R   0.663490 0.691370 0.155500 -0.560191
O10   O     O_R   0.336510 0.308630 0.844500 -0.560183
O11   O     O_R   0.836510 0.191370 0.344500 -0.593406
O12   O     O_R   0.163490 0.808630 0.655500 -0.593405
O13   O     O_R   0.671770 0.863320 0.325740 -0.553888
O14   O     O_R   0.328230 0.136680 0.674260 -0.553892
O15   O     O_R   0.828230 0.363320 0.174260 -0.588176
O16   O     O_R   0.171770 0.636680 0.825740 -0.588162
C5    C     C_R   0.639359 0.523533 0.129332 0.870163
C6    C     C_R   0.360643 0.476468 0.870665 0.870163
C7    C     C_R   0.861478 0.021337 0.369474 0.901840
C8    C     C_R   0.138522 0.978662 0.630526 0.901848
H1    H     H_    0.086572 0.884310 0.207610 0.179165
H2    H     H_    0.913431 0.115535 0.792413 0.179185
H3    H     H_    0.416116 0.439724 0.298331 0.179757
H4    H     H_    0.583869 0.560427 0.701661 0.179789
O17   O     O_3   0.752910 0.528800 0.305860 -0.265516
O18   O     O_3   0.247090 0.471200 0.694140 -0.265506
O19   O     O_3   0.747090 0.028800 0.194140 -0.265257
O20   O     O_3   0.252910 0.971200 0.805860 -0.265238
V1    V     V_3+5 0.749460 0.803010 0.239640 1.256575
V2    V     V_3+5 0.250540 0.196990 0.760360 1.256591
V3    V     V_3+5 0.750540 0.303010 0.260360 1.205244
V4    V     V_3+5 0.249460 0.696990 0.739640 1.205259
C9    C     C_1   0.469429 0.994534 0.530859 0.109727
C10   C     C_1   0.530572 0.005466 0.469142 0.109743
C11   C     C_1   0.030665 0.494422 0.969274 0.100853
C12   C     C_1   0.969334 0.505577 0.030725 0.100874
C13   C     C_R   0.013281 0.941333 0.313594 -0.244483
C14   C     C_R   0.986718 0.058591 0.686418 -0.244458
C15   C     C_R   0.487755 0.477934 0.188877 -0.234669
C16   C     C_R   0.512240 0.522173 0.811116 -0.234673
C17   C     C_R   0.085419 0.911064 0.279144 -0.162024
C18   C     C_R   0.914582 0.088830 0.720874 -0.162016
C19   C     C_R   0.416926 0.445405 0.225503 -0.176901
C20   C     C_R   0.583067 0.554694 0.774489 -0.176963
C21   C     C_R   0.155374 0.925303 0.333568 0.408382
C22   C     C_R   0.844626 0.074634 0.666448 0.408384
C23   C     C_R   0.348246 0.417659 0.170630 0.421204
C24   C     C_R   0.651761 0.582324 0.829357 0.421235
C25   C     C_R   0.151624 0.964413 0.426789 -0.249668
C26   C     C_R   0.848374 0.035589 0.573219 -0.249603
C27   C     C_R   0.351190 0.427324 0.075291 -0.251920
C28   C     C_R   0.648820 0.572628 0.924698 -0.251881
C29   C     C_R   0.076788 0.976975 0.466189 0.047183
C30   C     C_R   0.923209 0.023023 0.533817 0.047134
C31   C     C_R   0.424241 0.464934 0.034936 0.017207
C32   C     C_R   0.575766 0.535060 0.965055 0.017169
C33   C     C_R   0.006660 0.974750 0.406435 0.131734
C34   C     C_R   0.993338 0.025225 0.593572 0.131724
C35   C     C_R   0.494012 0.485834 0.094411 0.152194
C36   C     C_R   0.505990 0.514202 0.905582 0.152205
C37   C     C_R   0.069210 0.994226 0.561541 -0.230566
C38   C     C_R   0.930789 0.005772 0.438464 -0.230590
C39   C     C_R   0.430712 0.483067 0.939045 -0.234795
C40   C     C_R   0.569293 0.516938 0.060947 -0.234808
C41   C     C_1   0.417418 0.985684 0.583213 -0.252133
C42   C     C_1   0.582582 0.014316 0.416787 -0.252084
C43   C     C_1   0.082781 0.485496 0.917071 -0.247500
C44   C     C_1   0.917219 0.514503 0.082929 -0.247467
H5    H     H_    0.962543 0.936217 0.265146 0.147862
H6    H     H_    0.037457 0.063682 0.734866 0.147849
H7    H     H_    0.537804 0.498244 0.237212 0.145609
H8    H     H_    0.462187 0.501917 0.762782 0.145621
C45   C     C_2   0.226250 0.006682 0.478195 0.609068
H9    H     H_    0.270832 0.899722 0.489026 -0.001723
O21   O     O_2   0.240259 0.164491 0.502148 -0.538376
C46   C     C_2   0.773746 0.993399 0.521802 0.609056
H10   H     H_    0.729193 0.100418 0.510947 -0.001696
O22   O     O_2   0.759704 0.835596 0.497864 -0.538371
C47   C     C_2   0.276484 0.402721 0.021166 0.646958
H11   H     H_    0.240836 0.522695 0.001577 -0.050665
O23   O     O_2   0.253787 0.247893 0.001191 -0.518007
C48   C     C_2   0.723526 0.597167 0.978830 0.646981
H12   H     H_    0.759151 0.477163 0.998426 -0.050580
O24   O     O_2   0.746245 0.751977 0.998795 -0.518055
N1    N     N_R   0.770824 0.095497 0.708338 0.255615
O25   O     O_R   0.769064 0.186877 0.783242 -0.366082
O26   O     O_R   0.707896 0.005229 0.679818 -0.371702
N2    N     N_R   0.229177 0.904430 0.291685 0.255630
O27   O     O_R   0.230948 0.812948 0.216812 -0.366029
O28   O     O_R   0.292085 0.994815 0.320162 -0.371647
N3    N     N_R   0.724107 0.615476 0.786303 0.255791
O29   O     O_R   0.731404 0.556721 0.704738 -0.344247
O30   O     O_R   0.778732 0.722617 0.822480 -0.345172
N4    N     N_R   0.275906 0.384389 0.213670 0.255742
O31   O     O_R   0.268546 0.443314 0.295193 -0.344231
O32   O     O_R   0.221384 0.276902 0.177553 -0.345033

loop_
_geom_bond_atom_site_label_1
_geom_bond_atom_site_label_2
_geom_bond_distance
_ccdc_geom_bond_type
C30   C34   1.429822 A    
C16   C20   1.378097 A    
C4    C41   1.463855 S    
C10   C42   1.222121 T    
O1    C5    1.337859 A    
C27   C31   1.444712 A    
O3    C7    1.333275 A    
N3    O29   1.302064 A    
C1    C44   1.463531 S    
C13   C33   1.414827 A    
C3    C42   1.463855 S    
C15   C35   1.415898 A    
C45   H9    1.082999 S    
C16   C36   1.415883 A    
O7    C3    1.331600 A    
C22   C26   1.421735 A    
C7    C38   1.503160 S    
C9    C41   1.222120 T    
C14   C18   1.380094 A    
O4    C8    1.333272 A    
C48   O24   1.220857 D    
O3    V1    2.008231 S    
O2    V4    1.999586 S    
C24   N3    1.448031 S    
O8    V4    1.976742 S    
C16   H8    1.081199 S    
C31   C39   1.441824 A    
C33   C38   1.424236 A    
C30   C38   1.438264 A    
H4    C20   1.083287 S    
C2    O16   1.326814 A    
O5    V1    1.977858 S    
O2    C6    1.337852 A    
O19   V1    1.765474 S    
N1    O26   1.301230 A    
C14   C34   1.414821 A    
C2    C43   1.463530 S    
C23   N4    1.447982 S    
O11   C7    1.341730 A    
O12   C8    1.341723 A    
O13   V1    1.956300 S    
O11   V3    2.009475 S    
C1    O15   1.326813 A    
C26   C46   1.463791 S    
C45   O21   1.220685 D    
C15   H7    1.081208 S    
O4    V2    2.008230 S    
C14   H6    1.080373 S    
C36   C39   1.424943 A    
C46   O22   1.220681 D    
C11   C12   1.438621 S    
C25   C29   1.441700 A    
C48   H12   1.081976 S    
C19   C23   1.387271 A    
O6    V2    1.977858 S    
O20   V2    1.765475 S    
C25   C45   1.463812 S    
O5    C1    1.330811 A    
C9    C10   1.438639 S    
C22   N1    1.448709 S    
C28   C48   1.461469 S    
C47   H11   1.081993 S    
C17   C21   1.389487 A    
O8    C4    1.331600 A    
N2    O28   1.301232 A    
O9    C5    1.337909 A    
O14   V2    1.956300 S    
C8    C37   1.503145 S    
C47   O23   1.220903 D    
N4    O31   1.302064 A    
N4    O32   1.300730 A    
C5    C40   1.505211 S    
C21   N2    1.448688 S    
C27   C47   1.461466 S    
H1    C17   1.083235 S    
O1    V3    1.999586 S    
C26   C30   1.441707 A    
H3    C19   1.083285 S    
O17   V3    1.776156 S    
C35   C40   1.424940 A    
C3    O13   1.328128 A    
C11   C43   1.222088 T    
C12   C44   1.222088 T    
C34   C37   1.424229 A    
O7    V3    1.976745 S    
C29   C37   1.438239 A    
C46   H10   1.083004 S    
O10   V2    2.024704 S    
N3    O30   1.300725 A    
C29   C33   1.429814 A    
C18   C22   1.389487 A    
C31   C35   1.432068 A    
O18   V4    1.776154 S    
C32   C36   1.432075 A    
O10   C6    1.337910 A    
O15   V3    1.955148 S    
O12   V4    2.009474 S    
C21   C25   1.421718 A    
N2    O27   1.301839 A    
C23   C27   1.421909 A    
C6    C39   1.505202 S    
O6    C2    1.330810 A    
H2    C18   1.083232 S    
C13   H5    1.080373 S    
O16   V4    1.955147 S    
C28   C32   1.444719 A    
C20   C24   1.387286 A    
C32   C40   1.441846 A    
O9    V1    2.024704 S    
C4    O14   1.328127 A    
C13   C17   1.380107 A    
N1    O25   1.301832 A    
C15   C19   1.378115 A    
C24   C28   1.421950 A    
