data_mof_unit_28690.cif
_audit_creation_date              2012-12-11T17:25:06-0500
_audit_creation_method            fapswitch 2.2
_symmetry_space_group_name_H-M    P1
_symmetry_Int_Tables_number       1
_space_group_crystal_system       triclinic
_cell_length_a                    6.947605
_cell_length_b                    20.433914
_cell_length_c                    24.517338
_cell_angle_alpha                 90.148849
_cell_angle_beta                  90.351459
_cell_angle_gamma                 89.340981
_cell_volume                      3480.34028117

loop_
_atom_site_label
_atom_site_type_symbol
_atom_type_description
_atom_site_fract_x
_atom_site_fract_y
_atom_site_fract_z
_atom_type_partial_charge
O1    O     O_R   0.507280 0.423750 0.460310 -0.536957
O2    O     O_R   0.171030 0.555650 0.437630 -0.541324
O3    O     O_R   0.004080 0.576250 0.539690 -0.543424
C1    C     C_R   0.338981 0.576360 0.422252 0.736620
O4    O     O_R   0.177330 0.422980 0.453960 -0.536718
O5    O     O_R   0.010420 0.442640 0.556140 -0.535636
C2    C     C_R   0.346439 0.398550 0.443617 0.690570
O6    O     O_R   0.500930 0.557360 0.443860 -0.529950
O7    O     O_3   0.340310 0.506600 0.533500 -0.366304
V1    V     V_3+5 0.064140 0.498780 0.493780 1.421594
O8    O     O_R   0.680890 0.444350 0.562370 -0.539045
C3    C     C_R   0.850570 0.424301 0.578101 0.721269
O9    O     O_R   0.674590 0.577020 0.546040 -0.523597
C4    C     C_R   0.842040 0.601527 0.556182 0.735344
V2    V     V_3+5 0.564550 0.501220 0.506220 1.447990
O10   O     O_3   0.838250 0.493400 0.466500 -0.368775
C5    C     C_R   0.979447 0.838486 0.910085 -0.049045
C6    C     C_R   0.843504 0.663428 0.587437 -0.146388
C7    C     C_R   0.079709 0.725357 0.900855 -0.155889
C8    C     C_R   0.057282 0.781333 0.932641 -0.160376
C9    C     C_R   0.923163 0.839239 0.854823 -0.216715
C10   C     C_R   0.947604 0.782805 0.821016 0.084973
C11   C     C_R   0.028179 0.725752 0.845442 0.135754
C12   C     C_R   0.898574 0.781097 0.763939 0.055400
C13   C     C_R   0.933490 0.722669 0.732508 0.074213
C14   C     C_R   0.015401 0.667894 0.759253 -0.186860
C15   C     C_R   0.060299 0.669479 0.814439 -0.199007
C16   C     C_R   0.814947 0.835648 0.737303 -0.186014
C17   C     C_R   0.765182 0.833393 0.682411 -0.177398
C18   C     C_R   0.796096 0.776882 0.651513 0.077033
C19   C     C_R   0.882615 0.720678 0.675577 0.092987
C20   C     C_R   0.735327 0.775964 0.596834 -0.229569
C21   C     C_R   0.757813 0.719893 0.564802 0.413562
C22   C     C_R   0.908455 0.664319 0.641879 -0.282585
H1    H     H_    0.122648 0.625999 0.833047 0.128485
H2    H     H_    0.970173 0.619321 0.657105 0.119401
H3    H     H_    0.699126 0.876408 0.664046 0.122183
H4    H     H_    0.141674 0.681837 0.919458 0.121378
H5    H     H_    0.104022 0.780436 0.974886 0.115779
H6    H     H_    0.868397 0.885097 0.839257 0.093455
H7    H     H_    0.046690 0.622429 0.738737 0.125303
H8    H     H_    0.783295 0.881034 0.757940 0.118912
H9    H     H_    0.664575 0.818526 0.579141 0.126858
C23   C     C_R   0.732245 0.258642 0.723248 -0.226422
H10   H     H_    0.593407 0.266659 0.703860 0.124494
C24   C     C_R   0.892859 0.293768 0.705698 0.076732
C25   C     C_R   0.070786 0.283479 0.731864 -0.160806
H11   H     H_    0.196395 0.310167 0.718993 0.132339
C26   C     C_R   0.087892 0.239022 0.775204 -0.230918
H12   H     H_    0.225960 0.232564 0.795307 0.189212
C27   C     C_R   0.928142 0.203442 0.792633 0.026336
C28   C     C_R   0.749302 0.212694 0.765794 0.434566
C29   C     C_1   0.875522 0.340257 0.660977 -0.033909
C30   C     C_1   0.947821 0.158080 0.838104 -0.013171
C31   C     C_1   0.961391 0.120145 0.876021 -0.199273
C32   C     C_1   0.862883 0.378818 0.623409 -0.195468
H13   H     H_    0.691873 0.690038 0.286791 0.128715
C33   C     C_R   0.592562 0.763675 0.230249 -0.222683
H14   H     H_    0.732129 0.767696 0.211173 0.178021
C34   C     C_R   0.436611 0.801962 0.211504 0.028137
C35   C     C_R   0.256964 0.796340 0.237666 0.419869
C36   C     C_R   0.233664 0.750360 0.279956 -0.231709
H15   H     H_    0.093458 0.744851 0.298325 0.126245
C37   C     C_R   0.389308 0.711531 0.298052 0.084329
C38   C     C_R   0.569406 0.719172 0.273292 -0.151461
C39   C     C_1   0.460024 0.845700 0.164936 -0.001715
C40   C     C_1   0.364784 0.663608 0.341533 -0.029891
C41   C     C_1   0.348907 0.623575 0.377955 -0.192014
C42   C     C_1   0.475088 0.881871 0.125790 -0.183515
C43   C     C_R   0.470612 0.163269 0.087788 -0.145841
C44   C     C_R   0.353636 0.337521 0.411132 -0.040697
C45   C     C_R   0.501799 0.280886 0.092228 -0.228138
C46   C     C_R   0.508411 0.222960 0.062109 0.389719
C47   C     C_R   0.433787 0.162208 0.144048 -0.277342
C48   C     C_R   0.431959 0.220680 0.175974 0.113645
C49   C     C_R   0.470267 0.280629 0.149003 0.023618
C50   C     C_R   0.397087 0.221308 0.233748 0.023928
C51   C     C_R   0.412432 0.280947 0.264173 0.038474
C52   C     C_R   0.453557 0.338818 0.235486 -0.199401
C53   C     C_R   0.479018 0.339250 0.179203 -0.040639
C54   C     C_R   0.343431 0.164269 0.261742 -0.281205
C55   C     C_R   0.320964 0.163019 0.318409 0.375154
C56   C     C_R   0.336028 0.221406 0.348586 0.055532
C57   C     C_R   0.381904 0.281147 0.322151 0.035172
C58   C     C_R   0.301977 0.220865 0.405190 -0.127122
C59   C     C_R   0.308808 0.278297 0.435841 -0.191930
C60   C     C_R   0.391770 0.338913 0.354966 -0.180710
H16   H     H_    0.424218 0.386199 0.338391 0.093192
H17   H     H_    0.277644 0.276597 0.479061 0.107633
H18   H     H_    0.524755 0.326200 0.070598 0.144702
H19   H     H_    0.413639 0.114586 0.161726 0.110700
H20   H     H_    0.465471 0.385421 0.255708 0.123658
H21   H     H_    0.310001 0.119860 0.240283 0.126636
H22   H     H_    0.266883 0.175941 0.426067 0.153954
O11   O     O_R   0.323320 0.942780 0.056240 -0.532237
O12   O     O_R   0.647300 0.077050 0.046060 -0.548990
O13   O     O_R   0.813840 0.057330 0.943840 -0.538145
C61   C     C_R   0.478276 0.101618 0.056222 0.741795
O14   O     O_R   0.653250 0.944380 0.062400 -0.537134
O15   O     O_R   0.819830 0.923720 0.960300 -0.534731
C62   C     C_R   0.485095 0.925066 0.078744 0.718945
O16   O     O_R   0.317330 0.076390 0.039790 -0.534870
O17   O     O_3   0.483830 0.993470 0.966560 -0.365320
V3    V     V_3+5 0.760140 0.001210 0.006210 1.415483
O18   O     O_R   0.149290 0.922840 0.953850 -0.538186
C63   C     C_R   0.981474 0.899033 0.942954 0.697561
O19   O     O_R   0.143340 0.055500 0.937510 -0.530933
C64   C     C_R   0.973699 0.075327 0.921686 0.709291
V4    V     V_3+5 0.259690 0.998600 0.993650 1.438425
O20   O     O_3   0.986130 0.006520 0.033440 -0.369297
O21   O     O_3   0.586263 0.181217 0.783712 -0.579642
C65   C     C_3   0.582522 0.116464 0.763045 0.071076
H23   H     H_    0.518363 0.085031 0.794900 0.149533
H24   H     H_    0.728053 0.095237 0.754310 0.101970
C66   C     C_3   0.455872 0.113380 0.711805 -0.318801
H25   H     H_    0.310315 0.133371 0.721125 0.208675
H26   H     H_    0.519906 0.143623 0.679148 0.188111
C67   C     C_3   0.436738 0.043181 0.691228 -0.840800
H27   H     H_    0.580433 0.022398 0.680877 0.228343
H28   H     H_    0.344766 0.042574 0.654038 0.233268
H29   H     H_    0.369060 0.012224 0.722796 0.230776
O22   O     O_3   0.099813 0.832466 0.219632 -0.574126
C68   C     C_3   0.085073 0.889836 0.251648 0.058453
H30   H     H_    0.216405 0.920162 0.247034 0.119560
H31   H     H_    0.065834 0.877466 0.295529 0.124870
C69   C     C_3   0.910222 0.929865 0.232512 -0.287063
H32   H     H_    0.924145 0.940790 0.188317 0.206155
H33   H     H_    0.777640 0.900893 0.238458 0.196568
C70   C     C_3   0.891398 0.994120 0.264024 -0.839426
H34   H     H_    0.872807 0.984375 0.308195 0.231975
H35   H     H_    0.763572 0.021932 0.248979 0.223531
H36   H     H_    0.021328 0.024435 0.258120 0.246775
C71   C     C_1   0.518509 0.401455 0.153658 0.291391
N1    N     N_1   0.550093 0.451188 0.133288 -0.343131
O23   O     O_3   0.260844 0.106183 0.343890 -0.576441
C72   C     C_3   0.402952 0.056391 0.338782 0.066630
H37   H     H_    0.544313 0.073476 0.354819 0.128308
H38   H     H_    0.419309 0.040867 0.295540 0.114769
C73   C     C_3   0.341285 0.996678 0.371542 -0.288288
H39   H     H_    0.330860 0.010099 0.415395 0.195373
H40   H     H_    0.197060 0.980772 0.357295 0.196041
C74   C     C_3   0.483560 0.939665 0.365147 -0.855291
H41   H     H_    0.496426 0.925357 0.321554 0.230692
H42   H     H_    0.431802 0.896838 0.388423 0.233803
H43   H     H_    0.627413 0.953412 0.381182 0.234763
O24   O     O_3   0.539276 0.225836 0.006470 -0.579808
C75   C     C_3   0.738008 0.217617 0.995445 0.095493
H44   H     H_    0.749462 0.191441 0.955919 0.154522
H45   H     H_    0.816610 0.187015 0.026188 0.109041
C76   C     C_3   0.836477 0.283926 0.989831 -0.357600
H46   H     H_    0.757413 0.314336 0.959363 0.217562
H47   H     H_    0.835009 0.309907 0.029647 0.196322
C77   C     C_3   0.045280 0.275405 0.971844 -0.757309
H48   H     H_    0.126334 0.244658 0.001613 0.245364
H49   H     H_    0.114649 0.323992 0.969564 0.238610
H50   H     H_    0.051795 0.252020 0.930954 0.233531
O25   O     O_3   0.675076 0.718435 0.513310 -0.577467
C78   C     C_3   0.816359 0.729405 0.473095 0.072495
H51   H     H_    0.776975 0.699673 0.436765 0.147299
H52   H     H_    0.964438 0.713180 0.485418 0.097316
C79   C     C_3   0.816342 0.801780 0.456868 -0.305679
H53   H     H_    0.666455 0.818376 0.448023 0.207331
H54   H     H_    0.873412 0.831467 0.491245 0.183791
C80   C     C_3   0.939374 0.813215 0.406487 -0.841313
H55   H     H_    0.089509 0.795878 0.413722 0.236110
H56   H     H_    0.941612 0.866330 0.397061 0.226692
H57   H     H_    0.877781 0.786946 0.370833 0.231420

loop_
_geom_bond_atom_site_label_1
_geom_bond_atom_site_label_2
_ccdc_geom_bond_type
C13   C19   A    
V3    O20   S    
C60   H16   S    
C69   H32   S    
C4    C6    S    
O2    C1    A    
O21   C65   S    
C57   C60   A    
C45   C49   A    
C65   H24   S    
C54   C55   A    
C68   H30   S    
C25   C26   A    
C58   C59   A    
C14   C15   A    
O25   C78   S    
C56   C57   A    
C9    C10   A    
C16   C17   A    
C75   H45   S    
C70   H34   S    
O5    C3    A    
C18   C19   A    
C73   C74   S    
C68   H31   S    
C39   C42   T    
C33   C34   A    
C66   H25   S    
O15   V3    S    
C5    C8    A    
C54   H21   S    
C55   O23   S    
C48   C50   A    
C67   H27   S    
C36   C37   A    
C78   C79   S    
C24   C25   A    
O13   C64   A    
O8    V2    S    
C75   H44   S    
C23   C24   A    
C66   H26   S    
C76   C77   S    
O12   C61   A    
C43   C47   A    
O19   C64   A    
O1    V2    S    
C2    C44   S    
C11   C15   A    
C77   H49   S    
C17   C18   A    
O7    V1    S    
C22   H2    S    
C1    O6    A    
C70   H36   S    
C23   C28   A    
O14   V3    S    
C34   C39   S    
C77   H48   S    
O9    C4    A    
C78   H52   S    
O19   V4    S    
C74   H43   S    
C43   C61   S    
C72   C73   S    
C65   H23   S    
C79   H54   S    
C21   O25   S    
C79   H53   S    
C10   C11   A    
C47   C48   A    
C27   C28   A    
C37   C40   S    
C49   C53   A    
O23   C72   S    
C75   C76   S    
C12   C13   A    
C72   H38   S    
O11   V4    S    
C1    C41   S    
C8    H5    S    
C51   C52   A    
C72   H37   S    
C68   C69   S    
C28   O21   S    
C26   C27   A    
C33   H14   S    
C50   C51   A    
C5    C9    A    
C53   C71   S    
C40   C41   T    
C35   O22   S    
C67   H29   S    
C47   H19   S    
C7    C11   A    
C48   C49   A    
C36   H15   S    
C7    H4    S    
C44   C59   A    
C45   H18   S    
C58   H22   S    
C33   C38   A    
C25   H11   S    
O9    V2    S    
C50   C54   A    
C73   H39   S    
C66   C67   S    
C43   C46   A    
C19   C22   A    
C77   H50   S    
C6    C22   A    
C52   H20   S    
C3    C32   S    
O3    C4    A    
C44   C60   A    
C56   C58   A    
C55   C56   A    
O6    V2    S    
O12   V3    S    
C71   N1    T    
C10   C12   A    
O2    V1    S    
C79   C80   S    
C23   H10   S    
O4    C2    A    
O24   C75   S    
C29   C32   T    
O18   V4    S    
C30   C31   T    
C80   H55   S    
C69   H33   S    
O14   C62   A    
O1    C2    A    
C80   H57   S    
C12   C16   A    
H13   C38   S    
C45   C46   A    
C59   H17   S    
O5    V1    S    
O8    C3    A    
C42   C62   S    
O18   C63   A    
C31   C64   S    
O15   C63   A    
C69   C70   S    
C46   O24   S    
O17   V4    S    
C27   C30   S    
C15   H1    S    
C20   C21   A    
C7    C8    A    
C80   H56   S    
C13   C14   A    
O4    V1    S    
O3    V1    S    
C61   O16   A    
C5    C63   S    
C37   C38   A    
C18   C20   A    
C73   H40   S    
C78   H51   S    
C9    H6    S    
V2    O10   S    
C24   C29   S    
C16   H8    S    
C20   H9    S    
C76   H47   S    
O7    V2    S    
C35   C36   A    
C6    C21   A    
C67   H28   S    
O13   V3    S    
C52   C53   A    
C51   C57   A    
C26   H12   S    
C17   H3    S    
O17   V3    S    
C74   H41   S    
C34   C35   A    
O16   V4    S    
V1    O10   S    
O22   C68   S    
V4    O20   S    
C65   C66   S    
C74   H42   S    
O11   C62   A    
C14   H7    S    
C76   H46   S    
C70   H35   S    
