data_mof_unit_39853.cif
_audit_creation_date              2012-12-11T14:27:09-0500
_audit_creation_method            fapswitch 2.2
_symmetry_space_group_name_H-M    P1
_symmetry_Int_Tables_number       1
_space_group_crystal_system       triclinic
_cell_length_a                    15.120553
_cell_length_b                    14.907577
_cell_length_c                    14.97027
_cell_angle_alpha                 109.737607
_cell_angle_beta                  109.172128
_cell_angle_gamma                 109.527135
_cell_volume                      2596.86831051

loop_
_atom_site_label
_atom_site_type_symbol
_atom_type_description
_atom_site_fract_x
_atom_site_fract_y
_atom_site_fract_z
_atom_type_partial_charge
C1    C     C_R   0.941605 0.758619 0.036743 -0.148278
C2    C     C_R   0.677708 0.221433 0.676180 0.128267
C3    C     C_R   0.020304 0.500807 0.681000 0.077484
C4    C     C_R   0.686990 0.499716 0.037871 0.006806
C5    C     C_R   0.989612 0.589551 0.295199 -0.136071
C6    C     C_R   0.209647 0.408220 0.907190 -0.130788
C7    C     C_R   0.308939 0.788345 0.221045 0.014433
C8    C     C_R   0.905158 0.194671 0.990721 -0.172805
C9    C     C_R   0.994634 0.196090 0.898911 0.064902
C10   C     C_R   0.215585 0.784630 0.310833 -0.156395
C11   C     C_R   0.899392 0.406963 0.201938 0.059573
C12   C     C_R   0.778708 0.247379 0.686579 -0.150123
C13   C     C_R   0.299520 0.590450 0.997669 -0.154026
C14   C     C_R   0.923213 0.497621 0.292797 0.094735
C15   C     C_R   0.302614 0.499107 0.939145 -0.001891
C16   C     C_R   0.316142 0.838276 0.322217 0.069935
C17   C     C_R   0.929572 0.129361 0.923489 0.085511
C18   C     C_3   0.491052 0.392053 0.900992 -0.402886
C19   C     C_3   0.383827 0.390423 0.872560 -0.420896
C20   C     C_3   0.559368 0.507006 0.102490 -0.427043
C21   C     C_3   0.593843 0.600347 0.995008 -0.449882
C22   C     C_3   0.584826 0.499655 0.010004 0.394089
C23   C     C_R   0.070799 0.592196 0.782482 -0.124553
C24   C     C_3   0.403692 0.499393 0.958609 0.338671
C25   C     C_3   0.452975 0.508190 0.073155 -0.400953
C26   C     C_3   0.486370 0.600396 0.963261 -0.123504
C27   C     C_2   0.389162 0.022028 0.470961 -0.120771
C28   C     C_2   0.405215 0.943194 0.415175 -0.180735
C29   C     C_2   0.481583 0.124773 0.567449 -0.127952
C30   C     C_2   0.577991 0.163796 0.572944 -0.196806
C31   C     C_2   0.889482 0.433725 0.497770 -0.201188
C32   C     C_2   0.994064 0.499355 0.578272 -0.023448
C33   C     C_2   0.855100 0.415238 0.387356 -0.142144
C34   C     C_R   0.695455 0.408329 0.991950 -0.149152
C35   C     C_2   0.885317 0.500636 0.371171 -0.179381
C36   C     C_2   0.917217 0.951217 0.829020 -0.129244
C37   C     C_2   0.880132 0.010205 0.878368 -0.191269
C38   C     C_2   0.916845 0.857684 0.840568 -0.117792
C39   C     C_2   0.920888 0.853558 0.929568 -0.190626
C40   C     C_R   0.980602 0.408983 0.690932 -0.141482
C41   C     C_R   0.785330 0.591453 0.083235 -0.147431
C42   C     C_R   0.688109 0.249205 0.778504 -0.113404
C43   C     C_R   0.032313 0.758685 0.944467 -0.140838
C44   C     C_R   0.961366 0.790053 0.965825 0.140530
H1    H     H_    0.892757 0.773920 0.072001 0.092429
H2    H     H_    0.181353 0.323025 0.854150 0.099902
H3    H     H_    0.843417 0.164122 0.011026 0.110990
H4    H     H_    0.189799 0.809240 0.369851 0.101959
H5    H     H_    0.356210 0.674849 0.029788 0.115277
H6    H     H_    0.481823 0.318366 0.908915 0.145688
H7    H     H_    0.508659 0.384127 0.833104 0.152690
H8    H     H_    0.343033 0.375933 0.788425 0.156100
H9    H     H_    0.796307 0.230749 0.620638 0.091811
H10   H     H_    0.330000 0.318994 0.873523 0.152207
H11   H     H_    0.552216 0.435320 0.113828 0.161395
H12   H     H_    0.395329 0.438523 0.073550 0.167381
H13   H     H_    0.657126 0.678598 0.072891 0.137339
H14   H     H_    0.620786 0.600303 0.934237 0.165888
H15   H     H_    0.504988 0.675659 0.033426 0.105303
H16   H     H_    0.625695 0.583127 0.181060 0.155759
H17   H     H_    0.468408 0.585493 0.137999 0.157317
H18   H     H_    0.308143 0.007444 0.451765 0.121219
H19   H     H_    0.119946 0.676712 0.806301 0.085145
H20   H     H_    0.485897 0.955761 0.436615 0.135132
H21   H     H_    0.472835 0.156895 0.638743 0.115557
H22   H     H_    0.583730 0.136301 0.498965 0.140239
H23   H     H_    0.829549 0.382256 0.509985 0.138591
H24   H     H_    0.828981 0.333191 0.327511 0.125682
H25   H     H_    0.910295 0.581370 0.434642 0.143722
H26   H     H_    0.968263 0.981038 0.797998 0.116010
H27   H     H_    0.824034 0.974343 0.903096 0.132797
H28   H     H_    0.936207 0.806047 0.788550 0.119042
H29   H     H_    0.639435 0.323577 0.961746 0.085847
H30   H     H_    0.904458 0.905718 0.984596 0.128682
H31   H     H_    0.947535 0.324830 0.629785 0.090376
H32   H     H_    0.811884 0.676258 0.136615 0.084583
H33   H     H_    0.624776 0.236642 0.798989 0.085045
H34   H     H_    0.068500 0.777302 0.897303 0.086620
H35   H     H_    0.012431 0.673530 0.347389 0.098662
N1    N     N_R   0.993980 0.704500 0.053430 -0.040110
N2    N     N_R   0.154170 0.443650 0.946570 -0.035442
N3    N     N_R   0.207180 0.704490 0.150760 -0.064661
N4    N     N_R   0.948740 0.295490 0.002840 -0.048230
N5    N     N_R   0.006020 0.295500 0.946570 -0.053857
N6    N     N_R   0.149890 0.704480 0.207030 -0.048527
N7    N     N_R   0.946310 0.443620 0.150760 -0.050781
N8    N     N_R   0.209610 0.556360 0.002840 -0.038020
N9    N     N_R   0.850110 0.295520 0.792970 -0.040251
N10   N     N_R   0.053690 0.556380 0.849240 -0.037296
N11   N     N_R   0.790390 0.443640 0.997160 -0.030722
N12   N     N_R   0.998260 0.443670 0.792970 -0.034360
N13   N     N_R   0.845830 0.556350 0.053430 -0.031142
N14   N     N_R   0.792820 0.295510 0.849240 -0.043440
N15   N     N_R   0.051260 0.704510 0.997160 -0.048752
N16   N     N_R   0.001740 0.556330 0.207030 -0.051646
Ni1   Ni    Ni4+2 0.997880 0.629240 0.129060 0.199727
Ni2   Ni    Ni4+2 0.002120 0.370760 0.870940 0.213181
Ni3   Ni    Ni4+2 0.129260 0.629260 0.000000 0.207589
Ni4   Ni    Ni4+2 0.870740 0.370740 0.000000 0.210230
C45   C     C_R   0.384205 0.841479 0.188858 0.128063
C46   C     C_R   0.492745 0.868280 0.241087 -0.196577
C47   C     C_R   0.565037 0.922710 0.213458 -0.123117
C48   C     C_R   0.529679 0.951410 0.134275 -0.102991
C49   C     C_R   0.421611 0.924498 0.081604 -0.143165
C50   C     C_R   0.348877 0.869280 0.108370 -0.147357
H36   H     H_    0.521129 0.846429 0.302520 0.104363
H37   H     H_    0.648527 0.942870 0.253617 0.103301
H38   H     H_    0.585772 0.993736 0.113120 0.098599
H39   H     H_    0.394155 0.946173 0.019827 0.106157
H40   H     H_    0.265758 0.849840 0.067669 0.113690
N17   N     N_3   0.008035 0.160158 0.805349 -0.227060
H41   H     H_    0.069171 0.140134 0.822908 0.072612
H42   H     H_    0.935163 0.092278 0.737774 0.100269
N18   N     N_3   0.805631 0.300075 0.143240 -0.225378
H43   H     H_    0.825608 0.251396 0.172869 0.073534
H44   H     H_    0.742750 0.306388 0.154297 0.098859
C51   C     C_R   0.448653 0.612780 0.862066 0.169697
C52   C     C_R   0.429001 0.700121 0.868826 -0.194198
C53   C     C_R   0.412336 0.725324 0.785075 -0.087174
C54   C     C_R   0.415305 0.663841 0.693391 -0.062737
C55   C     C_R   0.429739 0.574028 0.682775 -0.136052
C56   C     C_R   0.446299 0.548458 0.766224 -0.147635
H45   H     H_    0.430593 0.751668 0.940739 0.120363
H46   H     H_    0.400102 0.794472 0.792735 0.107548
H47   H     H_    0.407961 0.686515 0.631102 0.104262
H48   H     H_    0.431562 0.526191 0.611291 0.110911
H49   H     H_    0.463602 0.482525 0.757690 0.111902
C57   C     C_R   0.081437 0.566935 0.565502 0.196354
C58   C     C_R   0.122667 0.681051 0.612179 -0.190057
C59   C     C_R   0.195673 0.742564 0.589487 -0.140050
C60   C     C_R   0.227559 0.690596 0.519907 -0.109715
C61   C     C_R   0.188287 0.577338 0.474703 -0.108556
C62   C     C_R   0.116179 0.515712 0.498111 -0.117499
H50   H     H_    0.095206 0.721601 0.662543 0.099015
H51   H     H_    0.226182 0.830232 0.624414 0.105347
H52   H     H_    0.283252 0.738143 0.501567 0.109829
H53   H     H_    0.213287 0.537255 0.421058 0.107894
H54   H     H_    0.084483 0.427665 0.460819 0.099688

loop_
_geom_bond_atom_site_label_1
_geom_bond_atom_site_label_2
_ccdc_geom_bond_type
C16   C28   S    
C21   C26   S    
C10   N6    A    
C9    N17   S    
C46   C47   A    
C27   C29   S    
C42   N14   A    
C3    C23   A    
C59   H51   S    
C25   H12   S    
C50   H40   S    
C2    C12   A    
C57   C58   A    
N18   H43   S    
C53   H46   S    
C43   H34   S    
C31   H23   S    
C45   C50   A    
N5    Ni2   S    
C36   C37   D    
C24   C26   S    
C49   H39   S    
C11   C14   A    
C4    C41   A    
N15   Ni3   S    
C11   N7    A    
C8    N4    A    
N13   Ni1   S    
C43   N15   A    
C18   C19   S    
C39   H30   S    
C56   H49   S    
C11   N18   S    
C52   C53   A    
C33   C35   D    
C6    C15   A    
C19   H8    S    
N16   Ni1   S    
C61   C62   A    
C26   C51   S    
C48   H38   S    
N1    Ni1   S    
C26   H15   S    
N14   Ni4   S    
N9    Ni2   S    
N8    Ni3   S    
C23   H19   S    
C62   H54   S    
C6    N2    A    
N4    Ni4   S    
C21   C22   S    
N3    Ni3   S    
C3    C32   S    
C20   H11   S    
C49   C50   A    
C5    N16   A    
C36   H26   S    
C18   H7    S    
C38   H28   S    
C4    C34   A    
C7    C45   S    
C12   N9    A    
C24   C25   S    
C60   H52   S    
C14   C35   S    
C54   H47   S    
C17   C37   S    
C34   H29   S    
C61   H53   S    
C51   C56   A    
C34   N11   A    
C21   H13   S    
C29   C30   D    
C27   H18   S    
C4    C22   S    
C1    C44   A    
N11   N13   A    
N4    N5    A    
C13   N8    A    
C23   N10   A    
C55   C56   A    
C47   H37   S    
N17   H42   S    
C25   H17   S    
N12   Ni2   S    
N7    Ni4   S    
C5    C14   A    
C30   H22   S    
C13   H5    S    
C28   H20   S    
C19   H10   S    
C9    C17   A    
C7    C16   A    
C20   C22   S    
C3    C40   A    
C13   C15   A    
C43   C44   A    
C10   H4    S    
C29   H21   S    
C5    H35   S    
C7    N3    A    
N1    N15   A    
C60   C61   A    
N11   Ni4   S    
C48   C49   A    
C54   C55   A    
C18   H6    S    
C58   C59   A    
C46   H36   S    
N9    N14   A    
C15   C24   S    
C31   C33   S    
C6    H2    S    
N17   H41   S    
C18   C22   S    
C31   C32   D    
C12   H9    S    
N18   H44   S    
C53   C54   A    
C39   C44   S    
N3    N6    A    
C8    C17   A    
C40   H31   S    
N10   Ni3   S    
C2    C30   S    
C32   C57   S    
C37   H27   S    
C19   C24   S    
C8    H3    S    
C21   H14   S    
C10   C16   A    
C57   C62   A    
C41   H32   S    
N2    N8    A    
C1    H1    S    
C38   C39   D    
N2    Ni2   S    
C2    C42   A    
C36   C38   S    
C45   C46   A    
N6    Ni1   S    
C59   C60   A    
C52   H45   S    
C40   N12   A    
C47   C48   A    
N7    N16   A    
C9    N5    A    
C58   H50   S    
C55   H48   S    
C41   N13   A    
C35   H25   S    
C42   H33   S    
N10   N12   A    
C20   C25   S    
C27   C28   D    
C1    N1    A    
C20   H16   S    
C51   C52   A    
C33   H24   S    
