data_mof_unit_38467.cif
_audit_creation_date              2012-12-11T15:18:36-0500
_audit_creation_method            fapswitch 2.2
_symmetry_space_group_name_H-M    P1
_symmetry_Int_Tables_number       1
_space_group_crystal_system       triclinic
_cell_length_a                    6.953247
_cell_length_b                    19.795953
_cell_length_c                    23.794345
_cell_angle_alpha                 93.697171
_cell_angle_beta                  91.024683
_cell_angle_gamma                 88.371991
_cell_volume                      3266.64138064

loop_
_atom_site_label
_atom_site_type_symbol
_atom_type_description
_atom_site_fract_x
_atom_site_fract_y
_atom_site_fract_z
_atom_type_partial_charge
O1    O     O_R   0.620100 0.812200 0.810870 -0.541531
O2    O     O_R   0.379900 0.187800 0.189130 -0.534743
O3    O     O_R   0.296960 0.671650 0.794750 -0.539898
O4    O     O_R   0.703040 0.328350 0.205250 -0.543843
O5    O     O_R   0.120160 0.687800 0.689130 -0.539173
O6    O     O_R   0.879840 0.312200 0.310870 -0.536485
C1    C     C_R   0.468561 0.647407 0.805226 0.713108
C2    C     C_R   0.531248 0.353826 0.196055 0.698540
O7    O     O_R   0.290810 0.810670 0.817290 -0.538366
O8    O     O_R   0.709190 0.189330 0.182710 -0.542981
O9    O     O_R   0.113980 0.827820 0.711840 -0.536224
O10   O     O_R   0.886020 0.172180 0.288160 -0.534083
C3    C     C_R   0.458926 0.831283 0.834361 0.766088
C4    C     C_R   0.540984 0.168326 0.165916 0.724745
O11   O     O_R   0.626290 0.672180 0.788160 -0.534964
O12   O     O_R   0.373710 0.327820 0.211840 -0.539068
O13   O     O_3   0.451520 0.755460 0.715370 -0.369425
O14   O     O_3   0.548480 0.244540 0.284630 -0.364791
V1    V     V_3+5 0.179200 0.748980 0.756420 1.416032
V2    V     V_3+5 0.820800 0.251020 0.243580 1.406961
O15   O     O_R   0.783880 0.828350 0.705250 -0.539632
O16   O     O_R   0.216120 0.171650 0.294750 -0.538085
C5    C     C_R   0.949817 0.852769 0.694927 0.694254
C6    C     C_R   0.050159 0.147211 0.305054 0.699100
O17   O     O_R   0.790030 0.689320 0.682700 -0.538867
O18   O     O_R   0.209970 0.310680 0.317300 -0.542141
C7    C     C_R   0.959740 0.667945 0.666071 0.696520
C8    C     C_R   0.040828 0.332010 0.333942 0.692929
V3    V     V_3+5 0.678400 0.751010 0.743570 1.419483
V4    V     V_3+5 0.321600 0.248990 0.256430 1.411857
O19   O     O_3   0.955950 0.744540 0.784620 -0.369223
O20   O     O_3   0.044050 0.255460 0.215380 -0.369297
C9    C     C_R   0.962667 0.447532 0.376327 -0.214620
C10   C     C_R   0.060462 0.555032 0.622396 -0.202461
C11   C     C_R   0.031419 0.381458 0.383004 -0.064390
C12   C     C_R   0.973153 0.618875 0.616784 -0.058453
C13   C     C_R   0.098193 0.363429 0.435984 -0.229429
C14   C     C_R   0.904749 0.636553 0.563881 -0.228476
C15   C     C_R   0.090954 0.410344 0.483523 0.069962
C16   C     C_R   0.923264 0.591003 0.515726 0.066305
C17   C     C_R   0.017216 0.477017 0.476243 0.032347
C18   C     C_R   0.004627 0.525241 0.522581 0.028337
C19   C     C_R   0.954796 0.495401 0.422482 0.074644
C20   C     C_R   0.071917 0.507458 0.576058 0.078058
C21   C     C_R   0.153122 0.392099 0.537973 0.078805
C22   C     C_R   0.862871 0.609470 0.461181 0.079815
C23   C     C_R   0.144666 0.441761 0.583271 -0.215728
C24   C     C_R   0.883249 0.561192 0.415225 -0.217562
H1    H     H_    0.918550 0.461912 0.334788 0.102478
H2    H     H_    0.113240 0.541618 0.663480 0.101685
H3    H     H_    0.154043 0.312265 0.439283 0.102437
H4    H     H_    0.841149 0.686725 0.560964 0.102252
H5    H     H_    0.189785 0.429560 0.625184 0.116565
H6    H     H_    0.839722 0.573558 0.373208 0.121405
C25   C     C_R   0.948813 0.914419 0.663276 -0.041866
C26   C     C_R   0.050879 0.085527 0.336667 -0.043238
C27   C     C_R   0.882047 0.034691 0.660893 -0.162795
C28   C     C_R   0.115479 0.965110 0.338900 -0.163002
C29   C     C_R   0.894564 0.976353 0.690550 -0.171722
C30   C     C_R   0.104258 0.023537 0.309331 -0.171209
C31   C     C_R   0.989171 0.911004 0.605406 -0.216780
C32   C     C_R   0.010051 0.088900 0.394503 -0.216415
C33   C     C_R   0.973838 0.969759 0.573722 0.086893
C34   C     C_R   0.023897 0.030040 0.426089 0.086827
C35   C     C_R   0.920202 0.031989 0.603043 0.145980
C36   C     C_R   0.076798 0.967763 0.396720 0.145066
C37   C     C_R   0.007813 0.969038 0.514229 0.061738
C38   C     C_R   0.989231 0.030710 0.485540 0.062097
C39   C     C_R   0.937090 0.090941 0.517278 -0.193208
C40   C     C_R   0.058872 0.908737 0.482428 -0.193450
C41   C     C_R   0.903113 0.091313 0.574596 -0.215338
C42   C     C_R   0.092540 0.908344 0.425087 -0.213275
H7    H     H_    0.862363 0.138884 0.596978 0.122127
H8    H     H_    0.132237 0.860702 0.402645 0.122647
H9    H     H_    0.971911 0.138233 0.413453 0.091324
H10   H     H_    0.028273 0.861729 0.586518 0.091411
H11   H     H_    0.137914 0.020446 0.264929 0.105007
H12   H     H_    0.861098 0.979459 0.734966 0.104210
H13   H     H_    0.840133 0.082145 0.683213 0.111330
H14   H     H_    0.156758 0.917617 0.316537 0.110847
H15   H     H_    0.920491 0.139184 0.499072 0.120260
H16   H     H_    0.074419 0.860431 0.500581 0.119902
C43   C     C_R   0.486436 0.585117 0.836219 -0.072010
C44   C     C_R   0.511253 0.417304 0.166202 -0.069945
C45   C     C_R   0.548189 0.464188 0.838179 -0.187374
C46   C     C_R   0.408316 0.535220 0.162846 -0.192883
C47   C     C_R   0.508876 0.521018 0.807246 0.076811
C48   C     C_R   0.428618 0.476902 0.192964 0.080148
C49   C     C_R   0.489928 0.590306 0.895523 -0.252561
C50   C     C_R   0.561303 0.416836 0.108998 -0.255950
C51   C     C_R   0.518787 0.532289 0.927344 0.084057
C52   C     C_R   0.525231 0.474284 0.076819 0.084570
C53   C     C_R   0.557120 0.469486 0.897235 0.115229
C54   C     C_R   0.454315 0.534370 0.105726 0.120013
C55   C     C_R   0.508464 0.534047 0.987704 0.068149
C56   C     C_R   0.549009 0.473681 0.016825 0.063055
C57   C     C_R   0.602639 0.414050 0.984571 -0.196614
C58   C     C_R   0.450148 0.593334 0.019628 -0.195772
C59   C     C_R   0.602105 0.411808 0.926106 -0.192734
C60   C     C_R   0.422723 0.593177 0.077212 -0.197184
H17   H     H_    0.636566 0.364020 0.903154 0.122691
H18   H     H_    0.370998 0.639481 0.099492 0.119324
H19   H     H_    0.622466 0.370174 0.090524 0.112117
H20   H     H_    0.473522 0.640523 0.915448 0.123720
H21   H     H_    0.568644 0.415025 0.815917 0.110614
H22   H     H_    0.349907 0.581445 0.183741 0.107976
H23   H     H_    0.640322 0.367254 0.003149 0.132655
H24   H     H_    0.416187 0.640414 0.000992 0.123340
C61   C     C_R   0.499100 0.051524 0.124612 -0.269265
C62   C     C_R   0.508071 0.947450 0.876094 -0.289810
C63   C     C_R   0.531595 0.119701 0.116290 -0.126256
C64   C     C_R   0.467499 0.879871 0.884034 -0.102939
C65   C     C_R   0.546425 0.141040 0.060938 0.238008
C66   C     C_R   0.438921 0.858971 0.938848 0.231966
C67   C     C_R   0.538625 0.092587 0.014422 0.074098
C68   C     C_R   0.455436 0.906648 0.986004 0.045989
C69   C     C_R   0.506273 0.023811 0.023468 0.012650
C70   C     C_R   0.493611 0.975155 0.977136 0.026866
C71   C     C_R   0.484709 0.003681 0.078723 0.108934
C72   C     C_R   0.518568 0.995311 0.921979 0.114906
C73   C     C_R   0.562489 0.111320 0.958941 -0.171511
C74   C     C_R   0.433153 0.888107 0.041712 -0.190739
C75   C     C_R   0.553642 0.063223 0.913430 -0.194372
C76   C     C_R   0.448678 0.935892 0.087312 -0.173427
H25   H     H_    0.483801 0.035874 0.167131 0.119188
H26   H     H_    0.529475 0.962846 0.833762 0.119756
H27   H     H_    0.589552 0.163233 0.950381 0.162393
H28   H     H_    0.403354 0.836687 0.050823 0.130376
H29   H     H_    0.573331 0.079343 0.871292 0.122311
H30   H     H_    0.431216 0.919741 0.129541 0.118121
C77   C     C_3   0.356023 0.479881 0.252871 -0.370051
C78   C     C_3   0.521575 0.482165 0.296183 -0.327822
C79   C     C_3   0.445240 0.482092 0.355898 -0.736548
H31   H     H_    0.338882 0.524351 0.364118 0.228980
H32   H     H_    0.377950 0.433130 0.361889 0.243600
H33   H     H_    0.564296 0.487921 0.387060 0.227893
H34   H     H_    0.619816 0.437475 0.288662 0.194699
H35   H     H_    0.604461 0.528766 0.292164 0.184975
H36   H     H_    0.262094 0.525766 0.261149 0.163907
H37   H     H_    0.263392 0.436271 0.258776 0.185304
C80   C     C_3   0.483386 0.510908 0.743889 -0.371490
C81   C     C_3   0.673475 0.490469 0.715074 -0.307953
C82   C     C_3   0.642845 0.478574 0.651611 -0.747518
H38   H     H_    0.525091 0.442926 0.642263 0.217884
H39   H     H_    0.607300 0.527130 0.632351 0.241143
H40   H     H_    0.775053 0.455531 0.632528 0.225843
H41   H     H_    0.779466 0.531042 0.723561 0.194493
H42   H     H_    0.733576 0.443029 0.731790 0.187564
H43   H     H_    0.376730 0.470700 0.734561 0.162880
H44   H     H_    0.423129 0.557155 0.725341 0.165764
N1    N     N_2   0.558488 0.211208 0.051639 -0.542861
H45   H     H_    0.645130 0.238009 0.080178 0.247402
C83   C     C_3   0.372916 0.244515 0.043563 -0.574266
H46   H     H_    0.392739 0.297436 0.032739 0.196877
H47   H     H_    0.288203 0.245253 0.082779 0.202724
H48   H     H_    0.291302 0.218148 0.008487 0.212394
N2    N     N_2   0.400083 0.789690 0.945634 -0.550282
H49   H     H_    0.484197 0.767476 0.975817 0.243447
C84   C     C_3   0.197959 0.775155 0.949025 -0.545125
H50   H     H_    0.136229 0.799491 0.988282 0.189249
H51   H     H_    0.180613 0.719596 0.949100 0.187753
H52   H     H_    0.116836 0.793729 0.912212 0.222894
C85   C     C_3   0.224468 0.319661 0.546595 -0.350740
C86   C     C_3   0.276212 0.302947 0.607329 -0.327396
C87   C     C_3   0.338410 0.228585 0.610028 -0.759891
H53   H     H_    0.220140 0.195222 0.594774 0.234756
H54   H     H_    0.467386 0.216986 0.583858 0.229080
H55   H     H_    0.374852 0.217871 0.654258 0.214294
H56   H     H_    0.396991 0.334448 0.623631 0.193694
H57   H     H_    0.149242 0.313044 0.634666 0.193885
H58   H     H_    0.109618 0.284751 0.531215 0.170626
H59   H     H_    0.353891 0.308888 0.520367 0.176468
C88   C     C_3   0.778176 0.680390 0.453209 -0.349662
C89   C     C_3   0.718354 0.696037 0.392789 -0.324913
C90   C     C_3   0.636981 0.768352 0.390812 -0.763835
H60   H     H_    0.507449 0.775521 0.417447 0.228230
H61   H     H_    0.746695 0.805310 0.405924 0.236073
H62   H     H_    0.595313 0.778362 0.346793 0.213909
H63   H     H_    0.845395 0.690447 0.364986 0.192195
H64   H     H_    0.605891 0.660581 0.376679 0.198733
H65   H     H_    0.648661 0.687892 0.479893 0.176734
H66   H     H_    0.886662 0.717861 0.468408 0.169179

loop_
_geom_bond_atom_site_label_1
_geom_bond_atom_site_label_2
_ccdc_geom_bond_type
C82   H40   S    
C43   C47   A    
C33   C35   A    
N2    H49   S    
C67   C73   A    
C25   C29   A    
O13   V3    S    
C17   C18   A    
C27   H13   S    
C1    C43   S    
C55   C56   A    
O4    C2    A    
V1    O19   S    
C70   C72   A    
C64   C66   A    
C55   C58   A    
C80   H43   S    
C90   H61   S    
C71   C76   A    
C24   H6    S    
O9    V1    S    
C87   H53   S    
C18   C20   A    
C34   C38   A    
C86   C87   S    
C11   C13   A    
C73   H27   S    
C3    C64   S    
O3    C1    A    
C69   C71   A    
C13   H3    S    
C46   C48   A    
C27   C29   A    
C14   H4    S    
C28   C30   A    
C82   H38   S    
C52   C56   A    
C58   H24   S    
C31   C33   A    
C39   C41   A    
O7    C3    A    
C89   C90   S    
C32   C34   A    
C77   H37   S    
C46   C54   A    
C9    C11   A    
O5    C7    A    
C86   H57   S    
O7    V1    S    
C36   C42   A    
C84   H50   S    
C8    C11   S    
O8    V2    S    
C78   C79   S    
C67   C69   A    
C79   H33   S    
N1    H45   S    
C84   H51   S    
O3    V1    S    
O14   V4    S    
C49   C51   A    
C85   H58   S    
C19   C24   A    
C53   C59   A    
O14   V2    S    
C20   C23   A    
C28   H14   S    
C23   H5    S    
C26   C32   A    
C16   C18   A    
C88   H65   S    
N2    C84   S    
C75   H29   S    
C17   C19   A    
C86   H56   S    
C46   H22   S    
C44   C50   A    
C45   H21   S    
C29   H12   S    
O1    V3    S    
C57   C59   A    
C28   C36   A    
C80   H44   S    
O11   V3    S    
C90   H62   S    
C33   C37   A    
C21   C23   A    
C31   H10   S    
O17   V3    S    
C4    C63   S    
C43   C49   A    
C22   C24   A    
C30   H11   S    
C10   H2    S    
C45   C47   A    
C37   C38   A    
C9    C19   A    
C81   H42   S    
C10   C20   A    
C42   H8    S    
O8    C4    A    
C62   C72   A    
C41   H7    S    
C38   C39   A    
C87   H54   S    
C22   C88   S    
C1    O11   A    
C78   H34   S    
C88   C89   S    
O15   V3    S    
C26   C30   A    
O4    V2    S    
C16   C22   A    
C66   N2    S    
V4    O20   S    
C51   C53   A    
C50   C52   A    
C90   H60   S    
C54   C60   A    
C78   H35   S    
C56   C57   A    
O10   V2    S    
C60   H18   S    
C84   H52   S    
C76   H30   S    
C63   C65   A    
C47   C80   S    
C83   H48   S    
C85   H59   S    
C68   C74   A    
C62   H26   S    
C39   H15   S    
C61   H25   S    
C59   H17   S    
C88   H66   S    
O18   V4    S    
C87   H55   S    
C58   C60   A    
O15   C5    A    
C49   H20   S    
C79   H31   S    
O16   C6    A    
C32   H9    S    
C83   H47   S    
C74   C76   A    
C77   C78   S    
C89   H64   S    
C61   C71   A    
V2    O20   S    
C40   H16   S    
C82   H39   S    
O16   V4    S    
C2    C44   S    
C81   H41   S    
C44   C48   A    
C27   C35   A    
C66   C68   A    
C72   C75   A    
C5    C25   S    
O5    V1    S    
C65   N1    S    
C7    C12   S    
C6    C26   S    
O6    V2    S    
O10   C6    A    
O18   C8    A    
C15   C21   A    
O2    V4    S    
C37   C40   A    
C61   C63   A    
C21   C85   S    
V3    O19   S    
C35   C41   A    
C69   C70   A    
C12   C14   A    
C14   C16   A    
C52   C54   A    
C25   C31   A    
O9    C5    A    
O13   V1    S    
C68   C70   A    
C10   C12   A    
N1    C83   S    
C74   H28   S    
O2    C4    A    
C62   C64   A    
C50   H19   S    
C73   C75   A    
C85   C86   S    
C77   H36   S    
C51   C55   A    
C57   H23   S    
O6    C8    A    
C13   C15   A    
C45   C53   A    
O1    C3    A    
C15   C17   A    
C2    O12   A    
C9    H1    S    
C79   H32   S    
C81   C82   S    
C40   C42   A    
C48   C77   S    
C83   H46   S    
C80   C81   S    
O12   V4    S    
C89   H63   S    
C34   C36   A    
C65   C67   A    
O17   C7    A    
