data_mof_unit_8031.cif
_audit_creation_date              2013-03-05T15:45:58-0500
_audit_creation_method            fapswitch 2.2
_symmetry_space_group_name_H-M    P1
_symmetry_Int_Tables_number       1
_space_group_crystal_system       triclinic
_cell_length_a                    19.077665
_cell_length_b                    10.890457
_cell_length_c                    18.863285
_cell_angle_alpha                 90.385135
_cell_angle_beta                  89.807797
_cell_angle_gamma                 90.77654
_cell_volume                      3918.65144694

loop_
_atom_site_label
_atom_site_type_symbol
_atom_site_description
_atom_site_fract_x
_atom_site_fract_y
_atom_site_fract_z
_atom_type_partial_charge
O1    O     O_R   0.787510 0.042610 0.670410 -0.499427
O2    O     O_R   0.212490 0.042610 0.329590 -0.508958
O3    O     O_R   0.287510 0.542610 0.670410 -0.499426
O4    O     O_R   0.712490 0.542610 0.329590 -0.508956
O5    O     O_R   0.765670 0.292090 0.675090 -0.515178
O6    O     O_R   0.234330 0.292090 0.324910 -0.509233
O7    O     O_R   0.265670 0.792090 0.675090 -0.515167
O8    O     O_R   0.734330 0.792090 0.324910 -0.509233
C1    C     C_R   0.730588 0.377562 0.646412 0.547411
C2    C     C_R   0.269614 0.378222 0.353729 0.550578
C3    C     C_R   0.230588 0.877562 0.646412 0.547419
C4    C     C_R   0.769614 0.878222 0.353729 0.550578
O9    O     O_R   0.670220 0.409020 0.668560 -0.524202
O10   O     O_R   0.329780 0.409020 0.331440 -0.511332
O11   O     O_R   0.170220 0.909020 0.668560 -0.524201
O12   O     O_R   0.829780 0.909020 0.331440 -0.511332
O13   O     O_R   0.556580 0.251590 0.674980 -0.464555
O14   O     O_R   0.443420 0.251590 0.325020 -0.481150
O15   O     O_R   0.056580 0.751590 0.674980 -0.464551
O16   O     O_R   0.943420 0.751590 0.325020 -0.481149
C5    C     C_R   0.562500 0.151069 0.638752 0.551167
C6    C     C_R   0.468342 0.155638 0.353090 0.567584
C7    C     C_R   0.062500 0.651070 0.638752 0.551171
C8    C     C_R   0.968342 0.655638 0.353090 0.567589
O17   O     O_R   0.545890 0.049670 0.670030 -0.498383
O18   O     O_R   0.454110 0.049670 0.329970 -0.523973
O19   O     O_R   0.045890 0.549670 0.670030 -0.498382
O20   O     O_R   0.954110 0.549670 0.329970 -0.523968
O21   O     O_R   0.681340 0.957860 0.676500 -0.520975
O22   O     O_R   0.318660 0.957860 0.323500 -0.503137
O23   O     O_R   0.181340 0.457860 0.676500 -0.520995
O24   O     O_R   0.818660 0.457860 0.323500 -0.503136
C9    C     C_R   0.740695 0.971768 0.646035 0.559959
C10   C     C_R   0.260418 0.976613 0.355122 0.588955
C11   C     C_R   0.240695 0.471768 0.646035 0.559960
C12   C     C_R   0.760418 0.476613 0.355122 0.588956
O25   O     O_R   0.787380 0.044010 0.830940 -0.512722
O26   O     O_R   0.212620 0.044010 0.169060 -0.525890
O27   O     O_R   0.287380 0.544010 0.830940 -0.512724
O28   O     O_R   0.712620 0.544010 0.169060 -0.525877
O29   O     O_R   0.765540 0.293390 0.823910 -0.512844
O30   O     O_R   0.234460 0.293390 0.176090 -0.496277
O31   O     O_R   0.265540 0.793390 0.823910 -0.512860
O32   O     O_R   0.734460 0.793390 0.176090 -0.496273
C13   C     C_R   0.728930 0.376315 0.852938 0.608780
C14   C     C_R   0.287916 0.336018 0.139552 0.542498
C15   C     C_R   0.228931 0.876318 0.852937 0.608838
C16   C     C_R   0.787916 0.836017 0.139553 0.542485
O33   O     O_R   0.670090 0.410410 0.829090 -0.446688
O34   O     O_R   0.329910 0.410410 0.170910 -0.457765
O35   O     O_R   0.170090 0.910410 0.829090 -0.446638
O36   O     O_R   0.829910 0.910410 0.170910 -0.457767
O37   O     O_R   0.556450 0.252890 0.823790 -0.477879
O38   O     O_R   0.443550 0.252890 0.176210 -0.453145
O39   O     O_R   0.056450 0.752890 0.823790 -0.477879
O40   O     O_R   0.943550 0.752890 0.176210 -0.453147
C17   C     C_R   0.531335 0.158059 0.853399 0.599840
C18   C     C_R   0.468374 0.155156 0.146166 0.584945
C19   C     C_R   0.031334 0.658061 0.853396 0.599893
C20   C     C_R   0.968367 0.655155 0.146161 0.584949
O41   O     O_R   0.545750 0.051070 0.830560 -0.482568
O42   O     O_R   0.454250 0.051070 0.169440 -0.499514
O43   O     O_R   0.045750 0.551070 0.830560 -0.482551
O44   O     O_R   0.954250 0.551070 0.169440 -0.499505
O45   O     O_R   0.681210 0.959150 0.825320 -0.466022
O46   O     O_R   0.318790 0.959150 0.174680 -0.463898
O47   O     O_R   0.181210 0.459150 0.825320 -0.466166
O48   O     O_R   0.818790 0.459150 0.174680 -0.463936
C21   C     C_R   0.741513 0.967513 0.853008 0.560754
C22   C     C_R   0.258723 0.969692 0.146156 0.612825
C23   C     C_R   0.241514 0.467516 0.853007 0.560712
C24   C     C_R   0.758722 0.469690 0.146156 0.612823
Cr1   Cr    Cr6+3 0.771950 0.169480 0.750100 1.044946
Cr2   Cr    Cr6+3 0.228050 0.169480 0.249900 1.045004
Cr3   Cr    Cr6+3 0.271950 0.669480 0.750100 1.044929
Cr4   Cr    Cr6+3 0.728050 0.669480 0.249900 1.045015
Cr5   Cr    Cr6+3 0.614930 0.323340 0.749170 1.098320
Cr6   Cr    Cr6+3 0.385070 0.323340 0.250830 1.117612
Cr7   Cr    Cr6+3 0.114930 0.823340 0.749170 1.098356
Cr8   Cr    Cr6+3 0.885070 0.823340 0.250830 1.117610
Cr9   Cr    Cr6+3 0.616590 0.010620 0.750610 1.074240
Cr10  Cr    Cr6+3 0.383410 0.010620 0.249390 1.076275
Cr11  Cr    Cr6+3 0.116590 0.510620 0.750610 1.074193
Cr12  Cr    Cr6+3 0.883410 0.510620 0.249390 1.076272
O49   O     O_3   0.667820 0.167810 0.749960 -0.310704
O50   O     O_3   0.332180 0.167810 0.250040 -0.311314
O51   O     O_3   0.167820 0.667810 0.749960 -0.310700
O52   O     O_3   0.832180 0.667810 0.250040 -0.311318
C25   C     C_R   0.500106 0.162450 0.422515 0.051262
C26   C     C_R   0.540199 0.156300 0.565519 0.016707
C27   C     C_R   0.000106 0.662450 0.422515 0.051260
C28   C     C_R   0.040199 0.656300 0.565519 0.016708
C29   C     C_R   0.482799 0.258317 0.468664 -0.031409
C30   C     C_R   0.504153 0.256636 0.538542 0.026099
C31   C     C_R   0.982799 0.758317 0.468664 -0.031409
C32   C     C_R   0.004153 0.756636 0.538542 0.026100
C33   C     C_R   0.550821 0.054099 0.521523 -0.148066
C34   C     C_R   0.532136 0.057654 0.450385 -0.125554
C35   C     C_R   0.050820 0.554099 0.521523 -0.148067
C36   C     C_R   0.032136 0.557654 0.450385 -0.125554
C37   C     C_3   0.494732 0.394188 0.462844 -0.069862
C38   C     C_3   0.521597 0.391379 0.539131 -0.064344
C39   C     C_3   0.994732 0.894188 0.462844 -0.069862
C40   C     C_3   0.021597 0.891378 0.539131 -0.064345
H1    H     H_    0.574295 0.972100 0.542035 0.139590
H2    H     H_    0.541909 0.977689 0.417512 0.148674
H3    H     H_    0.074295 0.472100 0.542035 0.139590
H4    H     H_    0.041909 0.477689 0.417512 0.148675
H5    H     H_    0.944471 0.943313 0.456637 0.130876
H6    H     H_    0.078687 0.909268 0.544970 0.123036
H7    H     H_    0.444472 0.443313 0.456637 0.130876
H8    H     H_    0.578688 0.409268 0.544970 0.123037
C41   C     C_R   0.698810 0.863356 0.537359 -0.156089
C42   C     C_R   0.301440 0.867192 0.462473 -0.128457
C43   C     C_R   0.198810 0.363356 0.537359 -0.156089
C44   C     C_R   0.801440 0.367192 0.462473 -0.128457
H9    H     H_    0.659491 0.812895 0.567271 0.132517
H10   H     H_    0.337518 0.813178 0.431109 0.134767
H11   H     H_    0.159491 0.312895 0.567271 0.132515
H12   H     H_    0.837518 0.313178 0.431109 0.134767
C45   C     C_R   0.699672 0.854171 0.463721 -0.144894
C46   C     C_R   0.299259 0.852425 0.535683 -0.127437
C47   C     C_R   0.199672 0.354171 0.463721 -0.144894
C48   C     C_R   0.799259 0.352425 0.535683 -0.127436
H13   H     H_    0.662282 0.793816 0.437621 0.132796
H14   H     H_    0.331877 0.783771 0.559603 0.131968
H15   H     H_    0.162282 0.293816 0.437621 0.132796
H16   H     H_    0.831877 0.283772 0.559603 0.131968
C49   C     C_R   0.750860 0.918480 0.424628 0.033530
C50   C     C_R   0.251619 0.920289 0.576635 0.031447
C51   C     C_R   0.250860 0.418480 0.424628 0.033530
C52   C     C_R   0.751619 0.420289 0.576635 0.031448
C53   C     C_R   0.796526 0.000394 0.458825 -0.137251
C54   C     C_R   0.211725 0.011250 0.545000 -0.138226
C55   C     C_R   0.296526 0.500394 0.458825 -0.137251
C56   C     C_R   0.711725 0.511250 0.545000 -0.138225
H17   H     H_    0.835524 0.053310 0.429838 0.141613
H18   H     H_    0.175597 0.066530 0.575604 0.144648
H19   H     H_    0.335524 0.553310 0.429838 0.141613
H20   H     H_    0.675597 0.566531 0.575604 0.144648
C57   C     C_R   0.796627 0.007667 0.531411 -0.112987
C58   C     C_R   0.212537 0.023476 0.472488 -0.098838
C59   C     C_R   0.296627 0.507667 0.531411 -0.112987
C60   C     C_R   0.712537 0.523477 0.472488 -0.098838
H21   H     H_    0.834366 0.069539 0.555740 0.154494
H22   H     H_    0.178218 0.090101 0.449378 0.147579
H23   H     H_    0.334366 0.569539 0.555740 0.154495
H24   H     H_    0.678218 0.590101 0.449378 0.147579
C61   C     C_R   0.747882 0.939597 0.571562 0.043979
C62   C     C_R   0.255790 0.949541 0.430346 0.066237
C63   C     C_R   0.247882 0.439597 0.571562 0.043980
C64   C     C_R   0.755790 0.449541 0.430346 0.066236
C65   C     C_R   0.477182 0.059358 0.956648 0.012103
C66   C     C_R   0.483044 0.047741 0.029975 -0.005494
C67   C     C_R   0.977135 0.559386 0.956629 0.012192
C68   C     C_R   0.982995 0.547755 0.029958 -0.005478
C69   C     C_R   0.497421 0.153567 0.073239 -0.031083
C70   C     C_R   0.501786 0.169320 0.925461 -0.008434
C71   C     C_R   0.997397 0.653568 0.073226 -0.031121
C72   C     C_R   0.001767 0.669334 0.925450 -0.008422
C73   C     C_R   0.524403 0.261816 0.042968 0.005348
C74   C     C_R   0.520629 0.273732 0.968327 -0.022862
C75   C     C_R   0.024390 0.761812 0.042959 0.005361
C76   C     C_R   0.020619 0.773736 0.968320 -0.022846
C77   C     C_R   0.816444 0.948323 0.953728 -0.077281
C78   C     C_R   0.276342 0.028326 0.024649 -0.124086
C79   C     C_R   0.316458 0.448299 0.953721 -0.077275
C80   C     C_R   0.776334 0.528325 0.024649 -0.124021
H25   H     H_    0.856310 0.996558 0.923509 0.226505
H26   H     H_    0.298034 0.113419 0.045527 0.106902
H27   H     H_    0.356327 0.496518 0.923499 0.226502
H28   H     H_    0.798027 0.613418 0.045527 0.106874
C81   C     C_R   0.827982 0.933456 0.024773 0.045918
C82   C     C_R   0.270486 0.012282 0.951567 0.052170
C83   C     C_R   0.327991 0.433439 0.024770 0.045909
C84   C     C_R   0.770476 0.512282 0.951568 0.052148
C85   C     C_R   0.777440 0.865074 0.064818 -0.010220
C86   C     C_R   0.243091 0.900179 0.926791 0.042613
C87   C     C_R   0.277441 0.365073 0.064817 -0.010222
C88   C     C_R   0.743088 0.400174 0.926792 0.042645
C89   C     C_R   0.717131 0.817717 0.031023 -0.117792
C90   C     C_R   0.227043 0.804026 0.973771 -0.111078
C91   C     C_R   0.217124 0.317744 0.031023 -0.117791
C92   C     C_R   0.727044 0.304020 0.973772 -0.111026
H29   H     H_    0.680118 0.761285 0.060475 0.188479
H30   H     H_    0.208397 0.716633 0.952635 0.131413
H31   H     H_    0.180092 0.261339 0.060470 0.188382
H32   H     H_    0.708401 0.216625 0.952636 0.131396
C93   C     C_R   0.704710 0.838703 0.959146 0.038031
C94   C     C_R   0.234011 0.819508 0.047010 0.052790
C95   C     C_R   0.204709 0.338751 0.959149 0.038094
C96   C     C_R   0.734009 0.319505 0.047012 0.052802
C97   C     C_R   0.754489 0.910129 0.921136 0.007028
C98   C     C_R   0.254943 0.936254 0.071969 0.039684
C99   C     C_R   0.254497 0.410132 0.921134 0.007010
C100  C     C_R   0.754939 0.436252 0.071970 0.039725
C101  C     C_2   0.892730 0.997761 0.050837 0.593941
O53   O     O_2   0.928542 0.954743 0.097276 -0.468522
O54   O     O_R   0.915896 0.105199 0.017280 -0.656089
H33   H     H_    0.963678 0.134159 0.034377 0.400302
C102  C     C_2   0.296210 0.110591 0.903304 0.599082
O55   O     O_2   0.339085 0.186118 0.924936 -0.547534
O56   O     O_R   0.274091 0.115631 0.832805 -0.639001
H34   H     H_    0.296324 0.186613 0.805991 0.359300
C103  C     C_2   0.392737 0.497748 0.050835 0.593946
O57   O     O_2   0.428545 0.454740 0.097279 -0.468524
O58   O     O_R   0.415904 0.605182 0.017273 -0.656094
H35   H     H_    0.463687 0.634140 0.034368 0.400352
C104  C     C_2   0.796187 0.610599 0.903304 0.598893
O59   O     O_2   0.839064 0.686128 0.924930 -0.547542
O60   O     O_R   0.774050 0.615651 0.832811 -0.639088
H36   H     H_    0.796276 0.686637 0.805995 0.359325
C105  C     C_2   0.642520 0.777766 0.926017 0.616765
O61   O     O_2   0.589934 0.757848 0.961542 -0.442547
O62   O     O_R   0.645135 0.735837 0.855869 -0.639094
H37   H     H_    0.599994 0.693476 0.840462 0.343818
C106  C     C_2   0.219904 0.713442 0.094779 0.603768
O63   O     O_2   0.189188 0.622054 0.072090 -0.525564
O64   O     O_R   0.242125 0.716412 0.165336 -0.661757
H38   H     H_    0.229613 0.638274 0.191725 0.358282
C107  C     C_2   0.142486 0.277949 0.926021 0.616637
O65   O     O_2   0.089789 0.258535 0.961486 -0.442655
O66   O     O_R   0.145165 0.235665 0.855940 -0.639076
H39   H     H_    0.099973 0.193489 0.840514 0.343792
C108  C     C_2   0.719901 0.213439 0.094781 0.603737
O67   O     O_2   0.689189 0.122049 0.072092 -0.525592
O68   O     O_R   0.742116 0.216415 0.165340 -0.661765
H40   H     H_    0.729604 0.138278 0.191729 0.358285
C109  C     C_2   0.548439 0.431465 0.408097 0.577495
O69   O     O_2   0.601581 0.371599 0.399388 -0.516448
O70   O     O_R   0.535763 0.533684 0.365907 -0.689414
H41   H     H_    0.574018 0.548635 0.329480 0.355929
C110  C     C_2   0.477801 0.466429 0.589530 0.561483
O71   O     O_2   0.439012 0.416618 0.632740 -0.476121
O72   O     O_R   0.482464 0.594443 0.586650 -0.720361
H42   H     H_    0.451019 0.635828 0.622785 0.334332
C111  C     C_2   0.048439 0.931465 0.408098 0.577494
O73   O     O_2   0.101581 0.871600 0.399388 -0.516449
O74   O     O_R   0.035763 0.033685 0.365908 -0.689414
H43   H     H_    0.074018 0.048637 0.329481 0.355927
C112  C     C_2   0.977801 0.966428 0.589530 0.561484
O75   O     O_2   0.939011 0.916617 0.632740 -0.476112
O76   O     O_R   0.982464 0.094443 0.586650 -0.720362
H44   H     H_    0.951018 0.135827 0.622786 0.334331
C113  C     C_2   0.446718 0.956640 0.911339 0.623458
O77   O     O_2   0.453026 0.848957 0.927649 -0.442952
O78   O     O_R   0.413221 0.984256 0.847633 -0.659868
H45   H     H_    0.396627 0.908256 0.820916 0.342600
C114  C     C_2   0.476218 0.923312 0.061166 0.677419
O79   O     O_2   0.527714 0.874052 0.086097 -0.462117
O80   O     O_R   0.410113 0.867650 0.066773 -0.655472
H46   H     H_    0.410088 0.793424 0.098825 0.357589
C115  C     C_2   0.946636 0.456714 0.911305 0.623489
O81   O     O_2   0.952829 0.349019 0.927644 -0.442827
O82   O     O_R   0.913215 0.484384 0.847565 -0.659859
H47   H     H_    0.896581 0.408411 0.820846 0.342595
C116  C     C_2   0.976156 0.423326 0.061147 0.677568
O83   O     O_2   0.027642 0.374073 0.086104 -0.462033
O84   O     O_R   0.910049 0.367671 0.066742 -0.655479
H48   H     H_    0.910014 0.293450 0.098798 0.357600
C117  C     C_2   0.560541 0.354399 0.090609 0.636474
O85   O     O_2   0.585552 0.320771 0.146764 -0.485692
O86   O     O_R   0.565227 0.478827 0.073361 -0.629503
H49   H     H_    0.588523 0.530622 0.111601 0.357989
C118  C     C_2   0.532309 0.395150 0.934473 0.656131
O87   O     O_2   0.587241 0.451990 0.942887 -0.462849
O88   O     O_R   0.481206 0.441030 0.889277 -0.666369
H50   H     H_    0.494999 0.523521 0.868471 0.348223
C119  C     C_2   0.060537 0.854383 0.090602 0.636502
O89   O     O_2   0.085551 0.820743 0.146753 -0.485685
O90   O     O_R   0.065224 0.978814 0.073361 -0.629604
H51   H     H_    0.088525 0.030600 0.111601 0.357962
C120  C     C_2   0.032301 0.895158 0.934469 0.656091
O91   O     O_2   0.087233 0.951997 0.942885 -0.462974
O92   O     O_R   0.981197 0.941042 0.889275 -0.666357
H52   H     H_    0.994991 0.023536 0.868471 0.348195

loop_
_geom_bond_atom_site_label_1
_geom_bond_atom_site_label_2
_geom_bond_distance
_ccdc_geom_bond_type
O7    Cr3   1.957099 S    
C18   O42   1.244146 A    
C70   C74   1.433374 A    
Cr11  O51   1.959774 S    
C17   C70   1.474821 S    
O4    C12   1.268859 A    
C53   H17   1.083734 S    
C37   C38   1.529823 S    
O39   C19   1.265138 A    
O32   C16   1.310459 A    
O20   Cr12  2.073650 S    
O5    Cr1   1.957099 S    
O12   Cr8   2.071774 S    
C102  O55   1.221308 D    
C58   H22   1.078978 S    
C38   H8    1.109560 S    
C31   C32   1.381273 A    
C20   C71   1.481427 S    
C28   C32   1.398585 A    
C60   H24   1.078976 S    
Cr7   O51   1.983440 S    
C73   C74   1.416968 A    
C10   C62   1.453373 S    
C57   C61   1.404312 A    
O80   H46   1.012688 S    
O46   C22   1.274520 A    
C105  O61   1.222339 D    
O7    C3    1.277927 A    
C114  O79   1.222659 D    
C29   C30   1.381271 A    
C75   C119  1.507537 S    
C72   C76   1.433362 A    
C46   C50   1.405287 A    
O74   H43   1.013027 S    
C116  O83   1.222658 D    
C15   C86   1.441199 S    
C51   C55   1.394947 A    
C89   H29   1.084043 S    
C73   C117  1.507537 S    
C90   H30   1.085351 S    
C115  O81   1.222036 D    
O45   C21   1.266933 A    
O47   C23   1.266964 A    
O46   Cr10  1.949962 S    
C77   C81   1.369869 A    
O76   H44   1.013956 S    
C111  O74   1.396995 S    
C33   C34   1.390514 A    
O82   H47   1.013718 S    
O8    Cr4   1.941845 S    
O23   Cr11  1.951204 S    
C84   C104  1.487198 S    
C48   C52   1.405288 A    
O32   Cr4   1.947837 S    
C112  O75   1.223616 D    
O30   C14   1.310459 A    
C38   C110  1.507541 S    
C65   C70   1.411696 A    
C101  O54   1.399679 S    
O68   H40   1.014034 S    
C1    O9    1.274284 A    
C2    C51   1.449832 S    
O44   Cr12  2.067376 S    
C5    O17   1.290731 A    
C13   C88   1.441193 S    
C108  O68   1.398207 S    
C3    O11   1.274284 A    
O11   Cr7   2.068103 S    
C7    O19   1.290731 A    
C4    O12   1.262935 A    
O21   C9    1.275757 A    
O28   Cr4   2.059906 S    
C65   C113  1.514094 S    
C88   C92   1.406263 A    
O72   H42   1.013953 S    
C92   C96   1.397228 A    
O6    Cr2   1.941845 S    
C34   H2    1.083531 S    
C120  O92   1.396958 S    
O27   Cr3   2.078713 S    
C27   C36   1.407628 A    
O19   Cr11  2.085304 S    
O3    Cr3   2.058395 S    
C118  O87   1.220172 D    
C82   C86   1.399553 A    
C26   C33   1.400423 A    
C117  O86   1.397328 S    
O2    Cr2   2.066544 S    
C56   H20   1.083804 S    
C24   C100  1.445429 S    
C48   H16   1.081129 S    
C33   H1    1.079066 S    
C22   C98   1.445430 S    
O2    C10   1.268860 A    
C59   C63   1.404312 A    
O42   Cr10  2.067376 S    
C60   C64   1.402190 A    
Cr5   O49   1.983440 S    
O54   H33   1.013528 S    
O18   Cr10  2.073650 S    
O28   C24   1.275677 A    
C119  O89   1.223599 D    
Cr8   O52   1.959772 S    
O17   Cr9   2.085304 S    
C102  O56   1.398200 S    
C50   C54   1.395731 A    
C11   C63   1.452035 S    
O8    C4    1.267670 A    
O34   Cr6   2.082344 S    
O13   Cr5   1.944333 S    
C16   C85   1.461865 S    
C31   C39   1.498751 S    
C26   C30   1.398586 A    
C67   C68   1.394854 A    
C87   C91   1.407344 A    
C5    C26   1.448527 S    
C105  O62   1.397834 S    
C77   H25   1.081468 S    
O24   Cr12  1.946875 S    
O9    Cr5   2.068103 S    
C36   H4    1.083531 S    
C78   C82   1.393091 A    
C4    C49   1.449835 S    
O22   C10   1.277565 A    
O1    C9    1.258420 A    
O58   H35   1.013525 S    
O48   Cr12  1.949962 S    
O14   Cr6   1.963920 S    
C41   C61   1.399243 A    
C76   C120  1.486060 S    
O86   H49   1.012866 S    
C43   C47   1.392046 A    
O66   H39   1.013954 S    
C104  O59   1.221309 D    
C2    O10   1.262935 A    
C110  O71   1.223616 D    
C29   C37   1.498751 S    
O64   H38   1.014033 S    
C89   C93   1.398024 A    
O16   Cr8   1.963920 S    
C12   C64   1.453373 S    
C115  O82   1.399365 S    
C15   O35   1.271709 A    
C44   C64   1.400726 A    
C106  O63   1.223612 D    
C103  O57   1.213181 D    
C81   C101  1.494651 S    
C82   C102  1.487205 S    
O13   C5    1.292645 A    
Cr4   O52   1.986900 S    
C44   H12   1.083211 S    
C92   H32   1.085350 S    
O48   C24   1.274527 A    
C116  O84   1.395816 S    
Cr12  O52   1.982637 S    
C46   H14   1.081129 S    
C43   C63   1.399243 A    
O15   C7    1.292645 A    
O62   H37   1.013925 S    
C45   H13   1.080987 S    
C109  O69   1.222803 D    
C93   C97   1.415596 A    
C54   C58   1.375201 A    
C107  O65   1.222520 D    
O39   Cr7   1.948179 S    
C19   C72   1.474805 S    
C80   H28   1.082095 S    
C47   H15   1.080987 S    
O60   H36   1.014018 S    
C96   C100  1.406082 A    
C84   C88   1.399545 A    
C52   C56   1.395730 A    
C21   C97   1.456200 S    
C108  O67   1.223606 D    
O36   Cr8   2.082344 S    
C86   C90   1.406264 A    
O47   Cr11  1.964958 S    
Cr2   O50   1.986900 S    
O15   Cr7   1.944333 S    
C39   C111  1.506111 S    
C110  O72   1.397176 S    
O35   Cr7   2.060005 S    
Cr1   O49   1.986404 S    
C40   C112  1.507540 S    
C42   H10   1.083212 S    
O30   Cr2   1.947837 S    
C93   C105  1.488841 S    
C66   C69   1.431701 A    
C41   H9    1.083141 S    
Cr3   O51   1.986404 S    
O26   C22   1.275683 A    
O92   H52   1.013901 S    
C107  O66   1.397939 S    
O21   Cr9   1.951204 S    
C78   H26   1.082098 S    
C114  O80   1.395826 S    
C43   H11   1.083141 S    
C113  O78   1.399336 S    
C83   C87   1.427661 A    
O37   Cr5   1.948179 S    
O38   C18   1.296954 A    
O25   C21   1.271011 A    
C49   C53   1.394947 A    
C106  O64   1.398215 S    
C42   C62   1.400726 A    
O3    C11   1.258420 A    
O84   H48   1.012687 S    
C3    C50   1.452446 S    
C69   C73   1.404071 A    
C59   H23   1.080697 S    
O70   H41   1.013025 S    
C8    O20   1.257483 A    
C40   H6    1.109563 S    
O31   Cr3   1.937137 S    
C79   C83   1.369891 A    
C68   C116  1.484862 S    
O26   Cr2   2.059906 S    
C1    C52   1.452447 S    
C7    C28   1.448527 S    
C80   C84   1.393087 A    
C32   C40   1.500243 S    
O25   Cr1   2.078713 S    
C96   C108  1.490841 S    
C37   C109  1.506110 S    
O37   C17   1.265163 A    
O22   Cr10  1.946875 S    
C44   C48   1.391801 A    
C47   C51   1.404099 A    
C67   C72   1.411676 A    
O14   C6    1.273166 A    
C79   C99   1.391424 A    
C14   C87   1.461878 S    
C68   C71   1.431726 A    
C78   C98   1.402610 A    
O5    C1    1.277926 A    
C18   C69   1.481417 S    
C77   C97   1.391448 A    
C54   H18   1.083805 S    
C79   H27   1.081467 S    
O78   H45   1.013714 S    
O24   C12   1.277565 A    
C17   O41   1.272777 A    
C91   C95   1.397979 A    
C66   C114  1.484858 S    
C57   H21   1.080697 S    
C37   H7    1.111227 S    
C83   C103  1.494643 S    
C35   H3    1.079065 S    
C14   O34   1.275634 A    
C74   C118  1.486053 S    
C19   O43   1.272791 A    
O40   Cr8   1.952634 S    
O29   C13   1.269286 A    
C20   O44   1.244144 A    
C25   C34   1.407628 A    
C39   H5    1.111228 S    
O88   H50   1.013900 S    
O1    Cr1   2.058395 S    
C58   C62   1.402189 A    
C119  O90   1.397329 S    
C65   C66   1.394813 A    
C45   C49   1.404099 A    
C80   C100  1.402607 A    
C94   C106  1.490840 S    
C56   C60   1.375203 A    
C118  O88   1.396954 S    
O41   Cr9   2.070860 S    
C35   C36   1.390514 A    
Cr10  O50   1.982637 S    
C67   C115  1.514132 S    
Cr6   O50   1.959772 S    
C117  O85   1.223599 D    
C85   C89   1.407321 A    
C111  O73   1.222803 D    
O23   C11   1.275757 A    
C55   C59   1.370978 A    
C104  O60   1.398198 S    
C6    C25   1.445869 S    
O33   Cr5   2.060005 S    
C13   O33   1.271704 A    
C55   H19   1.083734 S    
C71   C75   1.404078 A    
O10   Cr6   2.071774 S    
C25   C29   1.397151 A    
C101  O53   1.213183 D    
C95   C99   1.415504 A    
O4    Cr4   2.066544 S    
C75   C76   1.416952 A    
O6    C2    1.267671 A    
C94   C98   1.406080 A    
O29   Cr1   1.937137 S    
C8    C27   1.445871 S    
C42   C46   1.391801 A    
O40   C20   1.296952 A    
C95   C107  1.488679 S    
C16   O36   1.275628 A    
C41   C45   1.392046 A    
C30   C38   1.500244 S    
C27   C31   1.397151 A    
C109  O70   1.396994 S    
C6    O18   1.257483 A    
O43   Cr11  2.070860 S    
C39   C40   1.529822 S    
O27   C23   1.270968 A    
O45   Cr9   1.964958 S    
C23   C99   1.456187 S    
C9    C61   1.452035 S    
C53   C57   1.370980 A    
C90   C94   1.397224 A    
O56   H34   1.014018 S    
C112  O76   1.397176 S    
C81   C85   1.427630 A    
C113  O77   1.222020 D    
C103  O58   1.399679 S    
O31   C15   1.269289 A    
O16   C8    1.273165 A    
Cr9   O49   1.959774 S    
C91   H31   1.084052 S    
O90   H51   1.012866 S    
C28   C35   1.400423 A    
O38   Cr6   1.952634 S    
C120  O91   1.220176 D    
