data_mof_unit_30778.cif
_audit_creation_date              2012-12-11T15:52:21-0500
_audit_creation_method            fapswitch 2.2
_symmetry_space_group_name_H-M    P1
_symmetry_Int_Tables_number       1
_space_group_crystal_system       triclinic
_cell_length_a                    11.061002
_cell_length_b                    11.064312
_cell_length_c                    18.815043
_cell_angle_alpha                 89.953691
_cell_angle_beta                  89.741193
_cell_angle_gamma                 120.402445
_cell_volume                      1985.9668157

loop_
_atom_site_label
_atom_site_type_symbol
_atom_type_description
_atom_site_fract_x
_atom_site_fract_y
_atom_site_fract_z
_atom_type_partial_charge
C1    C     C_R   0.522362 0.454497 0.145517 0.530005
C2    C     C_3   0.954047 0.706765 0.460933 -0.269725
C3    C     C_3   0.752098 0.042722 0.459384 -0.268740
C4    C     C_3   0.289679 0.246828 0.460876 -0.269998
C5    C     C_R   0.517354 0.458085 0.352913 0.546619
C6    C     C_R   0.541663 0.059488 0.352985 0.544429
C7    C     C_R   0.940114 0.482460 0.352989 0.548084
C8    C     C_R   0.453878 0.522525 0.644010 0.547657
C9    C     C_R   0.069448 0.546681 0.644006 0.546905
C10   C     C_R   0.477828 0.930945 0.644056 0.546317
C11   C     C_R   0.493221 0.983299 0.925746 0.017815
C12   C     C_R   0.545284 0.065926 0.146371 0.524504
C13   C     C_R   0.975162 0.490585 0.917641 -0.022236
C14   C     C_R   0.497374 0.493389 0.922105 -0.019054
C15   C     C_R   0.917280 0.469430 0.064674 0.041056
C16   C     C_R   0.519287 0.017084 0.073646 0.021927
C17   C     C_R   0.509477 0.479905 0.070987 0.052198
C18   C     C_R   0.373992 0.928976 0.969851 0.022664
C19   C     C_R   0.964228 0.378534 0.957630 -0.013395
C20   C     C_R   0.616301 0.592712 0.959069 -0.023998
C21   C     C_R   0.944367 0.373983 0.030624 -0.006237
C22   C     C_R   0.386610 0.946800 0.042932 0.026288
C23   C     C_R   0.881198 0.456602 0.139837 0.556149
C24   C     C_R   0.622688 0.584794 0.032439 -0.015414
C25   C     C_R   0.637703 0.057357 0.030045 -0.095129
C26   C     C_R   0.905098 0.567154 0.022912 -0.108194
C27   C     C_R   0.398281 0.372897 0.033070 -0.096794
C28   C     C_R   0.931875 0.576557 0.950175 -0.149262
C29   C     C_R   0.624945 0.042671 0.957193 -0.155445
C30   C     C_R   0.395000 0.377597 0.959999 -0.108870
C31   C     C_3   0.251746 0.952143 0.967974 0.199878
C32   C     C_3   0.065969 0.328477 0.964004 0.176955
C33   C     C_3   0.690697 0.749846 0.959374 0.197111
C34   C     C_R   0.457309 0.519742 0.852799 0.539653
C35   C     C_3   0.056897 0.339426 0.044333 0.179288
C36   C     C_3   0.267318 0.973370 0.048133 0.183637
C37   C     C_3   0.695566 0.740648 0.040178 0.180171
C38   C     C_R   0.485710 0.960305 0.568728 0.018050
C39   C     C_R   0.040180 0.525297 0.568636 0.017752
C40   C     C_R   0.475286 0.514918 0.568559 0.017738
C41   C     C_R   0.012800 0.513062 0.420505 0.013839
C42   C     C_R   0.498781 0.986259 0.420605 0.014025
C43   C     C_R   0.486894 0.500625 0.420383 0.013726
C44   C     C_R   0.587757 0.950639 0.530004 0.045413
C45   C     C_R   0.058999 0.540738 0.852048 0.540956
C46   C     C_R   0.048209 0.636782 0.530369 0.045501
C47   C     C_R   0.362777 0.411519 0.530581 0.046079
C48   C     C_R   0.035677 0.632028 0.458077 0.028888
C49   C     C_R   0.594525 0.962372 0.457640 0.029461
C50   C     C_R   0.367075 0.404225 0.458235 0.028358
C51   C     C_R   0.379561 0.968306 0.457081 -0.166057
C52   C     C_R   0.032155 0.412449 0.456267 -0.166561
C53   C     C_R   0.588904 0.620832 0.455980 -0.166039
C54   C     C_R   0.044418 0.417796 0.530615 -0.159745
C55   C     C_R   0.373735 0.956838 0.531446 -0.159098
C56   C     C_R   0.478671 0.934953 0.853282 0.543957
C57   C     C_R   0.583883 0.627247 0.530375 -0.160019
C58   C     C_3   0.247101 0.057645 0.860975 -0.086578
C59   C     C_3   0.989330 0.177099 0.868359 -0.104091
C60   C     C_3   0.823470 0.795286 0.856293 -0.118103
C61   C     C_3   0.198973 0.450358 0.142682 -0.083276
C62   C     C_3   0.151646 0.902536 0.156344 -0.087934
C63   C     C_3   0.659918 0.828961 0.143854 -0.114407
C64   C     C_3   0.742713 0.028768 0.539272 -0.280633
C65   C     C_3   0.969136 0.711606 0.540730 -0.280081
C66   C     C_3   0.285568 0.256617 0.540767 -0.280532
Cr1   Cr    Cr6+3 0.769160 0.541570 0.250690 0.967479
Cr2   Cr    Cr6+3 0.458430 0.227590 0.250690 0.967455
Cr3   Cr    Cr6+3 0.772410 0.230840 0.250690 0.968865
Cr4   Cr    Cr6+3 0.541570 0.769160 0.749310 0.972821
Cr5   Cr    Cr6+3 0.227590 0.458430 0.749310 0.970014
Cr6   Cr    Cr6+3 0.230840 0.772410 0.749310 0.975150
H1    H     H_    0.742231 0.106193 0.051750 0.153970
H2    H     H_    0.020388 0.238155 0.072782 0.123299
H3    H     H_    0.300236 0.082081 0.064493 0.137889
H4    H     H_    0.805051 0.789256 0.060511 0.138295
H5    H     H_    0.297690 0.974912 0.429262 0.118150
H6    H     H_    0.026320 0.324579 0.427965 0.118916
H7    H     H_    0.677840 0.702993 0.427480 0.118274
H8    H     H_    0.052126 0.336233 0.558188 0.129290
H9    H     H_    0.285126 0.950234 0.559578 0.129060
H10   H     H_    0.666537 0.716357 0.557851 0.127870
H11   H     H_    0.783053 0.962173 0.560280 0.131322
H12   H     H_    0.884330 0.642477 0.047409 0.162819
H13   H     H_    0.035614 0.819489 0.561486 0.131442
H14   H     H_    0.178053 0.215453 0.562292 0.131305
H15   H     H_    0.843797 0.639036 0.444251 0.169371
H16   H     H_    0.797094 0.152941 0.442004 0.170347
H17   H     H_    0.355431 0.203075 0.443406 0.169124
H18   H     H_    0.781293 0.130300 0.567161 0.133760
H19   H     H_    0.868063 0.646904 0.569402 0.133720
H20   H     H_    0.349078 0.219202 0.568639 0.132897
H21   H     H_    0.010963 0.811941 0.435396 0.122698
H22   H     H_    0.798456 0.984643 0.433976 0.122559
H23   H     H_    0.309602 0.287216 0.059824 0.151131
H24   H     H_    0.184419 0.199268 0.436028 0.122989
H25   H     H_    0.173857 0.947261 0.845449 0.128160
H26   H     H_    0.344073 0.103031 0.828286 0.145339
H27   H     H_    0.195813 0.117443 0.847294 0.118819
H28   H     H_    0.089207 0.242299 0.839719 0.152101
H29   H     H_    0.909915 0.203980 0.851005 0.115422
H30   H     H_    0.951388 0.068490 0.852299 0.133193
H31   H     H_    0.769860 0.844887 0.829941 0.156075
H32   H     H_    0.774938 0.682981 0.841722 0.130226
H33   H     H_    0.932094 0.847383 0.835475 0.097519
H34   H     H_    0.934698 0.661720 0.921375 0.176266
H35   H     H_    0.170102 0.343659 0.161558 0.098107
H36   H     H_    0.141330 0.491793 0.172293 0.166941
H37   H     H_    0.310925 0.521283 0.155493 0.153095
H38   H     H_    0.172841 0.011566 0.163043 0.092478
H39   H     H_    0.228196 0.886157 0.186570 0.148414
H40   H     H_    0.046589 0.833587 0.179794 0.151029
H41   H     H_    0.754384 0.935196 0.140951 0.136580
H42   H     H_    0.688754 0.760375 0.172717 0.122005
H43   H     H_    0.576580 0.830983 0.175794 0.160916
H44   H     H_    0.718088 0.075070 0.925596 0.162765
H45   H     H_    0.301144 0.299080 0.934596 0.206587
H46   H     H_    0.151111 0.858097 0.952720 0.161190
H47   H     H_    0.170532 0.402117 0.941053 0.166687
H48   H     H_    0.627227 0.795182 0.940180 0.177252
O1    O     O_R   0.911480 0.572650 0.170990 -0.523141
O2    O     O_R   0.528970 0.640340 0.824320 -0.526408
O3    O     O_R   0.111370 0.471030 0.824320 -0.528736
O4    O     O_R   0.359660 0.888630 0.824320 -0.517107
O5    O     O_R   0.909980 0.572450 0.331530 -0.528125
O6    O     O_R   0.427550 0.337530 0.331530 -0.525664
O7    O     O_R   0.662470 0.090020 0.331530 -0.527460
O8    O     O_R   0.572450 0.909980 0.668470 -0.524114
O9    O     O_R   0.337530 0.427550 0.668470 -0.524709
O10   O     O_R   0.090020 0.662470 0.668470 -0.523973
O11   O     O_R   0.638950 0.528780 0.324500 -0.511884
O12   O     O_R   0.427350 0.338830 0.170990 -0.550324
O13   O     O_R   0.471220 0.110170 0.324500 -0.510376
O14   O     O_R   0.889830 0.361050 0.324500 -0.507633
O15   O     O_R   0.528780 0.638950 0.675500 -0.511502
O16   O     O_R   0.110170 0.471220 0.675500 -0.511872
O17   O     O_R   0.361050 0.889830 0.675500 -0.513261
O18   O     O_3   0.666667 0.333333 0.250560 -0.249126
O19   O     O_3   0.333333 0.666667 0.749440 -0.234202
O20   O     O_3   0.283498 0.078143 0.933592 -0.609126
O21   O     O_3   0.007595 0.187218 0.942713 -0.579852
O22   O     O_3   0.828016 0.813351 0.930638 -0.590419
O23   O     O_R   0.661170 0.088520 0.170990 -0.553536
O24   O     O_3   0.182193 0.457502 0.068849 -0.578815
O25   O     O_3   0.150030 0.865432 0.084477 -0.581857
O26   O     O_3   0.608323 0.781180 0.074903 -0.580332
O27   O     O_R   0.572650 0.911480 0.829010 -0.551308
O28   O     O_R   0.338830 0.427350 0.829010 -0.555344
O29   O     O_R   0.088520 0.661170 0.829010 -0.540934
O30   O     O_R   0.640340 0.528970 0.175680 -0.533563
O31   O     O_R   0.471030 0.111370 0.175680 -0.525717
O32   O     O_R   0.888630 0.359660 0.175680 -0.526431

loop_
_geom_bond_atom_site_label_1
_geom_bond_atom_site_label_2
_ccdc_geom_bond_type
C44   C49   A    
C40   C47   A    
C13   C45   S    
C23   O32   A    
C11   C18   A    
Cr3   O14   S    
C16   C25   A    
Cr2   O18   S    
C58   H26   S    
C64   H18   S    
C1    O12   A    
C61   H37   S    
C3    C49   S    
C35   H2    S    
C63   O26   S    
C9    O10   A    
C44   C64   S    
C56   O4    A    
Cr5   O3    S    
Cr2   O13   S    
C53   H7    S    
C25   H1    S    
C6    O7    A    
C6    O13   A    
Cr1   O5    S    
C10   O8    A    
C39   C54   A    
C58   O20   S    
C9    C39   S    
Cr2   O12   S    
Cr1   O18   S    
C61   H36   S    
C60   O22   S    
C4    H24   S    
C63   H42   S    
C34   O28   A    
C43   C53   A    
Cr6   O19   S    
C38   C55   A    
C20   C24   A    
C28   H34   S    
C62   O25   S    
C5    O6    A    
C26   H12   S    
C13   C28   A    
C10   O17   A    
C27   C30   A    
C37   O26   S    
C55   H9    S    
C60   H31   S    
C41   C52   A    
C45   O29   A    
C35   O24   S    
C63   H43   S    
C2    C65   S    
C15   C23   S    
Cr5   O28   S    
C5    C43   S    
Cr4   O19   S    
C34   O2    A    
Cr6   O4    S    
C8    O15   A    
C59   H28   S    
Cr3   O32   S    
C12   O31   A    
C58   H25   S    
C14   C30   A    
C52   H6    S    
C19   C32   S    
Cr1   O1    S    
C18   C31   S    
C52   C54   A    
C47   C50   A    
C54   H8    S    
C31   C36   S    
C25   C29   A    
C46   C48   A    
C17   C24   A    
C13   C19   A    
C59   H29   S    
C32   C35   S    
C12   C16   S    
C1    O30   A    
C46   C65   S    
C23   O1    A    
Cr5   O16   S    
C53   C57   A    
C15   C26   A    
C66   H20   S    
C2    C48   S    
C3    C64   S    
C33   C37   S    
C4    C50   S    
C17   C27   A    
C51   H5    S    
C64   H11   S    
C38   C44   A    
C36   H3    S    
C14   C20   A    
Cr5   O9    S    
Cr4   O2    S    
C61   O24   S    
C62   H38   S    
C5    O11   A    
C24   C37   S    
C2    H15   S    
C45   O3    A    
C62   H39   S    
C65   H13   S    
C59   O21   S    
C32   O21   S    
C7    O14   A    
C39   C46   A    
C20   C33   S    
Cr6   O17   S    
C7    O5    A    
C37   H4    S    
Cr4   O15   S    
C32   H47   S    
Cr2   O6    S    
C66   H14   S    
C4    H17   S    
Cr4   O8    S    
Cr3   O18   S    
C65   H19   S    
C16   C22   A    
C40   C57   A    
C47   C66   S    
C19   C21   A    
C3    H16   S    
C18   C22   A    
C59   H30   S    
C1    C17   S    
C29   H44   S    
C2    H21   S    
Cr1   O11   S    
C58   H27   S    
C14   C34   S    
Cr5   O19   S    
C43   C50   A    
Cr6   O10   S    
C21   C35   S    
C30   H45   S    
C33   O22   S    
Cr3   O23   S    
C22   C36   S    
C42   C51   A    
C31   H46   S    
C26   C28   A    
C12   O23   A    
C10   C38   S    
C56   O27   A    
Cr2   O31   S    
C11   C29   A    
C4    C66   S    
C41   C48   A    
C3    H22   S    
C51   C55   A    
C7    C41   S    
C61   H35   S    
C60   H33   S    
C42   C49   A    
C63   H41   S    
C9    O16   A    
C36   O25   S    
C15   C21   A    
C62   H40   S    
Cr3   O7    S    
C33   H48   S    
Cr6   O29   S    
C6    C42   S    
C8    O9    A    
C57   H10   S    
Cr4   O27   S    
C8    C40   S    
C27   H23   S    
C31   O20   S    
C60   H32   S    
C11   C56   S    
Cr1   O30   S    
