data_mof_unit_23186.cif
_audit_creation_date              2012-12-11T15:59:46-0500
_audit_creation_method            fapswitch 2.2
_symmetry_space_group_name_H-M    P1
_symmetry_Int_Tables_number       1
_space_group_crystal_system       triclinic
_cell_length_a                    10.904676
_cell_length_b                    11.061061
_cell_length_c                    17.047839
_cell_angle_alpha                 101.20366
_cell_angle_beta                  100.043714
_cell_angle_gamma                 59.931285
_cell_volume                      1738.42481453

loop_
_atom_site_label
_atom_site_type_symbol
_atom_type_description
_atom_site_fract_x
_atom_site_fract_y
_atom_site_fract_z
_atom_type_partial_charge
Br1   Br    Br    0.658227 0.067866 0.272797 -0.417689
Br2   Br    Br    0.245521 0.631339 0.065556 -0.219387
Br3   Br    Br    0.806921 0.853182 0.415653 -0.277502
Br4   Br    Br    0.629602 0.298593 0.952524 -0.358620
Br5   Br    Br    0.050742 0.583174 0.828810 -0.283766
Br6   Br    Br    0.864920 0.940677 0.892624 -0.248279
Br7   Br    Br    0.916481 0.580670 0.217444 -0.273952
Br8   Br    Br    0.949330 0.825147 0.152572 -0.212656
Br9   Br    Br    0.041362 0.982998 0.333951 -0.354985
Br10  Br    Br    0.210834 0.604635 0.252205 -0.282672
C1    C     C_R   0.386533 0.703400 0.387487 0.569897
C2    C     C_R   0.869417 0.314435 0.334069 0.032166
C3    C     C_R   0.356078 0.814002 0.155056 -0.007480
C4    C     C_R   0.364396 0.339921 0.360214 0.610350
C5    C     C_R   0.447680 0.838414 0.218370 -0.050723
C6    C     C_R   0.485192 0.770817 0.287608 -0.047702
C7    C     C_R   0.317706 0.685929 0.238039 0.187667
C8    C     C_R   0.311713 0.718133 0.161665 0.227843
C9    C     C_R   0.502389 0.929020 0.217090 -0.094050
C10   C     C_R   0.603133 0.937000 0.275979 0.213027
C11   C     C_R   0.659919 0.851039 0.335626 0.231008
C12   C     C_R   0.774574 0.299516 0.197973 -0.087993
C13   C     C_R   0.604365 0.765171 0.339196 -0.077143
C14   C     C_R   0.396587 0.719840 0.303892 -0.016129
C15   C     C_R   0.344264 0.347268 0.833303 -0.011721
C16   C     C_R   0.779835 0.373133 0.403729 0.584237
C17   C     C_R   0.481875 0.268657 0.806365 -0.040613
C18   C     C_R   0.502862 0.267938 0.727553 -0.058074
C19   C     C_R   0.263541 0.475921 0.718341 0.213850
C20   C     C_R   0.237281 0.457371 0.791187 0.166123
C21   C     C_R   0.600949 0.191534 0.857757 0.228063
C22   C     C_R   0.720045 0.074065 0.826718 0.205323
C23   C     C_R   0.836100 0.234634 0.267066 -0.058595
C24   C     C_R   0.737669 0.058993 0.746614 -0.128135
C25   C     C_R   0.637481 0.161707 0.699653 -0.134803
C26   C     C_R   0.390644 0.373723 0.682190 -0.024738
C27   C     C_1   0.818374 0.343867 0.708918 -0.013117
C28   C     C_R   0.357727 0.769531 0.627051 0.551226
C29   C     C_1   0.847843 0.312276 0.775921 -0.023698
C30   C     C_1   0.338882 0.810337 0.709336 -0.002139
C31   C     C_1   0.313075 0.837826 0.777605 0.005255
C32   C     C_R   0.900092 0.312281 0.091834 0.552988
C33   C     C_R   0.289065 0.260400 0.121122 0.558761
C34   C     C_R   0.921432 0.398537 0.315949 0.195776
C35   C     C_R   0.295404 0.893373 0.085694 0.537907
C36   C     C_R   0.890813 0.294966 0.858468 0.565240
C37   C     C_R   0.309879 0.294578 0.895192 0.609652
C38   C     C_R   0.279063 0.884781 0.857631 0.562896
C39   C     C_R   0.408409 0.378085 0.599542 0.556881
C40   C     C_R   0.770695 0.383234 0.629878 0.553162
C41   C     C_1   0.321140 0.306318 0.278534 0.068826
C42   C     C_1   0.299806 0.284519 0.206858 0.018535
C43   C     C_R   0.848306 0.354908 0.173770 -0.031079
C44   C     C_R   0.906258 0.422649 0.235845 0.136854
C45   C     C_R   0.704188 0.245919 0.140875 0.289948
C46   C     C_R   0.765251 0.100842 0.123571 0.300843
C47   C     C_R   0.882001 0.019413 0.175269 0.206814
C48   C     C_R   0.913849 0.086350 0.250954 0.165005
Cl1   Cl    Cl    0.001297 0.475468 0.393184 -0.468180
Cl2   Cl    Cl    0.129372 0.627083 0.673965 -0.479729
Cl3   Cl    Cl    0.525159 0.361822 0.122412 -0.468560
Cl4   Cl    Cl    0.687115 0.022977 0.046366 -0.405629
Cr1   Cr    Cr6+3 0.608100 0.610860 0.522250 1.089300
Cr2   Cr    Cr6+3 0.288890 0.599990 0.488420 1.212984
Cr3   Cr    Cr6+3 0.603040 0.289190 0.489390 1.095780
Cr4   Cr    Cr6+3 0.053960 0.052250 0.967380 1.134953
Cr5   Cr    Cr6+3 0.059890 0.373160 0.992710 1.194778
Cr6   Cr    Cr6+3 0.373370 0.061690 0.991710 1.137425
H1    H     H_    0.658320 0.696136 0.383077 0.214970
H2    H     H_    0.834680 0.974648 0.722389 0.188239
H3    H     H_    0.674179 0.151456 0.643397 0.199000
H4    H     H_    0.468267 0.998957 0.173765 0.180047
O1    O     O_R   0.749810 0.499790 0.438040 -0.499648
O2    O     O_R   0.411730 0.181020 0.091530 -0.411039
O3    O     O_R   0.365010 0.944360 0.063320 -0.533570
O4    O     O_R   0.477660 0.726260 0.439290 -0.527377
O5    O     O_R   0.159380 0.906670 0.876210 -0.442022
O6    O     O_R   0.930820 0.177420 0.886730 -0.474436
O7    O     O_R   0.910360 0.395420 0.895720 -0.462137
O8    O     O_R   0.186010 0.361730 0.919870 -0.449884
O9    O     O_R   0.400000 0.173010 0.914630 -0.468074
O10   O     O_R   0.354140 0.936940 0.899340 -0.492849
O11   O     O_3   0.162410 0.162370 0.983930 -0.361243
O12   O     O_R   0.298970 0.468800 0.557390 -0.409384
O13   O     O_R   0.260150 0.743000 0.412270 -0.391764
O14   O     O_R   0.297740 0.466550 0.394720 -0.433743
O15   O     O_R   0.488080 0.253500 0.386430 -0.473372
O16   O     O_R   0.722670 0.303800 0.421940 -0.446551
O17   O     O_R   0.751130 0.502220 0.613520 -0.453243
O18   O     O_R   0.478890 0.728510 0.601960 -0.493432
O19   O     O_R   0.261470 0.745430 0.587750 -0.454433
O20   O     O_R   0.489400 0.255930 0.561910 -0.519361
O21   O     O_R   0.723890 0.306050 0.584610 -0.539703
O22   O     O_3   0.500010 0.500010 0.500020 -0.363825
O23   O     O_R   0.171100 0.914680 0.053100 -0.451334
O24   O     O_R   0.941680 0.184840 0.050710 -0.488877
O25   O     O_R   0.922080 0.403420 0.072610 -0.454620
O26   O     O_R   0.196880 0.369150 0.083850 -0.398143

loop_
_geom_bond_atom_site_label_1
_geom_bond_atom_site_label_2
_ccdc_geom_bond_type
Cr3   O20   S    
Br6   C22   S    
C45   C46   A    
Cr5   O11   S    
C23   C48   A    
Br2   C8    S    
C13   H1    S    
C9    C10   A    
C33   O26   A    
C43   C44   A    
Cr6   O3    S    
C5    C9    A    
Cr1   O22   S    
C3    C8    A    
C32   O24   A    
Cr6   O9    S    
C39   O12   A    
C28   C30   S    
C4    O15   A    
Br9   C48   S    
C1    O4    A    
C32   C43   S    
C36   O7    A    
C33   C42   S    
Cr1   O4    S    
C34   Cl1   S    
Cr6   O2    S    
C5    C6    A    
C1    C14   S    
C16   O1    A    
C46   C47   A    
C24   C25   A    
Cr4   O5    S    
Cr2   O12   S    
Cr5   O26   S    
Cr4   O11   S    
C21   C22   A    
C18   C25   A    
C24   H2    S    
C33   O2    A    
Cr3   O21   S    
C25   H3    S    
C6    C14   A    
C9    H4    S    
C37   O8    A    
Cr2   O14   S    
Cr3   O15   S    
C12   C43   A    
Cr4   O6    S    
C7    C14   A    
C17   C21   A    
C41   C42   T    
Cr5   O7    S    
C4    O14   A    
C32   O25   A    
C36   O6    A    
Cr1   O1    S    
C28   O19   A    
C2    C16   S    
C22   C24   A    
C38   O5    A    
C19   C20   A    
Br8   C47   S    
C40   O17   A    
C4    C41   S    
C19   C26   A    
C19   Cl2   S    
Cr1   O17   S    
C7    C8    A    
C29   C36   S    
C30   C31   T    
C6    C13   A    
C3    C5    A    
C46   Cl4   S    
Br3   C11   S    
C39   O20   A    
C35   O23   A    
Cr2   O13   S    
Cr3   O16   S    
Cr4   O24   S    
Br5   C20   S    
C15   C20   A    
C12   C23   A    
C15   C37   S    
Cr3   O22   S    
Br1   C10   S    
Cr6   O11   S    
Cr5   O8    S    
C40   O21   A    
C12   C45   A    
C15   C17   A    
C28   O18   A    
Br7   C44   S    
C35   O3    A    
Cr6   O10   S    
C11   C13   A    
Cr2   O22   S    
C2    C34   A    
C3    C35   S    
C27   C40   S    
C47   C48   A    
C1    O13   A    
C45   Cl3   S    
Cr1   O18   S    
C31   C38   S    
C38   O10   A    
C37   O9    A    
Br4   C21   S    
Cr5   O25   S    
C34   C44   A    
C27   C29   T    
C10   C11   A    
C18   C26   A    
C16   O16   A    
C17   C18   A    
Br10  C7    S    
Cr2   O19   S    
C2    C23   A    
C26   C39   S    
Cr4   O23   S    
