data_mof_unit_38523.cif
_audit_creation_date              2012-10-26T19:05:06-0400
_audit_creation_method            fapswitch 2.2
_symmetry_space_group_name_H-M    P1
_symmetry_Int_Tables_number       1
_space_group_crystal_system       triclinic
_cell_length_a                    15.926054
_cell_length_b                    10.804159
_cell_length_c                    9.725787
_cell_angle_alpha                 89.390551
_cell_angle_beta                  90.751524
_cell_angle_gamma                 95.38398
_cell_volume                      1665.8922806

loop_
_atom_site_label
_atom_site_type_symbol
_atom_type_description
_atom_site_fract_x
_atom_site_fract_y
_atom_site_fract_z
_atom_type_partial_charge
C1    C     C_R   0.502784 0.261927 0.501582 0.560753
C2    C     C_R   0.459133 0.049834 0.872463 -0.039845
C3    C     C_R   0.409446 0.937754 0.852883 -0.115438
C4    C     C_R   0.340692 0.497696 0.499103 0.530300
C5    C     C_R   0.417309 0.871745 0.732967 -0.126866
C6    C     C_R   0.462763 0.927977 0.622443 -0.030306
C7    C     C_R   0.493253 0.054343 0.630293 0.064005
C8    C     C_R   0.500684 0.124825 0.505241 0.000474
C9    C     C_R   0.484543 0.062720 0.379971 -0.153894
C10   C     C_R   0.465868 0.933909 0.376606 0.022276
C11   C     C_R   0.469550 0.865408 0.498756 -0.010612
C12   C     C_3   0.948176 0.385640 0.623736 0.004320
C13   C     C_R   0.588420 0.704123 0.138062 0.286300
C14   C     C_R   0.599685 0.818866 0.066471 0.234014
C15   C     C_R   0.590765 0.819221 0.925593 -0.103893
C16   C     C_R   0.488452 0.734353 0.499220 0.594836
C17   C     C_R   0.582766 0.706138 0.857893 0.028255
C18   C     C_R   0.542351 0.599169 0.925160 0.056030
C19   C     C_R   0.542630 0.599304 0.073784 0.137835
C20   C     C_R   0.458177 0.408227 0.074904 0.060781
C21   C     C_R   0.455916 0.408913 0.928777 0.339808
C22   C     C_R   0.659297 0.497855 0.500739 0.597884
C23   C     C_3   0.915905 0.475448 0.503984 -0.087209
C24   C     C_3   0.048950 0.396935 0.618544 0.040416
C25   C     C_3   0.044460 0.428207 0.357634 0.090720
C26   C     C_3   0.944029 0.430539 0.354883 0.211092
C27   C     C_1   0.748460 0.489951 0.502693 0.118120
C28   C     C_3   0.083085 0.481513 0.495979 0.012707
C29   C     C_2   0.909441 0.251199 0.604842 0.579996
C30   C     C_2   0.918415 0.412379 0.768746 0.661828
C31   C     C_2   0.428843 0.876367 0.250436 0.581368
C32   C     C_2   0.655135 0.697357 0.768608 0.626388
C33   C     C_2   0.898641 0.307091 0.305564 0.687273
C34   C     C_3   0.959631 0.613013 0.521137 -0.087552
C35   C     C_2   0.932577 0.687773 0.641758 0.554711
C36   C     C_3   0.057395 0.615771 0.513701 0.040456
C37   C     C_1   0.823437 0.482485 0.504268 0.113984
C38   C     C_1   0.175548 0.486410 0.494340 0.095796
C39   C     C_1   0.251095 0.491880 0.496291 0.055010
C40   C     C_R   0.507342 0.103925 0.763656 0.283748
Cu1   Cu    Cu3+1 0.499990 0.499990 0.640660 1.042749
Cu2   Cu    Cu3+1 0.500010 0.500010 0.359340 1.056202
H1    H     H_    0.938863 0.667702 0.431623 0.187077
H2    H     H_    0.088120 0.655724 0.608872 0.179311
H3    H     H_    0.803416 0.132438 0.608092 0.380373
H4    H     H_    0.071532 0.516231 0.769492 0.368836
H5    H     H_    0.928550 0.378379 0.972389 0.389262
H6    H     H_    0.575394 0.213820 0.887528 0.340247
H7    H     H_    0.348633 0.743108 0.163302 0.335810
H8    H     H_    0.683845 0.752467 0.259961 0.336637
H9    H     H_    0.619728 0.920518 0.229237 0.344516
H10   H     H_    0.766609 0.631201 0.746459 0.384395
H11   H     H_    0.391918 0.339548 0.773906 0.379715
H12   H     H_    0.481116 0.115097 0.284733 0.174595
H13   H     H_    0.045125 0.248411 0.392047 0.356573
H14   H     H_    0.895853 0.164983 0.171542 0.361442
H15   H     H_    0.964210 0.583444 0.236414 0.345309
H16   H     H_    0.082505 0.779021 0.429746 0.355983
H17   H     H_    0.947489 0.735437 0.841292 0.376564
H18   H     H_    0.460908 0.094575 0.971521 0.181438
H19   H     H_    0.367990 0.898072 0.932055 0.181573
H20   H     H_    0.382844 0.780889 0.723223 0.152277
H21   H     H_    0.422970 0.333264 0.130041 0.144541
H22   H     H_    0.071446 0.304581 0.601982 0.219580
H23   H     H_    0.612201 0.903962 0.870509 0.190254
H24   H     H_    0.072067 0.489264 0.273940 0.235108
N1    N     N_R   0.500800 0.501210 0.147910 -0.261414
N2    N     N_R   0.500820 0.501290 0.852040 -0.247378
O1    O     O_R   0.499990 0.319640 0.618810 -0.459054
O2    O     O_R   0.822253 0.223991 0.620206 -0.620593
O3    O     O_3   0.089286 0.434666 0.743403 -0.643198
O4    O     O_2   0.857912 0.471246 0.786488 -0.475889
O5    O     O_R   0.954277 0.355550 0.882430 -0.582948
O6    O     O_3   0.572320 0.195395 0.787797 -0.622395
O7    O     O_2   0.447781 0.922984 0.139829 -0.577517
O8    O     O_R   0.369058 0.773059 0.257468 -0.664641
O9    O     O_3   0.634256 0.689776 0.256405 -0.638981
O10   O     O_3   0.629011 0.929017 0.128935 -0.658986
O11   O     O_2   0.666257 0.766346 0.668484 -0.496222
O12   O     O_R   0.500000 0.319660 0.381240 -0.533905
O13   O     O_R   0.716497 0.620227 0.809082 -0.626159
O14   O     O_3   0.404567 0.314899 0.868640 -0.713816
O15   O     O_3   0.073007 0.311499 0.329424 -0.653119
O16   O     O_2   0.827364 0.272779 0.343823 -0.481621
O17   O     O_R   0.933251 0.241822 0.199973 -0.613470
O18   O     O_3   0.919157 0.515694 0.253601 -0.686882
O19   O     O_3   0.087803 0.691633 0.403086 -0.722550
O20   O     O_2   0.880208 0.762353 0.622850 -0.475466
O21   O     O_R   0.970693 0.679044 0.771375 -0.696871
O22   O     O_R   0.379430 0.499990 0.618840 -0.545183
O23   O     O_R   0.379440 0.500020 0.381260 -0.482915
O24   O     O_R   0.500000 0.680340 0.618760 -0.517642
O25   O     O_R   0.500010 0.680360 0.381190 -0.431406
O26   O     O_R   0.620560 0.499980 0.618740 -0.454541
O27   O     O_R   0.620570 0.500010 0.381160 -0.421640
O28   O     O_2   0.952863 0.166134 0.582817 -0.509836

loop_
_geom_bond_atom_site_label_1
_geom_bond_atom_site_label_2
_ccdc_geom_bond_type
Cu2   O12   S    
C12   C29   S    
C1    C8    S    
Cu1   Cu2   S    
C20   N1    A    
H16   O19   S    
C31   O8    S    
C7    C8    A    
C25   C28   S    
C32   O13   S    
C12   C23   S    
C16   O25   A    
Cu2   O23   S    
H17   O21   S    
C5    C6    A    
C2    H18   S    
C18   N2    A    
Cu2   O25   S    
H15   O18   S    
C34   C35   S    
C35   O20   D    
C23   C26   S    
C33   O17   S    
C25   H24   S    
C10   C31   S    
C8    C9    A    
C7    C40   A    
C19   N1    A    
C9    C10   A    
C4    O23   A    
Cu1   O22   S    
C24   H22   S    
C13   C14   A    
C22   O26   A    
Cu1   N2    S    
C4    O22   A    
C3    H19   S    
C36   O19   S    
C13   O9    S    
C13   C19   A    
Cu2   O27   S    
H6    O6    S    
H5    O5    S    
C6    C11   A    
C30   O5    S    
C18   C19   A    
C25   C26   S    
C23   C37   S    
C1    O1    A    
H11   O14   S    
C11   C16   S    
C26   C33   S    
C31   O7    D    
Cu1   O26   S    
C4    C39   S    
C28   C38   S    
C26   O18   S    
C23   C34   S    
C17   C18   A    
H7    O8    S    
C20   C21   A    
H4    O3    S    
C35   O21   S    
C16   O24   A    
C22   C27   S    
C21   N2    A    
Cu2   N1    S    
C36   H2    S    
H13   O15   S    
H8    O9    S    
Cu1   O1    S    
C29   O2    S    
C15   C17   A    
C12   C30   S    
H3    O2    S    
C34   H1    S    
C24   C28   S    
C3    C5    A    
C29   O28   D    
C30   O4    D    
C6    C7    A    
C12   C24   S    
C20   H21   S    
C2    C3    A    
H9    O10   S    
C32   O11   D    
H14   O17   S    
C38   C39   T    
C27   C37   T    
C40   O6    S    
C5    H20   S    
C34   C36   S    
C14   O10   S    
H10   O13   S    
C33   O16   D    
C10   C11   A    
C22   O27   A    
C2    C40   A    
Cu1   O24   S    
C21   O14   S    
C28   C36   S    
C25   O15   S    
C17   C32   S    
C14   C15   A    
C1    O12   A    
C9    H12   S    
C24   O3    S    
C15   H23   S    
