data_mof_unit_44689.cif
_audit_creation_date              2012-12-11T19:09:25-0500
_audit_creation_method            fapswitch 2.2
_symmetry_space_group_name_H-M    P1
_symmetry_Int_Tables_number       1
_space_group_crystal_system       triclinic
_cell_length_a                    8.197731
_cell_length_b                    15.070322
_cell_length_c                    26.979297
_cell_angle_alpha                 98.624774
_cell_angle_beta                  92.829003
_cell_angle_gamma                 81.200576
_cell_volume                      3255.41913419

loop_
_atom_site_label
_atom_site_type_symbol
_atom_type_description
_atom_site_fract_x
_atom_site_fract_y
_atom_site_fract_z
_atom_type_partial_charge
Ba1   Ba    Ba6+2 0.860050 0.456430 0.522540 1.638620
Ba2   Ba    Ba6+2 0.329780 0.543490 0.477450 1.635342
C1    C     C_3   0.718017 0.136386 0.652431 0.295025
C2    C     C_3   0.696216 0.227021 0.632672 0.384591
C3    C     C_3   0.480300 0.687951 0.631722 0.306601
C4    C     C_3   0.464232 0.720993 0.687631 -0.387616
C5    C     C_3   0.033647 0.736106 0.344304 0.339202
C6    C     C_3   0.045609 0.759857 0.291911 -0.312629
C7    C     C_3   0.488383 0.786017 0.368042 0.361518
C8    C     C_3   0.436232 0.877963 0.350738 -0.365643
C9    C     C_R   0.028617 0.434664 0.177068 0.597722
C10   C     C_R   0.900739 0.589196 0.179606 0.572117
C11   C     C_2   0.752472 0.557593 0.273170 -0.084368
C12   C     C_3   0.190689 0.259183 0.655219 0.284022
C13   C     C_3   0.731535 0.587960 0.328578 -0.045182
C14   C     C_1   0.983837 0.484061 0.342526 0.034105
C15   C     C_2   0.026046 0.480180 0.294807 -0.105477
C16   C     C_2   0.902498 0.516422 0.256387 0.191707
C17   C     C_R   0.025233 0.508854 0.101953 -0.079698
C18   C     C_R   0.071583 0.432081 0.126364 -0.035989
C19   C     C_R   0.158821 0.353930 0.099396 -0.060842
C20   C     C_R   0.938592 0.587571 0.128914 -0.024070
C21   C     C_2   0.843254 0.529821 0.360541 -0.290242
C22   C     C_2   0.355664 0.481334 0.640907 -0.285092
C23   C     C_3   0.157610 0.243541 0.707884 -0.333849
C24   C     C_R   0.202695 0.427896 0.973418 0.019998
C25   C     C_R   0.047511 0.581828 0.974579 0.020550
C26   C     C_R   0.145094 0.504245 0.948648 0.049620
C27   C     C_R   0.304690 0.353950 0.946338 -0.100889
C28   C     C_R   0.345569 0.354274 0.896782 -0.064524
C29   C     C_R   0.286578 0.428113 0.871576 -0.030444
C30   C     C_R   0.185693 0.503150 0.897395 -0.077687
C31   C     C_R   0.125989 0.577337 0.872034 -0.032792
C32   C     C_R   0.167462 0.575672 0.821517 0.588324
C33   C     C_R   0.326887 0.428336 0.821081 0.576283
C34   C     C_3   0.218369 0.265414 0.412808 0.313156
C35   C     C_2   0.465275 0.484777 0.729057 -0.069722
C36   C     C_3   0.505792 0.489258 0.675138 -0.049328
C37   C     C_1   0.210081 0.520104 0.657601 0.035407
C38   C     C_2   0.171968 0.520608 0.705022 -0.106772
C39   C     C_2   0.306015 0.500779 0.743862 0.200850
C40   C     C_R   0.157749 0.428159 0.024158 0.019651
C41   C     C_R   0.065394 0.507111 0.050588 0.049684
C42   C     C_R   0.012828 0.584538 0.026265 0.020133
C43   C     C_R   0.201264 0.351923 0.049689 -0.100053
C44   C     C_R   0.892239 0.664155 0.104899 -0.060225
C45   C     C_3   0.241688 0.162854 0.397974 -0.381923
C46   C     C_R   0.987022 0.654243 0.947535 -0.100977
C47   C     C_R   0.025660 0.651963 0.897646 -0.064118
C48   C     C_R   0.928155 0.662832 0.054944 -0.102780
C49   C     C_R   0.351562 0.175772 0.534151 -0.004164
C50   C     C_R   0.576504 0.209240 0.488819 0.068354
C51   C     C_R   0.754075 0.770506 0.482393 -0.289606
C52   C     C_R   0.844988 0.829393 0.465016 0.015605
C53   C     C_R   0.787401 0.922573 0.471085 -0.147456
C54   C     C_R   0.638100 0.958502 0.496315 0.012203
C55   C     C_R   0.554427 0.897503 0.517537 -0.017385
C56   C     C_3   0.977900 0.732716 0.584407 0.313657
C57   C     C_R   0.571350 0.052877 0.502530 0.003049
C58   C     C_R   0.422422 0.083533 0.529354 -0.009603
C59   C     C_R   0.347110 0.021744 0.550690 -0.078647
C60   C     C_R   0.412750 0.931173 0.545503 -0.055505
C61   C     C_R   0.644436 0.117626 0.481761 -0.136259
C62   C     C_R   0.433305 0.238049 0.515725 -0.290782
C63   C     C_R   0.615234 0.803816 0.510721 0.027942
C64   C     C_3   0.938749 0.834937 0.599111 -0.411456
C65   C     C_3   0.694057 0.341913 0.371683 0.300718
C66   C     C_3   0.697407 0.319013 0.314860 -0.361397
H1    H     H_    0.807776 0.229413 0.611527 0.047402
H2    H     H_    0.328377 0.142551 0.366527 0.126965
H3    H     H_    0.292663 0.128500 0.430095 0.060138
H4    H     H_    0.121057 0.140362 0.386119 0.129638
H5    H     H_    0.865658 0.705655 0.568792 0.006828
H6    H     H_    0.073123 0.718111 0.555540 0.079074
H7    H     H_    0.825015 0.851111 0.621252 0.126732
H8    H     H_    0.918932 0.869346 0.565406 0.068190
H9    H     H_    0.042778 0.861061 0.621743 0.123312
H10   H     H_    0.815000 0.360111 0.385829 0.010483
H11   H     H_    0.595880 0.400526 0.381460 0.076375
H12   H     H_    0.744938 0.081079 0.620398 -0.014223
H13   H     H_    0.799751 0.263208 0.303824 0.134140
H14   H     H_    0.716107 0.379278 0.298019 0.069463
H15   H     H_    0.578349 0.297626 0.300137 0.133601
H16   H     H_    0.586354 0.231471 0.607078 -0.050761
H17   H     H_    0.356849 0.675517 0.616110 0.031449
H18   H     H_    0.569004 0.624011 0.626104 0.034049
H19   H     H_    0.389965 0.789635 0.693803 0.134558
H20   H     H_    0.401374 0.674370 0.705510 0.081437
H21   H     H_    0.588516 0.723871 0.705533 0.117126
H22   H     H_    0.827458 0.133832 0.678738 0.007996
H23   H     H_    0.212539 0.293144 0.735670 0.130141
H24   H     H_    0.120384 0.672780 0.347561 0.092429
H25   H     H_    0.905424 0.724790 0.349301 -0.052604
H26   H     H_    0.158100 0.791023 0.288834 0.146749
H27   H     H_    0.053414 0.697155 0.264350 0.118807
H28   H     H_    0.935606 0.808251 0.282967 0.120674
H29   H     H_    0.625615 0.772787 0.368659 -0.064337
H30   H     H_    0.444037 0.789804 0.406675 0.078556
H31   H     H_    0.493541 0.930603 0.375990 0.068892
H32   H     H_    0.300119 0.896741 0.351726 0.150757
H33   H     H_    0.135243 0.329776 0.651271 0.068514
H34   H     H_    0.477307 0.875934 0.311919 0.122463
H35   H     H_    0.151099 0.452551 0.283686 0.134530
H36   H     H_    0.195454 0.293349 0.116770 0.121448
H37   H     H_    0.565713 0.474501 0.756329 0.104016
H38   H     H_    0.424369 0.295690 0.878136 0.116015
H39   H     H_    0.357851 0.294713 0.962585 0.067222
H40   H     H_    0.266500 0.288468 0.032081 0.068043
H41   H     H_    0.655568 0.581541 0.247408 0.120640
H42   H     H_    0.827077 0.726285 0.124782 0.122568
H43   H     H_    0.906553 0.713824 0.963506 0.067894
H44   H     H_    0.326077 0.251088 0.650352 0.056127
H45   H     H_    0.975853 0.709613 0.879077 0.119107
H46   H     H_    0.044067 0.535405 0.715963 0.127914
H47   H     H_    0.889877 0.725569 0.040288 0.068571
H48   H     H_    0.822323 0.541712 0.400549 0.082156
H49   H     H_    0.367147 0.444082 0.603210 0.073383
H50   H     H_    0.380055 0.308909 0.519729 0.069537
H51   H     H_    0.236063 0.042248 0.571941 0.106004
H52   H     H_    0.752278 0.099120 0.459117 0.084264
H53   H     H_    0.799796 0.698556 0.477649 0.063373
H54   H     H_    0.864025 0.964807 0.457102 0.081993
H55   H     H_    0.022474 0.252730 0.713574 0.127688
H56   H     H_    0.347642 0.888047 0.563334 0.101167
H57   H     H_    0.212306 0.173747 0.713782 0.126733
H58   H     H_    0.339502 0.287099 0.423099 0.002449
H59   H     H_    0.136061 0.283515 0.445360 0.068683
N1    N     N_R   0.944461 0.513008 0.203608 -0.421457
N2    N     N_R   0.266105 0.501372 0.796246 -0.424012
O1    O     O_2   0.906490 0.548660 0.619040 -0.463195
O2    O     O_3   0.663040 0.265865 0.391718 -0.634132
O3    O     O_3   0.119388 0.196004 0.620598 -0.617337
O4    O     O_2   0.283210 0.451320 0.380930 -0.461861
O5    O     O_3   0.051220 0.451340 0.441130 -0.497894
O6    O     O_3   0.503420 0.617610 0.414270 -0.476824
O7    O     O_3   0.150128 0.305927 0.371732 -0.623974
O8    O     O_3   0.617160 0.609950 0.527080 -0.472965
O9    O     O_3   0.088220 0.664410 0.439630 -0.493905
O10   O     O_2   0.184923 0.824899 0.472278 -0.485912
O11   O     O_3   0.075573 0.807585 0.379766 -0.602274
O12   O     O_3   0.138490 0.548590 0.558860 -0.494006
O13   O     O_3   0.572560 0.389970 0.472910 -0.491612
O14   O     O_2   0.345680 0.723560 0.528460 -0.473123
O15   O     O_3   0.538222 0.754585 0.609252 -0.650127
O16   O     O_2   0.404820 0.543508 0.323589 -0.498748
O17   O     O_3   0.419498 0.718516 0.335391 -0.594809
O18   O     O_2   0.064303 0.366576 0.197179 -0.597307
O19   O     O_2   0.415428 0.363052 0.799191 -0.601349
O20   O     O_2   0.829590 0.659452 0.202475 -0.620820
O21   O     O_2   0.117635 0.641252 0.800305 -0.603060
O22   O     O_3   0.686290 0.382320 0.585720 -0.487721
O23   O     O_2   0.849254 0.426977 0.670899 -0.500225
O24   O     O_3   0.033954 0.694025 0.627184 -0.627741
O25   O     O_3   0.674902 0.297897 0.673099 -0.600127
O26   O     O_2   0.844020 0.276410 0.471510 -0.461613
O27   O     O_3   0.101490 0.335510 0.560360 -0.486982
O28   O     O_2   0.010238 0.175076 0.527668 -0.490811
P1    P     P_3+3 0.071960 0.575810 0.612130 0.993412
P2    P     P_3+3 0.664360 0.290070 0.457280 0.984359
P3    P     P_3+3 0.145756 0.218986 0.560101 0.926853
P4    P     P_3+3 0.117760 0.424110 0.387870 0.991142
P5    P     P_3+3 0.048878 0.782115 0.439675 0.944744
P6    P     P_3+3 0.679791 0.401308 0.651226 0.967375
P7    P     P_3+3 0.532316 0.723775 0.544123 0.936415
P8    P     P_3+3 0.514192 0.612899 0.349567 0.945407
O29   O     O_3   0.569592 0.126246 0.674302 -0.649232
C67   C     C_3   0.600985 0.080755 0.716771 0.290740
H60   H     H_    0.482094 0.086707 0.735888 0.074473
H61   H     H_    0.686281 0.113993 0.744467 0.055249
C68   C     C_3   0.666281 0.979719 0.701907 -0.237182
H62   H     H_    0.584647 0.949478 0.671990 0.147637
H63   H     H_    0.792654 0.972515 0.687355 0.102637
C69   C     C_3   0.674325 0.928101 0.746664 -0.467462
H64   H     H_    0.752093 0.958715 0.777502 0.136576
H65   H     H_    0.729905 0.856474 0.735178 0.162393
H66   H     H_    0.548352 0.929336 0.760397 0.133287

loop_
_geom_bond_atom_site_label_1
_geom_bond_atom_site_label_2
_ccdc_geom_bond_type
C25   C46   A    
C2    O25   S    
C53   C54   A    
C38   C39   S    
C7    H30   S    
C59   H51   S    
C7    O17   S    
C47   H45   S    
C17   C18   A    
C6    H28   S    
O13   P2    S    
C60   H56   S    
C32   O21   D    
C4    H20   S    
C55   C60   A    
C67   H61   S    
C12   O3    S    
C51   C52   A    
C12   H44   S    
C65   H10   S    
C24   C40   A    
C22   H49   S    
Ba2   O5    S    
C13   P8    S    
C11   C16   D    
C1    H22   S    
C3    C4    S    
C66   H13   S    
Ba1   P1    S    
C35   C36   S    
C48   H47   S    
C28   C29   A    
C68   H62   S    
C5    H24   S    
O11   P5    S    
C10   C20   A    
C49   P3    S    
C22   C37   D    
C62   H50   S    
C54   C55   A    
C63   P7    S    
C34   C45   S    
Ba1   Ba2   S    
O24   P1    S    
Ba1   O26   S    
C23   H57   S    
C11   H41   S    
Ba1   O13   S    
C16   N1    S    
C21   H48   S    
C19   H36   S    
C25   C42   A    
C56   C64   S    
Ba1   O12   S    
C38   H46   S    
C32   N2    Am   
C14   C15   D    
C22   C36   S    
C51   C63   A    
C7    C8    S    
C33   N2    Am   
C43   H40   S    
C3    H17   S    
C50   P2    S    
C13   C21   S    
C53   H54   S    
C57   C58   A    
C28   H38   S    
Ba2   O14   S    
C66   H15   S    
C59   C60   A    
C6    H27   S    
C1    H12   S    
C34   O7    S    
Ba2   P4    S    
C2    H1    S    
C17   C41   A    
C31   C32   A    
C67   C68   S    
C19   C43   A    
O7    P4    S    
C69   H65   S    
C5    H25   S    
C65   O2    S    
C9    C18   A    
C23   H23   S    
Ba2   O4    S    
O26   P2    D    
C65   C66   S    
Ba2   O9    S    
O25   P6    S    
Ba1   P2    S    
C17   C20   A    
C65   H11   S    
Ba1   O1    S    
C50   C62   A    
C37   C38   D    
C3    O15   S    
O16   P8    D    
C69   H64   S    
C4    H19   S    
C58   C59   A    
C40   C43   A    
Ba1   O27   S    
O2    P2    S    
C41   C42   A    
C45   H2    S    
C35   H37   S    
C27   C28   A    
C56   O24   S    
C29   C30   A    
C2    H16   S    
C26   C30   A    
C64   H8    S    
C15   C16   S    
O6    P8    S    
C6    H26   S    
O9    P5    S    
O3    P3    S    
C52   P5    S    
C8    H32   S    
C23   H55   S    
C45   H3    S    
C3    H18   S    
C36   P6    S    
C20   C44   A    
O17   P8    S    
O28   P3    D    
O22   P6    S    
C11   C13   S    
C37   P1    S    
O29   C67   S    
Ba2   O13   S    
C29   C33   A    
C34   H59   S    
C40   C41   A    
C1    C2    S    
O14   P7    D    
C67   H60   S    
Ba1   O8    S    
C56   H6    S    
C69   H66   S    
C42   C48   A    
C64   H9    S    
C52   C53   A    
C46   C47   A    
C7    H29   S    
Ba2   O8    S    
C24   C26   A    
C10   O20   D    
O10   P5    D    
C34   H58   S    
C49   C62   A    
C55   C63   A    
C12   H33   S    
C50   C61   A    
O4    P4    D    
O8    P7    S    
C54   C57   A    
C10   N1    Am   
O27   P3    S    
C14   P4    S    
C14   C21   D    
C4    H21   S    
C44   C48   A    
C57   C61   A    
Ba2   O6    S    
O5    P4    S    
O1    P1    D    
C66   H14   S    
C30   C31   A    
C44   H42   S    
C9    N1    Am   
C15   H35   S    
C51   H53   S    
C39   N2    S    
C61   H52   S    
C9    O18   D    
C5    O11   S    
C68   H63   S    
C64   H7    S    
C8    H34   S    
Ba1   O22   S    
C33   O19   D    
C12   C23   S    
C35   C39   D    
C8    H31   S    
C45   H4    S    
O23   P6    D    
C5    C6    S    
O12   P1    S    
C46   H43   S    
C18   C19   A    
C1    O29   S    
C24   C27   A    
C25   C26   A    
Ba2   O12   S    
C27   H39   S    
C49   C58   A    
C31   C47   A    
O15   P7    S    
Ba1   O5    S    
C56   H5    S    
C68   C69   S    
