data_mof_unit_60364.cif
_audit_creation_date              2012-12-10T18:45:31-0500
_audit_creation_method            fapswitch 2.2
_symmetry_space_group_name_H-M    P1
_symmetry_Int_Tables_number       1
_space_group_crystal_system       triclinic
_cell_length_a                    45.024005
_cell_length_b                    45.048594
_cell_length_c                    35.842915
_cell_angle_alpha                 90.000751
_cell_angle_beta                  128.957395
_cell_angle_gamma                 89.999953
_cell_volume                      56531.771488

loop_
_atom_site_label
_atom_site_type_symbol
_atom_type_description
_atom_site_fract_x
_atom_site_fract_y
_atom_site_fract_z
_atom_type_partial_charge
C1    C     C_R   0.709289 0.709310 0.499969 0.906783
C2    C     C_R   0.050493 0.749529 0.101542 -0.131037
C3    C     C_3   0.854132 0.138587 0.458747 0.179696
C4    C     C_3   0.603075 0.637636 0.509485 -0.235874
C5    C     C_3   0.396982 0.637645 0.490610 -0.235814
C6    C     C_3   0.102224 0.137764 0.508042 -0.235796
C7    C     C_3   0.897993 0.137793 0.492332 -0.235752
C8    C     C_1   0.668069 0.668295 0.499440 0.007979
C9    C     C_1   0.331932 0.668295 0.500560 0.007948
C10   C     C_1   0.168074 0.168292 0.499446 0.007824
C11   C     C_1   0.831925 0.168291 0.500555 0.007786
C12   C     C_1   0.581693 0.581637 0.500252 0.024439
C13   C     C_R   0.449508 0.249534 0.898459 -0.131029
C14   C     C_1   0.418309 0.581638 0.499750 0.024258
C15   C     C_1   0.081685 0.081644 0.500251 0.024018
C16   C     C_1   0.918318 0.081646 0.499752 0.023992
C17   C     C_R   0.513887 0.776631 0.025383 0.044659
C18   C     C_R   0.486276 0.776636 0.974615 0.044658
C19   C     C_R   0.013815 0.276633 0.025385 0.044640
C20   C     C_R   0.986205 0.276634 0.974616 0.044642
C21   C     C_R   0.525740 0.749234 0.050562 0.081963
C22   C     C_R   0.474282 0.749236 0.949434 0.081963
C23   C     C_R   0.025734 0.249235 0.050564 0.081936
C24   C     C_R   0.550497 0.249527 0.101544 -0.131049
C25   C     C_R   0.974276 0.249236 0.949435 0.081935
C26   C     C_R   0.512027 0.721828 0.025434 0.043311
C27   C     C_R   0.487854 0.721825 0.974560 0.043319
C28   C     C_R   0.012087 0.221826 0.025436 0.043318
C29   C     C_R   0.987913 0.221826 0.974562 0.043319
C30   C     C_R   0.530452 0.803164 0.052045 -0.197599
C31   C     C_R   0.469847 0.803185 0.947955 -0.197602
C32   C     C_R   0.030315 0.303174 0.052047 -0.197631
C33   C     C_R   0.969715 0.303176 0.947955 -0.197636
C34   C     C_R   0.556327 0.802862 0.101804 -0.116293
C35   C     C_R   0.963754 0.752118 0.873030 -0.184501
C36   C     C_R   0.443968 0.802889 0.898196 -0.116282
C37   C     C_R   0.056191 0.302875 0.101805 -0.116336
C38   C     C_R   0.943838 0.302877 0.898197 -0.116346
C39   C     C_R   0.702753 0.749934 0.405709 0.958574
C40   C     C_R   0.297248 0.749934 0.594290 0.958647
C41   C     C_R   0.202753 0.249934 0.405709 0.958587
C42   C     C_R   0.797248 0.249934 0.594291 0.958562
C43   C     C_R   0.566706 0.776149 0.126915 -0.045574
C44   C     C_R   0.433450 0.776165 0.873084 -0.045596
C45   C     C_R   0.066636 0.276157 0.126916 -0.045597
C46   C     C_R   0.036251 0.752214 0.126970 -0.184519
C47   C     C_R   0.933383 0.276158 0.873085 -0.045595
C48   C     C_R   0.551570 0.749254 0.101475 -0.049025
C49   C     C_R   0.448450 0.749258 0.898522 -0.049032
C50   C     C_R   0.051564 0.249256 0.101476 -0.049037
C51   C     C_R   0.948445 0.249256 0.898523 -0.049039
C52   C     C_R   0.562277 0.722386 0.127059 -0.038745
C53   C     C_R   0.437605 0.722379 0.872935 -0.038724
C54   C     C_R   0.062337 0.222383 0.127061 -0.038704
C55   C     C_R   0.937662 0.222382 0.872937 -0.038705
C56   C     C_R   0.547441 0.695638 0.102070 -0.117813
C57   C     C_R   0.463729 0.252435 0.873033 -0.184530
C58   C     C_R   0.452304 0.695620 0.897923 -0.117846
C59   C     C_R   0.047565 0.195629 0.102072 -0.117959
C60   C     C_R   0.952424 0.195628 0.897924 -0.117974
C61   C     C_R   0.522816 0.695297 0.052277 -0.198944
C62   C     C_R   0.476928 0.695280 0.947716 -0.198952
C63   C     C_R   0.022940 0.195289 0.052279 -0.199039
C64   C     C_R   0.977049 0.195288 0.947718 -0.199039
C65   C     C_R   0.592178 0.775675 0.177179 0.598290
C66   C     C_R   0.407971 0.775692 0.822819 0.598325
C67   C     C_R   0.092110 0.275683 0.177181 0.598258
C68   C     C_R   0.536226 0.251904 0.126971 -0.184525
C69   C     C_R   0.907907 0.275685 0.822820 0.598237
C70   C     C_R   0.587341 0.722950 0.177342 0.551502
C71   C     C_R   0.412542 0.722943 0.822653 0.551436
C72   C     C_R   0.087400 0.222946 0.177344 0.551378
C73   C     C_R   0.912598 0.222946 0.822654 0.551368
C74   C     C_R   0.615047 0.762112 0.277081 0.627457
C75   C     C_R   0.385008 0.762018 0.722907 0.627482
C76   C     C_R   0.115022 0.262067 0.277087 0.627385
C77   C     C_R   0.884986 0.262059 0.722911 0.627387
C78   C     C_R   0.639679 0.762444 0.327063 0.528833
C79   C     C_R   0.003275 0.754528 0.898592 0.711553
C80   C     C_R   0.360370 0.762351 0.672925 0.528794
C81   C     C_R   0.139656 0.262400 0.327069 0.528743
C82   C     C_R   0.860350 0.262392 0.672929 0.528742
C83   C     C_R   0.676371 0.749849 0.353036 -0.278203
C84   C     C_R   0.323631 0.749848 0.646960 -0.278133
C85   C     C_R   0.176371 0.249848 0.353038 -0.278118
C86   C     C_R   0.823631 0.249848 0.646961 -0.278099
C87   C     C_R   0.959892 0.748449 0.974405 0.107721
C88   C     C_R   0.040100 0.748350 0.025594 0.107722
C89   C     C_R   0.459910 0.248133 0.974406 0.107744
C90   C     C_R   0.996740 0.754720 0.101408 0.711564
C91   C     C_R   0.540116 0.248669 0.025597 0.107736
C92   C     C_R   0.687815 0.736966 0.328183 -0.283792
C93   C     C_R   0.312142 0.737056 0.671816 -0.283901
C94   C     C_R   0.187837 0.237009 0.328184 -0.283965
C95   C     C_R   0.812162 0.237017 0.671817 -0.284020
C96   C     C_R   0.663237 0.736898 0.278267 -0.184806
C97   C     C_R   0.336723 0.736992 0.721732 -0.184749
C98   C     C_R   0.163258 0.236943 0.278268 -0.184879
C99   C     C_R   0.836742 0.236951 0.721732 -0.184923
C100  C     C_R   0.626843 0.749476 0.252589 0.086839
C101  C     C_R   0.503220 0.255158 0.898596 0.711557
C102  C     C_R   0.373167 0.749478 0.747406 0.086764
C103  C     C_R   0.126840 0.249477 0.252591 0.086881
C104  C     C_R   0.873165 0.249477 0.747408 0.086891
C105  C     C_3   0.911353 0.871145 0.537845 0.670957
C106  C     C_3   0.088698 0.871330 0.461884 0.671004
C107  C     C_3   0.411123 0.371895 0.538885 0.670749
C108  C     C_3   0.589273 0.372926 0.459841 0.670983
C109  C     C_3   0.878984 0.877069 0.540756 -0.216871
C110  C     C_3   0.121334 0.877267 0.459481 -0.216900
C111  C     C_3   0.377706 0.377854 0.539774 -0.216861
C112  C     C_R   0.290711 0.709310 0.500031 0.906860
C113  C     C_R   0.496686 0.254099 0.101409 0.711608
C114  C     C_3   0.624034 0.378873 0.461659 -0.217042
C115  C     C_1   0.812853 0.812882 0.499943 -0.161544
C116  C     C_1   0.187147 0.812882 0.500057 -0.161574
C117  C     C_1   0.312853 0.312881 0.499941 -0.161666
C118  C     C_1   0.687148 0.312881 0.500060 -0.161626
C119  C     C_1   0.937167 0.937155 0.499971 -0.138666
C120  C     C_1   0.062833 0.937155 0.500027 -0.138655
C121  C     C_1   0.437165 0.437157 0.499972 -0.139139
C122  C     C_1   0.562836 0.437160 0.500025 -0.138918
C123  C     C_3   0.886877 0.847718 0.497841 -0.222111
C124  C     C_R   0.028205 0.753634 0.948390 -0.296072
C125  C     C_3   0.112857 0.847709 0.501644 -0.222074
C126  C     C_3   0.387919 0.347699 0.499884 -0.222444
C127  C     C_3   0.610749 0.347736 0.497381 -0.222195
C128  C     C_3   0.854189 0.854312 0.499819 0.046439
C129  C     C_3   0.145810 0.854311 0.500181 0.046434
C130  C     C_3   0.354188 0.354311 0.499815 0.046642
C131  C     C_3   0.645812 0.354309 0.500189 0.046555
C132  C     C_3   0.870909 0.872773 0.460463 0.047743
C133  C     C_3   0.128783 0.872582 0.539304 0.047723
C134  C     C_3   0.372140 0.372017 0.461409 0.047639
C135  C     C_R   0.971806 0.753828 0.051610 -0.296068
C136  C     C_3   0.626182 0.371037 0.537201 0.047465
C137  C     C_R   0.974836 0.749448 0.949394 0.082620
C138  C     C_R   0.025159 0.749449 0.050605 0.082620
C139  C     C_R   0.474842 0.249453 0.949396 0.082617
C140  C     C_R   0.525164 0.249449 0.050607 0.082629
C141  C     C_3   0.895831 0.895678 0.500065 0.039621
C142  C     C_3   0.104168 0.895679 0.499931 0.039601
C143  C     C_3   0.395828 0.395683 0.500068 0.039752
C144  C     C_3   0.604174 0.395690 0.499922 0.039625
C145  C     C_3   0.837450 0.878708 0.461019 -0.231893
C146  C     C_R   0.528160 0.254267 0.948394 -0.296056
C147  C     C_3   0.162496 0.878519 0.539254 -0.231915
C148  C     C_3   0.337681 0.377942 0.459951 -0.231687
C149  C     C_3   0.661914 0.376889 0.541352 -0.231650
C150  C     C_3   0.863282 0.901134 0.501931 0.049179
C151  C     C_3   0.136974 0.901142 0.498563 0.049226
C152  C     C_3   0.362271 0.401155 0.499955 0.049429
C153  C     C_3   0.639019 0.401123 0.502683 0.049554
C154  C     C_1   0.831553 0.831624 0.499882 0.010915
C155  C     C_1   0.168447 0.831624 0.500117 0.010900
C156  C     C_1   0.331552 0.331624 0.499879 0.010756
C157  C     C_R   0.471763 0.253203 0.051610 -0.296052
C158  C     C_1   0.668449 0.331623 0.500123 0.010820
C159  C     C_1   0.918481 0.918394 0.500015 0.043140
C160  C     C_1   0.081518 0.918395 0.499982 0.043153
C161  C     C_1   0.418479 0.418397 0.500017 0.042724
C162  C     C_1   0.581523 0.418403 0.499976 0.042894
C163  C     C_R   0.040648 0.959383 0.500021 0.896861
C164  C     C_R   0.959352 0.959383 0.499979 0.896863
C165  C     C_R   0.540648 0.459384 0.500021 0.896478
C166  C     C_R   0.459352 0.459384 0.499979 0.896317
C167  C     C_R   0.540647 0.540596 0.500034 0.889737
C168  C     C_R   0.885209 0.746827 0.822661 0.590055
C169  C     C_R   0.459353 0.540596 0.499966 0.889568
C170  C     C_R   0.040646 0.040596 0.500034 0.889490
C171  C     C_R   0.959354 0.040596 0.499966 0.889495
C172  C     C_R   0.014827 0.750371 0.974791 -0.050932
C173  C     C_R   0.985172 0.750470 0.025208 -0.050934
C174  C     C_R   0.514821 0.250694 0.974794 -0.050926
C175  C     C_R   0.485166 0.250153 0.025209 -0.050935
C176  C     C_R   0.920012 0.745172 0.947576 -0.199590
C177  C     C_R   0.079967 0.744978 0.052423 -0.199592
C178  C     C_R   0.420070 0.244549 0.947576 -0.199599
C179  C     C_R   0.114777 0.746735 0.177338 0.590011
C180  C     C_R   0.580021 0.245603 0.052426 -0.199609
C181  C     C_R   0.895550 0.744438 0.897829 -0.119761
C182  C     C_R   0.104427 0.744246 0.102170 -0.119774
C183  C     C_R   0.395617 0.243823 0.897829 -0.119841
C184  C     C_R   0.604488 0.244862 0.102174 -0.119751
C185  C     C_R   0.385247 0.246535 0.822662 0.589907
C186  C     C_R   0.614811 0.247029 0.177341 0.590081
C187  C     C_R   0.937854 0.752513 0.822583 0.582115
C188  C     C_R   0.209289 0.209310 0.499969 0.906830
C189  C     C_R   0.062153 0.752605 0.177417 0.582172
C190  C     C_R   0.437825 0.252816 0.822586 0.582286
C191  C     C_R   0.562123 0.252309 0.177418 0.582160
C192  C     C_R   0.847557 0.773255 0.722147 0.721873
C193  C     C_R   0.152501 0.773218 0.277850 0.721860
C194  C     C_R   0.347359 0.273135 0.722156 0.721841
C195  C     C_R   0.652306 0.273335 0.277860 0.722170
C196  C     C_R   0.822387 0.773155 0.672182 -0.290008
C197  C     C_R   0.177670 0.773119 0.327815 -0.289973
C198  C     C_R   0.322194 0.273037 0.672191 -0.289948
C199  C     C_R   0.790710 0.209310 0.500030 0.906733
C200  C     C_R   0.677481 0.273233 0.327825 -0.289816
C201  C     C_R   0.823441 0.749971 0.646856 -0.133094
C202  C     C_R   0.176557 0.749971 0.353142 -0.133136
C203  C     C_R   0.323445 0.249972 0.646862 -0.133252
C204  C     C_R   0.676559 0.249971 0.353148 -0.133031
C205  C     C_R   0.797128 0.749982 0.594269 0.908659
C206  C     C_R   0.202871 0.749981 0.405730 0.908697
C207  C     C_R   0.297129 0.249982 0.594271 0.908764
C208  C     C_R   0.702872 0.249981 0.405733 0.908656
C209  C     C_R   0.849878 0.726810 0.672160 -0.194775
C210  C     C_R   0.909834 0.747005 0.872888 -0.003707
C211  C     C_R   0.150059 0.726845 0.327837 -0.194763
C212  C     C_R   0.350081 0.226929 0.672170 -0.194800
C213  C     C_R   0.650254 0.226733 0.327846 -0.194955
C214  C     C_R   0.874724 0.726743 0.722094 -0.187353
C215  C     C_R   0.125211 0.726778 0.277903 -0.187405
C216  C     C_R   0.374933 0.226864 0.722104 -0.187590
C217  C     C_R   0.625410 0.226665 0.277912 -0.187360
C218  C     C_R   0.873708 0.749947 0.747267 0.156736
C219  C     C_R   0.126289 0.749946 0.252731 0.156812
C220  C     C_R   0.373713 0.249949 0.747274 0.156983
C221  C     C_R   0.090152 0.746910 0.127111 -0.003683
C222  C     C_R   0.626290 0.249949 0.252737 0.156557
C223  C     C_3   0.602554 0.611866 0.457353 0.723280
C224  C     C_3   0.397393 0.611829 0.542619 0.723139
C225  C     C_3   0.103378 0.111277 0.457818 0.722974
C226  C     C_3   0.896410 0.111127 0.542058 0.722926
C227  C     C_3   0.601256 0.645285 0.465730 -0.247011
C228  C     C_3   0.398746 0.645256 0.534334 -0.246920
C229  C     C_3   0.101255 0.144803 0.464766 -0.246793
C230  C     C_3   0.898741 0.144678 0.535478 -0.246728
C231  C     C_1   0.686929 0.687071 0.499706 -0.154319
C232  C     C_R   0.409870 0.246702 0.872889 -0.003607
C233  C     C_1   0.313071 0.687071 0.500295 -0.154299
C234  C     C_1   0.186931 0.187070 0.499708 -0.154363
C235  C     C_1   0.813068 0.187070 0.500292 -0.154389
C236  C     C_1   0.562900 0.562855 0.500116 -0.147808
C237  C     C_1   0.437101 0.562856 0.499886 -0.148004
C238  C     C_1   0.062896 0.062859 0.500116 -0.148263
C239  C     C_1   0.937106 0.062860 0.499886 -0.148287
C240  C     C_3   0.646587 0.612270 0.490168 -0.257721
C241  C     C_3   0.353358 0.612263 0.509738 -0.257930
C242  C     C_3   0.147434 0.112148 0.491613 -0.258251
C243  C     C_R   0.590184 0.247215 0.127114 -0.003678
C244  C     C_3   0.852353 0.112120 0.508017 -0.258361
C245  C     C_3   0.645264 0.645538 0.499188 0.084962
C246  C     C_3   0.354735 0.645538 0.500811 0.085063
C247  C     C_3   0.145274 0.145532 0.499197 0.085186
C248  C     C_3   0.854724 0.145531 0.500803 0.085209
C249  C     C_3   0.648488 0.604534 0.533969 -0.292272
C250  C     C_3   0.351512 0.604565 0.465967 -0.292428
C251  C     C_3   0.148486 0.105022 0.534941 -0.292516
C252  C     C_3   0.851521 0.105149 0.464818 -0.292556
C253  C     C_R   0.790678 0.790675 0.500003 0.900292
C254  C     C_R   0.949502 0.749528 0.898457 -0.131044
C255  C     C_R   0.209322 0.790674 0.499997 0.900285
C256  C     C_R   0.290678 0.290675 0.500003 0.900362
C257  C     C_R   0.709322 0.290675 0.499997 0.900342
C258  C     C_3   0.604463 0.604383 0.500440 0.042968
C259  C     C_3   0.395539 0.604384 0.499561 0.043057
C260  C     C_3   0.104451 0.104394 0.500437 0.043208
C261  C     C_3   0.895554 0.104397 0.499567 0.043233
C262  C     C_3   0.646899 0.637850 0.541833 0.179578
C263  C     C_3   0.353154 0.637888 0.458194 0.179659
C264  C     C_3   0.146082 0.138438 0.541379 0.179665
F1    F     F_    0.578967 0.597839 0.413305 -0.635758
F2    F     F_    0.372773 0.774375 0.650164 -0.591928
F3    F     F_    0.127274 0.274474 0.349824 -0.591958
F4    F     F_    0.872734 0.274458 0.650172 -0.591947
F5    F     F_    0.949432 0.867601 0.577097 -0.628364
F6    F     F_    0.050673 0.867978 0.422354 -0.628266
F7    F     F_    0.448966 0.369126 0.579214 -0.628550
F8    F     F_    0.551839 0.371222 0.418196 -0.628046
F9    F     F_    0.018363 0.757727 0.875829 -0.595084
F10   F     F_    0.981664 0.758015 0.124171 -0.595060
F11   F     F_    0.518270 0.258667 0.875835 -0.595093
F12   F     F_    0.420926 0.597764 0.586638 -0.635957
F13   F     F_    0.481572 0.257087 0.124170 -0.595058
F14   F     F_    0.846777 0.796125 0.746160 -0.627777
F15   F     F_    0.153343 0.796052 0.253836 -0.627780
F16   F     F_    0.346372 0.295887 0.746172 -0.627756
F17   F     F_    0.652950 0.296283 0.253851 -0.627537
F18   F     F_    0.080646 0.096635 0.414250 -0.636229
F19   F     F_    0.918919 0.096331 0.585496 -0.636290
F20   F     F_    0.579491 0.773830 0.252324 -0.590049
F21   F     F_    0.420610 0.773642 0.747658 -0.590033
F22   F     F_    0.079444 0.273740 0.252332 -0.590123
F23   F     F_    0.920568 0.273724 0.747665 -0.590108
F24   F     F_    0.627317 0.774565 0.349815 -0.591877
H1    H     H_    0.906755 0.742310 0.963985 0.153828
H2    H     H_    0.332391 0.588082 0.437403 0.171388
H3    H     H_    0.639573 0.385809 0.599636 0.195562
H4    H     H_    0.167585 0.088917 0.564219 0.171387
H5    H     H_    0.832432 0.089149 0.435347 0.171381
H6    H     H_    0.664134 0.602223 0.481533 0.175385
H7    H     H_    0.335764 0.602208 0.518294 0.175260
H8    H     H_    0.165681 0.101988 0.484152 0.175067
H9    H     H_    0.833927 0.101935 0.515175 0.175017
H10   H     H_    0.524725 0.824624 0.035528 0.148422
H11   H     H_    0.475686 0.824659 0.964473 0.148422
H12   H     H_    0.024536 0.324641 0.035531 0.148423
H13   H     H_    0.093214 0.742038 0.036014 0.153826
H14   H     H_    0.975503 0.324643 0.964473 0.148418
H15   H     H_    0.568104 0.823798 0.120545 0.194672
H16   H     H_    0.432298 0.823837 0.879457 0.194679
H17   H     H_    0.067918 0.323817 0.120546 0.194673
H18   H     H_    0.932120 0.323819 0.879458 0.194673
H19   H     H_    0.554785 0.674712 0.120934 0.195978
H20   H     H_    0.444852 0.674684 0.879058 0.195957
H21   H     H_    0.054961 0.174699 0.120936 0.195922
H22   H     H_    0.945020 0.174697 0.879059 0.195920
H23   H     H_    0.512000 0.673802 0.035924 0.149498
H24   H     H_    0.406847 0.241436 0.963984 0.153786
H25   H     H_    0.487633 0.673773 0.964068 0.149491
H26   H     H_    0.012178 0.173788 0.035927 0.149447
H27   H     H_    0.987803 0.173786 0.964068 0.149449
H28   H     H_    0.865216 0.741926 0.878955 0.195398
H29   H     H_    0.134752 0.741659 0.121044 0.195391
H30   H     H_    0.365313 0.241068 0.878954 0.195334
H31   H     H_    0.634843 0.242514 0.121048 0.195379
H32   H     H_    0.715910 0.727201 0.347317 0.207729
H33   H     H_    0.284008 0.727364 0.652683 0.207654
H34   H     H_    0.215950 0.227279 0.347318 0.207620
H35   H     H_    0.593302 0.242914 0.036018 0.153802
H36   H     H_    0.784045 0.227293 0.652684 0.207590
H37   H     H_    0.672466 0.727146 0.259454 0.189577
H38   H     H_    0.327458 0.727314 0.740548 0.189600
H39   H     H_    0.172505 0.227227 0.259454 0.189522
H40   H     H_    0.827493 0.227241 0.740548 0.189498
H41   H     H_    0.881970 0.878831 0.573868 0.175918
H42   H     H_    0.118609 0.879189 0.426568 0.175902
H43   H     H_    0.379651 0.380252 0.572076 0.175789
H44   H     H_    0.623511 0.382094 0.430546 0.175717
H45   H     H_    0.806961 0.881780 0.429369 0.160704
H46   H     H_    0.585668 0.647714 0.518314 0.173319
H47   H     H_    0.192943 0.881436 0.571129 0.160663
H48   H     H_    0.307382 0.380389 0.427431 0.160576
H49   H     H_    0.691884 0.378477 0.574932 0.160518
H50   H     H_    0.896325 0.825442 0.495806 0.173307
H51   H     H_    0.103190 0.825425 0.503261 0.173340
H52   H     H_    0.398226 0.325401 0.499516 0.173085
H53   H     H_    0.599346 0.325458 0.495525 0.173310
H54   H     H_    0.058001 0.756412 0.965299 0.181703
H55   H     H_    0.942021 0.756683 0.034701 0.181706
H56   H     H_    0.557922 0.257296 0.965306 0.181698
H57   H     H_    0.414438 0.647730 0.481862 0.173313
H58   H     H_    0.441945 0.255808 0.034700 0.181702
H59   H     H_    0.802407 0.791350 0.653364 0.196187
H60   H     H_    0.197698 0.791287 0.346633 0.196227
H61   H     H_    0.302056 0.291141 0.653377 0.196334
H62   H     H_    0.697358 0.291488 0.346648 0.196175
H63   H     H_    0.851121 0.708638 0.653395 0.181853
H64   H     H_    0.148768 0.708700 0.346600 0.181877
H65   H     H_    0.351485 0.208848 0.653411 0.181934
H66   H     H_    0.649119 0.208500 0.346613 0.181714
H67   H     H_    0.894790 0.708648 0.741321 0.177321
H68   H     H_    0.084114 0.147956 0.515698 0.173139
H69   H     H_    0.105096 0.708711 0.258675 0.177281
H70   H     H_    0.395160 0.208863 0.741334 0.177185
H71   H     H_    0.605452 0.208508 0.258686 0.177336
H72   H     H_    0.582200 0.661896 0.437382 0.180610
H73   H     H_    0.417804 0.661838 0.562738 0.180618
H74   H     H_    0.082216 0.161011 0.435646 0.180545
H75   H     H_    0.917771 0.160781 0.564792 0.180552
H76   H     H_    0.667358 0.642431 0.610625 0.194080
H77   H     H_    0.699773 0.648474 0.602601 0.190098
H78   H     H_    0.332779 0.642532 0.389444 0.194097
H79   H     H_    0.916282 0.148012 0.484979 0.173138
H80   H     H_    0.300319 0.648566 0.397394 0.190101
H81   H     H_    0.165221 0.143979 0.609456 0.194055
H82   H     H_    0.198301 0.149917 0.602550 0.190266
H83   H     H_    0.835336 0.144372 0.390866 0.194039
H84   H     H_    0.802087 0.150284 0.397482 0.190209
H85   H     H_    0.827907 0.927487 0.504176 0.204116
H86   H     H_    0.840864 0.941708 0.473042 0.190663
H87   H     H_    0.172760 0.927505 0.497119 0.204062
H88   H     H_    0.159558 0.941575 0.528068 0.190634
H89   H     H_    0.325284 0.427520 0.499007 0.203912
H90   H     H_    0.667608 0.588024 0.562480 0.171491
H91   H     H_    0.339217 0.441143 0.468630 0.190596
H92   H     H_    0.678063 0.427407 0.507899 0.203809
H93   H     H_    0.662797 0.440257 0.537167 0.190703
H94   H     H_    0.847764 0.853644 0.396216 0.202531
H95   H     H_    0.854657 0.890383 0.397998 0.195117
H96   H     H_    0.151431 0.853142 0.603188 0.202525
H97   H     H_    0.144742 0.889889 0.601798 0.195154
H98   H     H_    0.350977 0.351652 0.398654 0.202395
H99   H     H_    0.357068 0.388411 0.398872 0.195312
H100  H     H_    0.644638 0.349071 0.597766 0.202480
N1    N     N_R   0.899497 0.749805 0.798667 -0.348129
N2    N     N_3   0.328564 0.652813 0.411923 -0.428801
N3    N     N_3   0.169825 0.153968 0.587166 -0.428693
N4    N     N_3   0.830624 0.154280 0.413099 -0.428718
N5    N     N_3   0.851132 0.930456 0.504593 -0.422613
N6    N     N_3   0.149410 0.930476 0.496447 -0.422798
N7    N     N_3   0.349000 0.430507 0.500440 -0.423377
N8    N     N_3   0.653722 0.430450 0.505108 -0.423929
N9    N     N_3   0.867207 0.870668 0.417177 -0.419519
N10   N     N_3   0.132143 0.870268 0.582331 -0.419444
N11   N     N_3   0.369800 0.369081 0.419183 -0.420171
N12   N     N_R   0.100499 0.749804 0.201332 -0.348126
N13   N     N_3   0.626662 0.367025 0.577875 -0.419786
N14   N     N_R   0.399502 0.249808 0.798671 -0.348109
N15   N     N_R   0.600500 0.249805 0.201336 -0.348140
N16   N     N_R   0.601647 0.749351 0.201240 -0.324620
N17   N     N_R   0.398367 0.749356 0.798756 -0.324622
N18   N     N_R   0.101643 0.249354 0.201242 -0.324613
N19   N     N_R   0.898363 0.249354 0.798757 -0.324613
N20   N     N_3   0.671546 0.652734 0.588135 -0.428814
O1    O     O_R   0.736590 0.701810 0.500000 -0.619844
O2    O     O_2   0.392795 0.801314 0.798114 -0.528617
O3    O     O_2   0.107351 0.301297 0.201888 -0.528682
O4    O     O_2   0.892676 0.301300 0.798115 -0.528691
O5    O     O_2   0.597101 0.697375 0.202204 -0.538831
O6    O     O_2   0.402655 0.697355 0.797790 -0.538895
O7    O     O_2   0.097220 0.197366 0.202206 -0.538977
O8    O     O_2   0.902768 0.197364 0.797791 -0.538986
O9    O     O_R   0.010740 0.969180 0.459790 -0.597995
O10   O     O_R   0.989260 0.969180 0.540210 -0.598066
O11   O     O_R   0.510740 0.469180 0.459790 -0.597578
O12   O     O_R   0.263410 0.701810 0.500000 -0.619861
O13   O     O_R   0.489260 0.469180 0.540210 -0.598003
O14   O     O_R   0.050950 0.969170 0.540230 -0.617066
O15   O     O_R   0.949050 0.969170 0.459770 -0.617013
O16   O     O_R   0.550950 0.469170 0.540230 -0.617548
O17   O     O_R   0.449050 0.469170 0.459770 -0.617313
O18   O     O_R   0.510720 0.530790 0.459790 -0.599503
O19   O     O_R   0.489280 0.530790 0.540210 -0.599632
O20   O     O_R   0.010720 0.030790 0.459790 -0.599840
O21   O     O_R   0.989280 0.030790 0.540210 -0.599899
O22   O     O_R   0.550930 0.530780 0.540230 -0.619335
O23   O     O_R   0.236590 0.201810 0.500000 -0.619800
O24   O     O_R   0.449070 0.530780 0.459770 -0.619330
O25   O     O_R   0.050930 0.030780 0.540230 -0.619416
O26   O     O_R   0.949070 0.030780 0.459770 -0.619389
O27   O     O_R   0.701790 0.736580 0.500000 -0.598964
O28   O     O_R   0.298210 0.736580 0.500000 -0.598893
O29   O     O_R   0.201790 0.236580 0.500000 -0.598930
O30   O     O_R   0.798210 0.236580 0.500000 -0.598894
O31   O     O_R   0.803010 0.732600 0.571250 -0.623756
O32   O     O_R   0.196990 0.732600 0.428750 -0.623796
O33   O     O_R   0.303010 0.232600 0.571250 -0.623908
O34   O     O_R   0.763410 0.201810 0.500000 -0.619843
O35   O     O_R   0.696990 0.232600 0.428750 -0.623756
O36   O     O_R   0.768220 0.767380 0.571250 -0.621759
O37   O     O_R   0.231780 0.767380 0.428750 -0.621770
O38   O     O_R   0.268220 0.267380 0.571250 -0.621794
O39   O     O_R   0.731780 0.267380 0.428750 -0.621683
O40   O     O_R   0.798210 0.763420 0.500010 -0.614829
O41   O     O_R   0.201790 0.763420 0.499990 -0.614874
O42   O     O_R   0.298210 0.263420 0.500010 -0.615068
O43   O     O_R   0.701790 0.263420 0.499990 -0.615154
O44   O     O_R   0.763410 0.798190 0.500010 -0.613447
O45   O     O_2   0.950690 0.755763 0.797459 -0.452170
O46   O     O_R   0.236590 0.798190 0.499990 -0.613462
O47   O     O_R   0.263410 0.298190 0.500010 -0.613326
O48   O     O_R   0.736590 0.298190 0.499990 -0.613268
O49   O     O_R   0.731780 0.732620 0.428760 -0.634377
O50   O     O_R   0.268220 0.732620 0.571240 -0.634340
O51   O     O_R   0.231780 0.232620 0.428760 -0.634394
O52   O     O_R   0.768220 0.232620 0.571240 -0.634402
O53   O     O_R   0.696990 0.767400 0.428760 -0.550280
O54   O     O_R   0.303010 0.767400 0.571240 -0.550385
O55   O     O_R   0.196990 0.267400 0.428760 -0.550318
O56   O     O_2   0.049329 0.755941 0.202542 -0.452128
O57   O     O_R   0.803010 0.267400 0.571240 -0.550315
O58   O     O_2   0.847255 0.743536 0.797899 -0.528949
O59   O     O_2   0.152720 0.743357 0.202101 -0.529012
O60   O     O_2   0.347331 0.242961 0.797896 -0.529250
O61   O     O_2   0.652788 0.243929 0.202102 -0.528988
O62   O     O_2   0.450622 0.256347 0.797460 -0.452111
O63   O     O_2   0.549261 0.255367 0.202540 -0.452035
O64   O     O_2   0.607478 0.801282 0.201887 -0.528671
Zn1   Zn    Zn3+2 0.773230 0.726780 0.500010 0.994198
Zn2   Zn    Zn3+2 0.026820 0.999980 0.553700 1.023102
Zn3   Zn    Zn3+2 0.473180 0.499980 0.446300 1.023769
Zn4   Zn    Zn3+2 0.526820 0.499980 0.553700 1.023152
Zn5   Zn    Zn3+2 0.226770 0.726780 0.499990 0.994129
Zn6   Zn    Zn3+2 0.273230 0.226780 0.500010 0.993777
Zn7   Zn    Zn3+2 0.726770 0.226780 0.499990 0.993771
Zn8   Zn    Zn3+2 0.726770 0.773220 0.500000 1.059826
Zn9   Zn    Zn3+2 0.273230 0.773220 0.500000 1.059784
Zn10  Zn    Zn3+2 0.226770 0.273220 0.500000 1.059848
Zn11  Zn    Zn3+2 0.773230 0.273220 0.500000 1.060010
Zn12  Zn    Zn3+2 0.973180 0.999980 0.446300 1.023258

loop_
_geom_bond_atom_site_label_1
_geom_bond_atom_site_label_2
_ccdc_geom_bond_type
C216  H70   S    
C21   C26   A    
C182  H29   S    
C19   C20   A    
O25   Zn2   S    
C165  O11   A    
C188  C234  S    
C88   C177  A    
C24   C140  A    
C164  O10   A    
C87   C176  A    
C199  O30   A    
C179  C221  A    
C242  C251  S    
C135  C173  A    
C100  N16   S    
C3    N4    S    
C72   N18   A    
C14   C259  S    
C152  N7    S    
C60   H22   S    
C117  C256  S    
C95   C99   A    
C128  C145  S    
C61   H23   S    
C177  C182  A    
C105  C123  S    
C78   F24   S    
C149  C153  S    
C120  C163  S    
C134  C143  S    
O12   Zn5   S    
C164  O15   A    
C204  C208  S    
C16   C239  T    
C35   C254  A    
H82   N3    S    
C42   C86   S    
O26   Zn12  S    
C128  C154  S    
C21   C48   A    
C76   C103  A    
C170  C238  S    
C29   C64   A    
C240  C249  S    
C17   C30   A    
C19   C32   A    
C224  C228  S    
C106  C142  S    
C11   C235  T    
C199  O34   A    
C9    C233  T    
C2    C138  A    
H77   N20   S    
C127  C136  S    
C59   H21   S    
C19   C23   A    
C74   C100  A    
C34   H15   S    
C207  O33   A    
C225  C242  S    
C215  H69   S    
C2    C221  A    
C17   C21   A    
C142  C151  S    
C131  C158  S    
C1    O1    A    
C121  C166  S    
C199  C235  S    
C251  C260  S    
C1    C231  S    
C111  C130  S    
C226  C244  S    
C115  C253  S    
C121  C161  T    
O54   Zn9   S    
C225  F18   S    
C217  H71   S    
C9    C246  S    
C88   C138  A    
C72   O7    S    
C22   C49   A    
C20   C33   A    
C208  O35   A    
C8    C245  S    
C253  O40   A    
C22   C27   A    
C240  C245  S    
C36   C44   A    
C3    C248  S    
C211  H64   S    
C107  C143  S    
C53   C71   A    
C186  O61   S    
C13   C139  A    
C108  C144  S    
C188  O23   A    
C182  C221  A    
O53   Zn8   S    
C14   C237  T    
C53   C58   A    
O29   Zn10  S    
C151  N6    S    
C59   C63   A    
C33   C38   A    
C60   C64   A    
O49   Zn1   S    
C230  H75   S    
C226  C230  S    
C179  N12   A    
O43   Zn7   S    
O20   Zn12  S    
C180  H35   S    
C77   C82   A    
C49   C53   A    
C146  C174  A    
O23   Zn6   S    
C256  O42   A    
C51   C55   A    
C84   C93   A    
C114  H44   S    
C129  C147  S    
C86   C95   A    
C170  O25   A    
C91   C140  A    
C69   N19   A    
C28   C63   A    
C125  C129  S    
C48   C52   A    
O32   Zn5   S    
C126  C134  S    
C4    C262  S    
C120  C160  T    
C126  C130  S    
C31   C36   A    
C6    C264  S    
C18   C31   A    
O57   Zn11  S    
C113  C157  A    
C143  C161  S    
C93   H33   S    
C180  C184  A    
C7    C230  S    
C193  F15   S    
O34   Zn7   S    
C194  F16   S    
C123  C132  S    
C37   H17   S    
C249  C258  S    
C109  H41   S    
C124  H54   S    
C126  H52   S    
C185  N14   A    
C65   N16   A    
C190  O62   S    
C106  C125  S    
C133  C142  S    
C80   F2    S    
C132  C145  S    
C45   C50   A    
C165  O16   A    
C39   O49   A    
C223  C227  S    
C224  C241  S    
C228  C246  S    
H83   N4    S    
C92   C96   A    
C110  C129  S    
C4    C227  S    
C111  H43   S    
C218  N1    S    
C47   C69   A    
C253  O44   A    
C187  N1    A    
C92   H32   S    
C133  C147  S    
H86   N5    S    
O14   Zn2   S    
O19   Zn4   S    
O46   Zn9   S    
O42   Zn6   S    
C122  C165  S    
C1    O27   A    
C76   F22   S    
C71   N17   A    
C170  O20   A    
C77   F23   S    
C44   C49   A    
C201  C209  A    
C7    H79   S    
C141  C150  S    
C127  C131  S    
C54   C59   A    
C30   C34   A    
C252  H5    S    
C166  O17   A    
C214  C218  A    
C222  N15   S    
C30   H10   S    
H97   N10   S    
C68   C191  A    
C94   H34   S    
C181  C210  A    
C178  C183  A    
C147  C151  S    
C27   C62   A    
C168  O58   S    
C200  C204  A    
C91   C180  A    
C17   C18   A    
C197  C202  A    
C90   F10   S    
C32   C37   A    
O16   Zn4   S    
H98   N11   S    
C226  C261  S    
O44   Zn8   S    
C187  O45   S    
C224  C259  S    
C16   C261  S    
O36   Zn8   S    
C104  N19   S    
C119  C159  T    
C157  H58   S    
C64   H27   S    
C46   C189  A    
C179  O59   S    
C250  C259  S    
C66   O2    S    
C132  C141  S    
C193  C219  A    
C185  C232  A    
C105  C109  S    
O39   Zn11  S    
C18   C22   A    
C107  C111  S    
O37   Zn9   S    
C34   C43   A    
C148  C152  S    
H80   N2    S    
C56   H19   S    
C119  C164  S    
C166  O13   A    
C130  C156  S    
C95   H36   S    
C41   O51   A    
C57   C101  A    
C79   C124  A    
C136  N13   S    
C122  C162  T    
C109  C150  S    
C73   N19   A    
C13   C232  A    
C147  H47   S    
C90   C135  A    
O15   Zn12  S    
C194  C198  A    
C96   C100  A    
C35   C79   A    
C7    C261  S    
C167  O18   A    
C125  H51   S    
C40   O54   A    
C89   C178  A    
C229  C247  S    
C65   O64   S    
H81   N3    S    
C229  H74   S    
C81   F3    S    
C201  C205  S    
C139  C174  A    
C82   F4    S    
C176  H1    S    
C196  C201  A    
H96   N10   S    
C81   C85   A    
C15   C260  S    
C58   C62   A    
C93   C97   A    
C114  C131  S    
C40   C84   S    
C80   C84   A    
C111  C152  S    
C136  C149  S    
C32   H12   S    
C185  O60   S    
C26   C27   A    
C50   C54   A    
C42   O57   A    
C11   C248  S    
C192  C196  A    
C191  N15   A    
C28   C29   A    
C26   C61   A    
C3    C7    S    
C106  C110  S    
C186  C243  A    
C8    C231  T    
O30   Zn11  S    
C70   N16   A    
C20   C25   A    
C94   C98   A    
C98   C103  A    
H91   N7    S    
O28   Zn9   S    
C5    C259  S    
C153  N8    S    
C6    C260  S    
H3    N13   S    
C108  C114  S    
C226  F19   S    
C127  H53   S    
C137  C172  A    
O13   Zn4   S    
C78   C83   A    
O24   Zn3   S    
C45   C67   A    
C140  C175  A    
C38   H18   S    
C249  C262  S    
C202  C211  A    
C189  N12   A    
O1    Zn1   S    
C137  C254  A    
C68   C113  A    
C70   O5    S    
C191  O63   S    
C131  C149  S    
C99   C104  A    
C74   F20   S    
C79   F9    S    
C169  C237  S    
C55   C60   A    
C264  N3    S    
C25   C29   A    
C251  H4    S    
O50   Zn5   S    
C167  C236  S    
O40   Zn1   S    
C87   C173  A    
C212  H65   S    
C39   O53   A    
H92   N8    S    
C105  F5    S    
C176  C181  A    
C224  F12   S    
C178  H24   S    
C10   C234  T    
C102  N17   S    
C107  F7    S    
C241  C246  S    
C255  O46   A    
C168  C210  A    
C108  F8    S    
C219  N12   S    
C129  C155  S    
C23   C50   A    
C47   C51   A    
C213  H66   S    
C82   C86   A    
H88   N6    S    
C225  C229  S    
C244  C248  S    
C91   C174  A    
O48   Zn11  S    
C215  C219  A    
C227  C245  S    
C216  C220  A    
C168  N1    A    
C109  C128  S    
C42   O52   A    
C43   C65   A    
C240  H6    S    
C75   F21   S    
C138  C173  A    
C227  H72   S    
C256  O47   A    
C171  O21   A    
C73   O8    S    
C133  N10   S    
H84   N4    S    
C143  C152  S    
C205  O31   A    
C110  C151  S    
C206  O32   A    
O52   Zn7   S    
C96   H37   S    
C257  O48   A    
O22   Zn4   S    
C146  H56   S    
C89   C175  A    
C189  O56   S    
C113  F13   S    
H99   N11   S    
O18   Zn3   S    
C190  N14   A    
C217  C222  A    
C103  N18   S    
C134  N11   S    
C241  C250  S    
C225  C260  S    
C250  H2    S    
C241  H7    S    
C195  C222  A    
C194  C220  A    
C171  O26   A    
C242  H8    S    
C46   C90   A    
H94   N9    S    
C209  C214  A    
C195  F17   S    
O27   Zn8   S    
H89   N7    S    
C145  H45   S    
C39   C83   S    
C136  C144  S    
C5    C263  S    
C163  O9    A    
O35   Zn7   S    
C98   H39   S    
C62   H25   S    
C149  H49   S    
C255  O41   A    
C112  O12   A    
C135  H55   S    
C250  C263  S    
C69   O4    S    
C24   C68   A    
C13   C57   A    
O51   Zn6   S    
C66   N17   A    
C35   C187  A    
C74   C78   A    
C198  C203  A    
C56   C61   A    
C77   C104  A    
C33   H14   S    
C97   H38   S    
C41   C85   S    
C192  F14   S    
C116  C255  S    
O11   Zn3   S    
C99   H40   S    
C41   O55   A    
C211  C215  A    
O10   Zn2   S    
C4    H46   S    
C88   C172  A    
C44   C66   A    
C192  C218  A    
C110  H42   S    
C249  H90   S    
C118  C257  S    
C2    C46   A    
C83   C92   A    
C15   C238  T    
C206  O37   A    
C167  O22   A    
H100  N13   S    
C257  O43   A    
C40   O50   A    
C223  C240  S    
C105  C141  S    
C220  N14   S    
C144  C153  S    
C24   C243  A    
H95   N9    S    
C132  N9    S    
C71   O6    S    
C186  N15   A    
C210  C254  A    
C116  C155  T    
C58   H20   S    
H76   N20   S    
C212  C216  A    
C89   C139  A    
C124  C172  A    
C97   C102  A    
C75   C80   A    
C114  C153  S    
C247  C264  S    
C251  C264  S    
O9    Zn12  S    
C262  N20   S    
O41   Zn5   S    
O31   Zn1   S    
C228  H73   S    
C12   C258  S    
C87   C137  A    
C245  C262  S    
C169  O24   A    
C141  C159  S    
C244  H9    S    
C36   H16   S    
H93   N8    S    
C209  H63   S    
C208  O39   A    
C101  C146  A    
C130  C148  S    
C183  H30   S    
C196  H59   S    
C52   C70   A    
C3    C252  S    
C263  N2    S    
C112  C233  S    
C188  O29   A    
C213  C217  A    
C203  C207  S    
C204  C213  A    
C5    H57   S    
C55   C73   A    
C25   C51   A    
C75   C102  A    
C197  H60   S    
C85   C94   A    
O55   Zn10  S    
C200  H62   S    
C117  C156  T    
C177  H13   S    
O21   Zn2   S    
C38   C47   A    
C31   H11   S    
C252  C261  S    
C157  C175  A    
O17   Zn3   S    
C106  F6    S    
O33   Zn6   S    
C203  C212  A    
H78   N2    S    
C23   C28   A    
C148  H48   S    
C198  H61   S    
C230  C248  S    
C67   O3    S    
C195  C200  A    
C43   C48   A    
C125  C133  S    
C12   C236  T    
C205  O36   A    
C4    C258  S    
C244  C252  S    
C144  C162  S    
O38   Zn10  S    
H87   N6    S    
C181  H28   S    
C145  C150  S    
C107  C126  S    
C142  C160  S    
C76   C81   A    
C223  C258  S    
C10   C247  S    
C134  C148  S    
C242  C247  S    
C5    C228  S    
C112  O28   A    
C63   H26   S    
C184  H31   S    
C57   C190  A    
C115  C154  T    
C67   N18   A    
C214  H67   S    
C169  O19   A    
C150  N5    S    
C123  C128  S    
C171  C239  S    
C193  C197  A    
C184  C243  A    
H85   N5    S    
C108  C127  S    
O47   Zn10  S    
C223  F1    S    
C118  C158  T    
C123  H50   S    
C163  O14   A    
C54   C72   A    
C202  C206  S    
C6    C229  S    
C101  F11   S    
C37   C45   A    
C183  C232  A    
C246  C263  S    
C52   C56   A    
C207  O38   A    
C6    H68   S    
