data_mof_unit_10607.cif
_audit_creation_date              2012-10-26T19:41:53-0400
_audit_creation_method            fapswitch 2.2
_symmetry_space_group_name_H-M    P1
_symmetry_Int_Tables_number       1
_space_group_crystal_system       triclinic
_cell_length_a                    10.624458
_cell_length_b                    10.898488
_cell_length_c                    9.628601
_cell_angle_alpha                 90.842606
_cell_angle_beta                  89.600264
_cell_angle_gamma                 93.871834
_cell_volume                      1112.21584593

loop_
_atom_site_label
_atom_site_type_symbol
_atom_type_description
_atom_site_fract_x
_atom_site_fract_y
_atom_site_fract_z
_atom_type_partial_charge
C1    C     C_R   0.491604 0.262379 0.498993 0.580396
C2    C     C_R   0.437236 0.061048 0.614034 -0.083122
C3    C     C_R   0.482123 0.127616 0.496549 -0.000761
C4    C     C_R   0.259518 0.499594 0.500452 0.563229
C5    C     C_R   0.537808 0.065030 0.385245 0.258514
C6    C     C_R   0.537372 0.937465 0.386404 -0.123647
C7    C     C_R   0.506340 0.873237 0.507652 -0.048236
C8    C     C_R   0.679147 0.654464 0.145018 -0.026613
C9    C     C_R   0.773029 0.722856 0.073721 -0.145247
C10   C     C_R   0.774688 0.721048 0.930446 -0.184744
C11   C     C_R   0.681821 0.651669 0.857872 -0.096041
C12   C     C_3   0.962417 0.500854 0.369643 0.301796
C13   C     C_R   0.589714 0.574057 0.925987 0.153886
C14   C     C_R   0.588974 0.574836 0.075322 0.171478
C15   C     C_R   0.413809 0.430404 0.073415 0.025765
C16   C     C_R   0.503997 0.738167 0.502025 0.526248
C17   C     C_R   0.413097 0.431522 0.925895 0.020539
C18   C     C_R   0.740437 0.501114 0.499394 0.530596
C19   C     C_3   0.039205 0.501301 0.632198 -0.117348
C20   C     C_3   0.949445 0.400438 0.563729 -0.166279
C21   C     C_3   0.877360 0.501806 0.498011 0.065047
C22   C     C_3   0.964789 0.602842 0.566318 -0.165103
C23   C     C_3   0.035219 0.398603 0.432931 -0.131459
C24   C     C_3   0.050701 0.602738 0.435455 -0.122867
C25   C     C_3   0.629055 0.991928 0.008646 -0.073468
C26   C     C_3   0.013400 0.501906 0.136861 -0.123328
C27   C     C_3   0.722271 0.154288 0.304627 -0.116235
C28   C     C_3   0.185486 0.160493 0.623700 -0.138874
C29   C     C_3   0.235398 0.069469 0.033476 -0.103084
C30   C     C_3   0.122561 0.500340 0.501144 0.011592
C31   C     C_R   0.368176 0.113640 0.724394 0.279518
C32   C     C_R   0.380907 0.070394 0.859498 0.324013
C33   C     C_R   0.453267 0.969491 0.879439 0.231419
C34   C     C_R   0.484816 0.897432 0.765018 -0.152767
C35   C     C_R   0.472838 0.940125 0.628705 -0.092450
Cu1   Cu    Cu3+1 0.499990 0.499990 0.640660 0.948341
Cu2   Cu    Cu3+1 0.500010 0.500010 0.359340 0.968158
H1    H     H_    0.904027 0.318833 0.616386 0.098223
H2    H     H_    0.675013 0.961483 0.103491 0.141888
H3    H     H_    0.536063 0.819456 0.787797 0.170428
H4    H     H_    0.569963 0.889324 0.295528 0.154456
H5    H     H_    0.342962 0.373245 0.127884 0.138135
H6    H     H_    0.680254 0.669037 0.254368 0.170840
H7    H     H_    0.340430 0.376992 0.871288 0.193271
H8    H     H_    0.069662 0.420051 0.146618 0.106483
H9    H     H_    0.075157 0.588038 0.147042 0.115283
H10   H     H_    0.973089 0.499452 0.030786 0.143786
H11   H     H_    0.066613 0.315626 0.378041 0.080876
H12   H     H_    0.842319 0.781083 0.130217 0.101000
H13   H     H_    0.772342 0.068388 0.314493 0.065667
H14   H     H_    0.735753 0.212066 0.400357 0.122970
H15   H     H_    0.766547 0.207153 0.217398 0.154506
H16   H     H_    0.143927 0.070819 0.663055 0.090573
H17   H     H_    0.212031 0.151875 0.512294 0.109272
H18   H     H_    0.110950 0.226075 0.632270 0.137885
H19   H     H_    0.195682 0.127225 0.116593 0.115679
H20   H     H_    0.266238 0.985038 0.082942 0.159997
H21   H     H_    0.158750 0.045529 0.957454 0.088863
H22   H     H_    0.844739 0.778535 0.875007 0.097018
H23   H     H_    0.681982 0.667557 0.749149 0.168477
H24   H     H_    0.073793 0.501167 0.740749 0.125085
H25   H     H_    0.932627 0.685505 0.621193 0.093822
H26   H     H_    0.094917 0.685011 0.383037 0.098330
H27   H     H_    0.636179 0.094221 0.007415 0.172913
H28   H     H_    0.684264 0.956368 0.919931 0.073698
N1    N     N_R   0.501210 0.501210 0.147910 -0.251264
N2    N     N_R   0.501250 0.501290 0.852040 -0.256979
O1    O     O_R   0.499990 0.319640 0.618810 -0.467720
O2    O     O_3   0.913387 0.499725 0.233786 -0.557259
O3    O     O_3   0.593138 0.128037 0.274762 -0.529265
O4    O     O_3   0.289430 0.207314 0.702988 -0.549438
O5    O     O_3   0.337600 0.137418 0.970853 -0.541604
O6    O     O_R   0.500000 0.319660 0.381240 -0.450267
O7    O     O_R   0.316850 0.499960 0.618770 -0.486022
O8    O     O_R   0.316860 0.499980 0.381190 -0.520809
O9    O     O_R   0.500000 0.680340 0.618760 -0.533304
O10   O     O_R   0.500010 0.680360 0.381190 -0.528310
O11   O     O_R   0.683140 0.500020 0.618810 -0.534579
O12   O     O_R   0.683150 0.500040 0.381230 -0.485057
O13   O     O_3   0.501202 0.946195 0.008418 -0.546408

loop_
_geom_bond_atom_site_label_1
_geom_bond_atom_site_label_2
_ccdc_geom_bond_type
C2    C35   A    
C12   O2    S    
C25   O13   S    
C19   C20   S    
C8    H6    S    
Cu1   N2    S    
C32   O5    S    
Cu2   O12   S    
C12   C23   S    
C34   H3    S    
Cu1   Cu2   S    
C34   C35   A    
C5    C6    A    
C18   C21   S    
C1    O1    A    
C16   O10   A    
C4    O8    A    
Cu1   O9    S    
C26   H8    S    
C18   O12   A    
C6    H4    S    
C9    C10   A    
C4    O7    A    
C27   H13   S    
C29   O5    S    
C31   O4    S    
Cu2   O8    S    
C13   C14   A    
C28   H18   S    
C27   H14   S    
C17   N2    A    
C23   C30   S    
C19   C22   S    
C25   H28   S    
C28   H17   S    
C8    C9    A    
C15   N1    A    
Cu2   O10   S    
C12   C21   S    
C2    C31   A    
C1    C3    S    
C25   H27   S    
C5    O3    S    
C22   H25   S    
C20   H1    S    
C31   C32   A    
C20   C23   S    
C18   O11   A    
Cu2   N1    S    
C33   C34   A    
C14   N1    A    
C9    H12   S    
C29   H21   S    
C27   O3    S    
Cu1   O7    S    
C26   H10   S    
C7    C16   S    
C29   H20   S    
C24   H26   S    
C22   C24   S    
C28   O4    S    
C11   H23   S    
C27   H15   S    
C13   N2    A    
C15   C17   A    
Cu2   O6    S    
C8    C14   A    
C23   H11   S    
C16   O9    A    
C7    C35   A    
C15   H5    S    
C3    C5    A    
C28   H16   S    
Cu1   O1    S    
C33   O13   S    
C6    C7    A    
C29   H19   S    
C12   C24   S    
C1    O6    A    
C32   C33   A    
C10   H22   S    
C17   H7    S    
Cu1   O11   S    
C25   H2    S    
C11   C13   A    
C19   H24   S    
C2    C3    A    
C24   C30   S    
C10   C11   A    
C26   H9    S    
C20   C21   S    
C26   O2    S    
C21   C22   S    
C19   C30   S    
C4    C30   S    
