data_mof_unit_47966.cif
_audit_creation_date              2012-12-10T19:09:06-0500
_audit_creation_method            fapswitch 2.2
_symmetry_space_group_name_H-M    P1
_symmetry_Int_Tables_number       1
_space_group_crystal_system       triclinic
_cell_length_a                    17.714268
_cell_length_b                    10.878735
_cell_length_c                    9.528527
_cell_angle_alpha                 90.254088
_cell_angle_beta                  89.258963
_cell_angle_gamma                 89.910312
_cell_volume                      1836.0572149

loop_
_atom_site_label
_atom_site_type_symbol
_atom_type_description
_atom_site_fract_x
_atom_site_fract_y
_atom_site_fract_z
_atom_type_partial_charge
C1    C     C_R   0.502120 0.262439 0.499130 0.854331
C2    C     C_R   0.884204 0.496009 0.486913 0.049858
C3    C     C_1   0.964858 0.495850 0.483550 -0.035991
C4    C     C_1   0.032531 0.496922 0.484370 -0.049816
C5    C     C_R   0.148769 0.541478 0.614079 0.246423
C6    C     C_R   0.227971 0.543734 0.619736 0.221386
C7    C     C_R   0.271716 0.503825 0.501811 -0.143671
C8    C     C_R   0.234451 0.465087 0.379964 -0.255640
C9    C     C_R   0.156033 0.463041 0.375049 -0.204531
C10   C     C_R   0.113194 0.500109 0.491484 0.021954
C11   C     C_R   0.507338 0.063434 0.620603 -0.006857
C12   C     C_R   0.355277 0.501897 0.501062 0.807690
C13   C     C_R   0.506534 0.129222 0.495576 -0.281059
C14   C     C_R   0.508625 0.063895 0.366893 0.390447
C15   C     C_R   0.496785 0.936136 0.367410 0.393118
C16   C     C_R   0.496665 0.871336 0.496778 -0.271330
C17   C     C_R   0.505414 0.936959 0.621564 0.000295
C18   C     C_3   0.457637 0.935126 0.752487 -0.491383
C19   C     C_3   0.459761 0.074982 0.750673 0.139044
C20   C     C_R   0.564167 0.527889 0.072179 0.216249
C21   C     C_R   0.439438 0.458658 0.075500 -0.099868
C22   C     C_R   0.439956 0.456992 0.926721 -0.102333
C23   C     C_R   0.497072 0.737679 0.499745 0.846833
C24   C     C_R   0.564023 0.528490 0.924756 0.221784
C25   C     C_3   0.607576 0.645715 0.918705 0.013713
C26   C     C_3   0.608830 0.643779 0.078658 -0.516763
C27   C     C_R   0.644055 0.500214 0.499184 0.824889
C28   C     C_R   0.845519 0.402671 0.557434 -0.185937
C29   C     C_R   0.766024 0.401684 0.562705 0.209407
C30   C     C_R   0.726597 0.498974 0.497423 -0.108466
C31   C     C_R   0.766252 0.594737 0.429265 0.212486
C32   C     C_R   0.845044 0.591310 0.423171 -0.235015
Cu1   Cu    Cu3+1 0.500000 0.499980 0.640670 0.949040
Cu2   Cu    Cu3+1 0.500000 0.500020 0.359330 0.969171
H1    H     H_    0.878159 0.330649 0.605928 0.145680
H2    H     H_    0.400833 0.895854 0.734429 0.191868
H3    H     H_    0.487985 0.895548 0.843064 0.181688
H4    H     H_    0.490745 0.118176 0.838761 0.144447
H5    H     H_    0.390182 0.425520 0.131506 0.131775
H6    H     H_    0.391854 0.420948 0.872226 0.150622
H7    H     H_    0.574955 0.722865 0.872951 0.168815
H8    H     H_    0.665639 0.627484 0.122731 0.211004
H9    H     H_    0.577048 0.720916 0.127642 0.255820
H10   H     H_    0.875825 0.664312 0.370710 0.140330
H11   H     H_    0.266027 0.434394 0.288202 0.161651
H12   H     H_    0.128724 0.431884 0.280208 0.155765
N1    N     N_R   0.500470 0.500930 0.147930 -0.166976
N2    N     N_R   0.500480 0.500890 0.852020 -0.198932
O1    O     O_R   0.500000 0.319640 0.618810 -0.568320
O2    O     O_R   0.500010 0.319680 0.381230 -0.545972
O3    O     O_R   0.391250 0.499990 0.618840 -0.576827
O4    O     O_R   0.391260 0.500020 0.381250 -0.604143
O5    O     O_R   0.499990 0.680320 0.618770 -0.593462
O6    O     O_R   0.500000 0.680360 0.381190 -0.530765
O7    O     O_R   0.608740 0.499980 0.618750 -0.560482
O8    O     O_R   0.608750 0.500010 0.381160 -0.563314
O9    O     O_3   0.487598 0.876188 0.240440 -0.562244
C33   C     C_3   0.409606 0.855498 0.219823 -0.328528
H13   H     H_    0.376181 0.942018 0.226251 0.123413
H14   H     H_    0.385889 0.788903 0.296580 0.173930
H15   H     H_    0.402073 0.816058 0.113331 0.183274
N3    N     N_2   0.386514 0.130187 0.724049 -0.392715
H16   H     H_    0.358957 0.096146 0.637327 0.250390
C34   C     C_3   0.337900 0.143615 0.846116 -0.742183
H17   H     H_    0.285736 0.193471 0.816732 0.227184
H18   H     H_    0.366601 0.197738 0.928617 0.213531
H19   H     H_    0.322185 0.051889 0.888100 0.223202
N4    N     N_2   0.681617 0.628330 0.854343 -0.381963
H20   H     H_    0.710927 0.551790 0.887248 0.267602
C35   C     C_3   0.727467 0.737865 0.845650 -0.691536
H21   H     H_    0.778563 0.718511 0.780455 0.229662
H22   H     H_    0.745226 0.766865 0.952166 0.223896
H23   H     H_    0.695565 0.813732 0.795845 0.230071
N5    N     N_2   0.724672 0.304428 0.630055 -0.411922
H24   H     H_    0.675303 0.278841 0.581833 0.244702
C36   C     C_3   0.764274 0.203185 0.694382 -0.697982
H25   H     H_    0.722797 0.140384 0.744949 0.228616
H26   H     H_    0.802422 0.237786 0.777222 0.232108
H27   H     H_    0.796636 0.150430 0.613588 0.219903
N6    N     N_2   0.727256 0.694853 0.366898 -0.432663
H28   H     H_    0.755662 0.733031 0.282543 0.243474
C37   C     C_3   0.701043 0.787819 0.465115 -0.668703
H29   H     H_    0.668660 0.858979 0.408175 0.231441
H30   H     H_    0.749809 0.832415 0.516903 0.214903
H31   H     H_    0.663251 0.747162 0.546135 0.240187
N7    N     N_2   0.105591 0.578804 0.734191 -0.411977
H32   H     H_    0.059753 0.523402 0.755933 0.245801
C38   C     C_3   0.086286 0.708020 0.736714 -0.666845
H33   H     H_    0.047711 0.730054 0.649228 0.215729
H34   H     H_    0.137883 0.765372 0.727492 0.242287
H35   H     H_    0.057429 0.730829 0.837649 0.220081
N8    N     N_2   0.261453 0.583081 0.746979 -0.396168
H36   H     H_    0.285492 0.515579 0.807004 0.247575
C39   C     C_3   0.297560 0.702286 0.748338 -0.682894
H37   H     H_    0.272660 0.758732 0.834491 0.221315
H38   H     H_    0.290055 0.751774 0.647536 0.203598
H39   H     H_    0.358763 0.691257 0.768311 0.241252
O10   O     O_3   0.531234 0.122163 0.244163 -0.542394
C40   C     C_3   0.469261 0.140554 0.155278 -0.234264
H40   H     H_    0.482794 0.218678 0.085426 0.172399
H41   H     H_    0.415987 0.163788 0.213176 0.117941
H42   H     H_    0.461424 0.059856 0.085753 0.185784

loop_
_geom_bond_atom_site_label_1
_geom_bond_atom_site_label_2
_ccdc_geom_bond_type
Cu1   O7    S    
C22   N2    A    
Cu2   O8    S    
C36   H27   S    
C31   N6    S    
C11   C19   S    
C29   C30   A    
N5    C36   S    
C28   C29   A    
C18   H3    S    
C36   H26   S    
C30   C31   A    
C27   O7    A    
C19   N3    S    
C33   H14   S    
C15   C16   A    
C8    C9    A    
C2    C32   A    
C18   C19   S    
C8    H11   S    
N3    C34   S    
C31   C32   A    
C28   H1    S    
C16   C17   A    
C23   O5    A    
C35   H21   S    
C1    O2    A    
C33   H15   S    
C9    H12   S    
C21   C22   A    
C27   C30   S    
C15   O9    S    
C25   N4    S    
C12   O4    A    
C26   H9    S    
C14   O10   S    
Cu1   O5    S    
C7    C12   S    
Cu2   O2    S    
N5    H24   S    
C24   N2    A    
C34   H19   S    
C20   C24   A    
C7    C8    A    
C24   C25   S    
N6    C37   S    
C25   H7    S    
N7    H32   S    
N4    H20   S    
C29   N5    S    
C39   H39   S    
C33   H13   S    
C37   H29   S    
C34   H18   S    
N3    H16   S    
C19   H4    S    
C40   H40   S    
C21   H5    S    
C38   H35   S    
C22   H6    S    
C35   H23   S    
N8    C39   S    
C17   C18   S    
C32   H10   S    
C36   H25   S    
C39   H38   S    
C5    N7    S    
C40   H41   S    
C38   H34   S    
Cu2   O6    S    
C16   C23   S    
C37   H30   S    
C1    C13   S    
C4    C10   S    
C3    C4    T    
C12   O3    A    
C26   H8    S    
C23   O6    A    
C9    C10   A    
C11   C17   A    
C27   O8    A    
N6    H28   S    
C2    C28   A    
C6    C7    A    
Cu1   O3    S    
C37   H31   S    
Cu2   O4    S    
C34   H17   S    
C2    C3    S    
C25   C26   S    
C5    C10   A    
C11   C13   A    
C18   H2    S    
O9    C33   S    
C5    C6    A    
C20   C26   S    
C6    N8    S    
N8    H36   S    
Cu1   Cu2   S    
N7    C38   S    
C39   H37   S    
C20   N1    A    
C40   H42   S    
C38   H33   S    
N4    C35   S    
O10   C40   S    
Cu1   O1    S    
Cu1   N2    S    
C14   C15   A    
C35   H22   S    
Cu2   N1    S    
C13   C14   A    
C1    O1    A    
C21   N1    A    
