data_mof_unit_40108.cif
_audit_creation_date              2012-10-26T21:06:33-0400
_audit_creation_method            fapswitch 2.2
_symmetry_space_group_name_H-M    P1
_symmetry_Int_Tables_number       1
_space_group_crystal_system       triclinic
_cell_length_a                    15.874105
_cell_length_b                    10.787269
_cell_length_c                    9.536737
_cell_angle_alpha                 89.581441
_cell_angle_beta                  89.53275
_cell_angle_gamma                 90.518188
_cell_volume                      1632.88851573

loop_
_atom_site_label
_atom_site_type_symbol
_atom_type_description
_atom_site_fract_x
_atom_site_fract_y
_atom_site_fract_z
_atom_type_partial_charge
Br1   Br    Br    0.933507 0.373340 0.208710 -0.534824
Br2   Br    Br    0.067063 0.624562 0.792090 -0.547049
Br3   Br    Br    0.367134 0.859773 0.282759 -0.490636
Br4   Br    Br    0.628738 0.139829 0.723770 -0.477104
C1    C     C_R   0.501600 0.262320 0.500503 0.571503
C2    C     C_R   0.554063 0.575757 0.072650 0.256005
C3    C     C_R   0.339897 0.499654 0.500488 0.558543
C4    C     C_R   0.660129 0.500183 0.499538 0.557817
C5    C     C_3   0.970745 0.434679 0.608250 0.139217
C6    C     C_3   0.029443 0.563463 0.392649 0.140264
C7    C     C_3   0.027279 0.380015 0.491948 -0.108180
C8    C     C_3   0.972920 0.618146 0.508938 -0.105585
C9    C     C_1   0.250369 0.498891 0.501663 0.012021
C10   C     C_1   0.749710 0.500280 0.498550 0.020532
C11   C     C_3   0.027253 0.550440 0.620050 0.168905
C12   C     C_R   0.498152 0.737641 0.499565 0.571909
C13   C     C_3   0.972944 0.447710 0.380831 0.169310
C14   C     C_3   0.083414 0.497852 0.502328 0.012545
C15   C     C_3   0.916741 0.500298 0.498557 0.012574
C16   C     C_1   0.174940 0.498249 0.502260 0.004146
C17   C     C_1   0.825169 0.500331 0.498315 0.010295
C18   C     C_R   0.449943 0.066474 0.406501 -0.129849
C19   C     C_R   0.549248 0.933403 0.594224 -0.130172
C20   C     C_3   0.994242 0.292452 0.804717 -0.242781
C21   C     C_3   0.006326 0.705792 0.196108 -0.239940
C22   C     C_3   0.300621 0.372112 0.876358 -0.281433
C23   C     C_R   0.446718 0.938049 0.405466 0.131319
C24   C     C_3   0.601113 0.784791 0.121405 -0.278763
C25   C     C_R   0.551932 0.061795 0.596136 0.143508
C26   C     C_R   0.497557 0.871409 0.498983 -0.001734
C27   C     C_R   0.501845 0.128498 0.501459 0.001989
C28   C     C_R   0.446445 0.424472 0.076397 0.018188
C29   C     C_R   0.554535 0.574002 0.923610 0.017953
C30   C     C_R   0.445269 0.425297 0.927381 0.256839
Cu1   Cu    Cu3+1 0.500000 0.500020 0.640660 1.028336
Cu2   Cu    Cu3+1 0.500000 0.499980 0.359340 1.027344
H1    H     H_    0.050076 0.283233 0.485520 0.139286
H2    H     H_    0.025998 0.224806 0.735358 0.148792
H3    H     H_    0.103977 0.579217 0.212968 0.285031
H4    H     H_    0.040816 0.758446 0.112902 0.194968
H5    H     H_    0.974500 0.773401 0.265426 0.150154
H6    H     H_    0.958492 0.645327 0.145942 0.193650
H7    H     H_    0.401908 0.252791 0.873713 0.252539
H8    H     H_    0.280529 0.349340 0.985470 0.125071
H9    H     H_    0.262518 0.315397 0.803229 0.151034
H10   H     H_    0.288152 0.471559 0.854352 0.197146
H11   H     H_    0.673627 0.626621 0.129088 0.245158
H12   H     H_    0.950165 0.714949 0.515364 0.139890
H13   H     H_    0.620667 0.811406 0.013103 0.129540
H14   H     H_    0.640667 0.836972 0.196631 0.158456
H15   H     H_    0.534391 0.810943 0.138621 0.209053
H16   H     H_    0.410227 0.118148 0.335434 0.151646
H17   H     H_    0.588776 0.881738 0.665607 0.148097
H18   H     H_    0.404333 0.363358 0.134622 0.115155
H19   H     H_    0.598462 0.632239 0.865353 0.115233
H20   H     H_    0.896413 0.418777 0.788119 0.287409
H21   H     H_    0.959937 0.239844 0.888166 0.195561
H22   H     H_    0.042148 0.353019 0.854557 0.189468
N1    N     N_R   0.500020 0.500030 0.852070 -0.215327
N2    N     N_R   0.499980 0.499970 0.147930 -0.215305
N3    N     N_2   0.935171 0.365877 0.725782 -0.478668
N4    N     N_2   0.065201 0.632188 0.275202 -0.479189
N5    N     N_2   0.389058 0.345095 0.855923 -0.463989
N6    N     N_2   0.611987 0.653141 0.144285 -0.468662
O1    O     O_R   0.500000 0.319660 0.618740 -0.440401
O2    O     O_R   0.500000 0.680340 0.381260 -0.444723
O3    O     O_R   0.499990 0.319630 0.381170 -0.520999
O4    O     O_R   0.500010 0.680370 0.618830 -0.519670
O5    O     O_R   0.379080 0.500000 0.618760 -0.475639
O6    O     O_R   0.620920 0.500000 0.381240 -0.472860
O7    O     O_R   0.379080 0.499970 0.381190 -0.494139
O8    O     O_R   0.620920 0.500030 0.618810 -0.495777

loop_
_geom_bond_atom_site_label_1
_geom_bond_atom_site_label_2
_ccdc_geom_bond_type
C21   H6    S    
C29   H19   S    
C11   C14   S    
C20   H2    S    
C22   N5    S    
Cu2   O7    S    
C7    C14   S    
C3    O5    A    
C20   N3    S    
C12   O4    A    
C8    C15   S    
C24   H13   S    
C4    O6    A    
Br4   C25   S    
C22   H9    S    
C2    C29   A    
C1    O3    A    
C8    H12   S    
C24   H14   S    
C1    O1    A    
Br3   C23   S    
C30   N1    A    
C5    C11   S    
Cu2   O3    S    
C22   H8    S    
C25   C27   A    
C21   H5    S    
C23   C26   A    
Br2   C11   S    
C5    C7    S    
C19   C25   A    
C6    N4    S    
C6    C8    S    
Cu1   O4    S    
C6    C14   S    
C5    N3    S    
C24   N6    S    
C10   C17   T    
C28   H18   S    
C30   N5    S    
C15   C17   S    
C1    C27   S    
Cu2   O6    S    
Cu1   O8    S    
C19   H17   S    
C8    C11   S    
C14   C16   S    
C21   N4    S    
C21   H4    S    
C3    O7    A    
C18   C23   A    
Cu1   N1    S    
Cu2   O2    S    
C4    O8    A    
C12   O2    A    
C18   C27   A    
C28   N2    A    
C6    C13   S    
H7    N5    S    
C19   C26   A    
C2    N2    A    
C3    C9    S    
C29   N1    A    
Cu1   O5    S    
C20   H22   S    
C20   H21   S    
C2    N6    S    
H11   N6    S    
C7    H1    S    
H3    N4    S    
C22   H10   S    
H20   N3    S    
C13   C15   S    
C4    C10   S    
C12   C26   S    
C9    C16   T    
C18   H16   S    
C24   H15   S    
Br1   C13   S    
C5    C15   S    
C7    C13   S    
Cu1   Cu2   S    
Cu1   O1    S    
Cu2   N2    S    
C28   C30   A    
