data_mof_unit_37645.cif
_audit_creation_date              2012-12-10T19:00:13-0500
_audit_creation_method            fapswitch 2.2
_symmetry_space_group_name_H-M    P1
_symmetry_Int_Tables_number       1
_space_group_crystal_system       triclinic
_cell_length_a                    9.613508
_cell_length_b                    10.93319
_cell_length_c                    13.516552
_cell_angle_alpha                 93.361964
_cell_angle_beta                  74.291448
_cell_angle_gamma                 91.451873
_cell_volume                      1365.1947603

loop_
_atom_site_label
_atom_site_type_symbol
_atom_type_description
_atom_site_fract_x
_atom_site_fract_y
_atom_site_fract_z
_atom_type_partial_charge
C1    C     C_R   0.500680 0.737212 0.502056 0.801470
C2    C     C_R   0.446092 0.439946 0.971455 0.067780
C3    C     C_R   0.491590 0.441767 0.862769 0.042591
C4    C     C_R   0.550712 0.460189 0.027821 0.083525
C5    C     C_R   0.698934 0.471926 0.973894 -0.023286
C6    C     C_R   0.741708 0.429519 0.869709 -0.052961
C7    C     C_R   0.638457 0.419539 0.814336 -0.151987
C8    C     C_R   0.512541 0.472994 0.135638 -0.183280
C9    C     C_R   0.755292 0.534546 0.134297 -0.092806
C10   C     C_R   0.386793 0.454622 0.807022 -0.085683
C11   C     C_R   0.377361 0.931035 0.501232 0.055564
C12   C     C_R   0.424974 0.486607 0.697794 0.806701
C13   C     C_R   0.498956 0.870219 0.509434 -0.139615
C14   C     C_R   0.614984 0.940517 0.527291 -0.171797
C15   C     C_R   0.612963 0.068653 0.526023 -0.188714
C16   C     C_R   0.494953 0.128631 0.506906 -0.136615
C17   C     C_R   0.374030 0.056922 0.500745 0.112104
C18   C     C_3   0.274777 0.050739 0.430656 -0.153748
C19   C     C_3   0.282273 0.908644 0.430174 -0.135368
C20   C     C_R   0.958142 0.461508 0.414343 0.263554
C21   C     C_R   0.895396 0.554649 0.578691 -0.000583
C22   C     C_R   0.044144 0.558558 0.578487 0.087352
C23   C     C_R   0.498567 0.262139 0.500174 0.775166
C24   C     C_R   0.105734 0.467224 0.412540 0.215917
C25   C     C_3   0.136534 0.349897 0.351843 -0.431093
C26   C     C_3   0.975015 0.336244 0.362694 -0.238451
C27   C     C_R   0.575922 0.501936 0.301046 0.797016
C28   C     C_R   0.797430 0.523969 0.026818 -0.043063
C29   C     C_R   0.616210 0.501477 0.188626 -0.112246
C30   C     C_R   0.241439 0.435139 0.857155 -0.186806
C31   C     C_R   0.199174 0.409267 0.960427 -0.058799
C32   C     C_R   0.298517 0.417431 0.018432 -0.082842
Cu1   Cu    Cu3+1 0.359330 0.500020 0.500010 0.984485
Cu2   Cu    Cu3+1 0.640670 0.499980 0.499990 0.958241
H1    H     H_    0.829405 0.572251 0.176107 0.223250
H2    H     H_    0.814294 0.598513 0.641414 0.188342
H3    H     H_    0.182316 0.288087 0.394259 0.206765
H4    H     H_    0.921507 0.264733 0.415734 0.134556
H5    H     H_    0.402752 0.462112 0.180227 0.156257
H6    H     H_    0.257662 0.401676 0.098762 0.163278
H7    H     H_    0.672094 0.381591 0.736130 0.208264
H8    H     H_    0.709100 0.896874 0.538447 0.184475
N1    N     N_R   0.852320 0.499070 0.499340 -0.239449
N2    N     N_R   0.148230 0.499110 0.499340 -0.229217
O1    O     O_R   0.381190 0.680360 0.500000 -0.608332
O2    O     O_R   0.618780 0.680320 0.499990 -0.577550
O3    O     O_R   0.323230 0.500000 0.650990 -0.603345
O4    O     O_R   0.560820 0.499960 0.650980 -0.600524
O5    O     O_R   0.381220 0.319680 0.500010 -0.554795
O6    O     O_R   0.618810 0.319640 0.500000 -0.598520
O7    O     O_R   0.439180 0.500040 0.349020 -0.572359
O8    O     O_R   0.676770 0.500000 0.349010 -0.587069
H9    H     H_    0.706103 0.120025 0.536708 0.179442
C33   C     C_2   0.126112 0.101359 0.483495 0.484962
H10   H     H_    0.038192 0.082412 0.448487 0.053808
O9    O     O_2   0.102948 0.162497 0.564808 -0.472245
C34   C     C_2   0.341201 0.103950 0.327191 0.243160
H11   H     H_    0.441494 0.156138 0.313304 0.077394
O10   O     O_2   0.282125 0.088601 0.257939 -0.518996
C35   C     C_2   0.141374 0.844051 0.481755 0.381163
H12   H     H_    0.093935 0.775602 0.438982 0.103936
O11   O     O_2   0.076708 0.870868 0.571111 -0.526591
C36   C     C_2   0.364171 0.845320 0.328286 0.410348
H13   H     H_    0.474888 0.872610 0.292178 0.070435
O12   O     O_2   0.308320 0.764172 0.285599 -0.525894
C37   C     C_2   0.081989 0.639014 0.659636 0.439604
H14   H     H_    0.190629 0.670557 0.653078 0.144696
O13   O     O_2   0.987948 0.681247 0.732658 -0.564586
H15   H     H_    0.204167 0.362290 0.272652 0.201844
C38   C     C_2   0.934953 0.327772 0.262682 0.440207
H16   H     H_    0.856581 0.259390 0.250637 0.063358
O14   O     O_2   0.988037 0.397517 0.195138 -0.587404
C39   C     C_2   0.884126 0.371904 0.824868 0.350973
H17   H     H_    0.945733 0.343444 0.875544 0.054341
O15   O     O_2   0.931148 0.350994 0.732206 -0.505346
C40   C     C_2   0.934526 0.583937 0.972112 0.361260
H18   H     H_    0.968292 0.581631 0.889448 0.123306
O16   O     O_2   0.010256 0.639912 0.019235 -0.495644
H19   H     H_    0.161102 0.437883 0.815194 0.162534
H20   H     H_    0.087558 0.387300 0.996829 0.174180

loop_
_geom_bond_atom_site_label_1
_geom_bond_atom_site_label_2
_ccdc_geom_bond_type
C37   O13   D    
C36   O12   D    
C27   C29   S    
Cu1   O1    S    
C39   H17   S    
C12   O4    A    
C4    C8    A    
C31   H20   S    
C21   H2    S    
C11   C19   S    
C8    C29   A    
C15   H9    S    
C2    C32   A    
C26   C38   S    
C40   O16   D    
C3    C7    A    
C5    C6    A    
C1    O2    A    
C23   O5    A    
Cu1   O5    S    
C15   C16   A    
C35   O11   D    
C18   C19   S    
C22   C37   S    
C25   H3    S    
C21   N1    A    
C22   N2    A    
C20   C24   A    
C19   C36   S    
C16   C17   A    
C38   H16   S    
Cu2   O2    S    
C8    H5    S    
C9    C29   A    
C14   H8    S    
C32   H6    S    
C37   H14   S    
C21   C22   A    
C39   O15   D    
C12   O3    A    
C27   O7    A    
Cu1   Cu2   S    
C33   O9    D    
Cu2   O6    S    
C40   H18   S    
C26   H4    S    
C23   O6    A    
C25   C26   S    
C35   H12   S    
C2    C4    A    
C5    C28   A    
C10   C30   A    
C18   C34   S    
C31   C32   A    
C17   C18   S    
C24   C25   S    
C10   C12   S    
C30   H19   S    
C16   C23   S    
Cu1   O3    S    
C25   H15   S    
C28   C40   S    
C20   N1    A    
C27   O8    A    
C6    C39   S    
C33   H10   S    
C11   C17   A    
Cu1   N2    S    
Cu2   N1    S    
C4    C5    A    
C6    C7    A    
C19   C35   S    
Cu1   O7    S    
Cu2   O4    S    
Cu2   O8    S    
C2    C3    A    
C3    C10   A    
C11   C13   A    
C1    O1    A    
C34   H11   S    
C30   C31   A    
C20   C26   S    
C24   N2    A    
C7    H7    S    
C34   O10   D    
C18   C33   S    
C36   H13   S    
C1    C13   S    
C9    H1    S    
C14   C15   A    
C38   O14   D    
C13   C14   A    
C9    C28   A    
