data_mof_unit_54905.cif
_audit_creation_date              2012-12-10T19:59:22-0500
_audit_creation_method            fapswitch 2.2
_symmetry_space_group_name_H-M    P1
_symmetry_Int_Tables_number       1
_space_group_crystal_system       triclinic
_cell_length_a                    14.946646
_cell_length_b                    14.133607
_cell_length_c                    10.663365
_cell_angle_alpha                 90.032183
_cell_angle_beta                  89.630121
_cell_angle_gamma                 90.062239
_cell_volume                      2252.58746064

loop_
_atom_site_label
_atom_site_type_symbol
_atom_type_description
_atom_site_fract_x
_atom_site_fract_y
_atom_site_fract_z
_atom_type_partial_charge
C1    C     C_R   0.327689 0.499859 0.495302 0.905720
C2    C     C_R   0.672411 0.499919 0.500270 0.885048
C3    C     C_R   0.187275 0.427199 0.415116 -0.014179
C4    C     C_R   0.819870 0.427284 0.545589 -0.009344
C5    C     C_R   0.095026 0.431650 0.404424 -0.274622
C6    C     C_R   0.911917 0.429644 0.530536 -0.253619
C7    C     C_R   0.047999 0.506583 0.458710 0.047301
C8    C     C_R   0.951891 0.501888 0.460433 0.040437
C9    C     C_R   0.535683 0.104933 0.398448 0.247812
C10   C     C_R   0.460991 0.105541 0.600625 0.249327
C11   C     C_R   0.536194 0.204386 0.401448 -0.057839
C12   C     C_R   0.462563 0.204946 0.598072 -0.050930
C13   C     C_R   0.498449 0.053248 0.499865 -0.081829
C14   C     C_R   0.578918 0.895779 0.484076 -0.189014
C15   C     C_R   0.419485 0.894669 0.516679 -0.209969
C16   C     C_R   0.577901 0.796339 0.482822 0.002975
C17   C     C_R   0.421698 0.795297 0.518188 -0.016362
C18   C     C_R   0.498893 0.946692 0.500322 0.220872
C19   C     C_R   0.502750 0.499925 0.259721 0.888617
C20   C     C_R   0.503437 0.499973 0.740180 0.879240
C21   C     C_R   0.530965 0.583302 0.063261 0.082189
C22   C     C_R   0.534371 0.583255 0.935613 0.039798
C23   C     C_R   0.517816 0.499074 0.128500 -0.099598
C24   C     C_R   0.519520 0.499130 0.870956 -0.115955
C25   C     C_R   0.523563 0.412589 0.064489 -0.239895
C26   C     C_R   0.522941 0.412568 0.935092 -0.227606
C27   C     C_3   0.493436 0.680086 0.924894 -0.236774
C28   C     C_3   0.488152 0.679356 0.068797 -0.248250
C29   C     C_R   0.092287 0.578861 0.523726 0.449348
C30   C     C_R   0.900534 0.570844 0.400296 0.468620
C31   C     C_R   0.184289 0.575970 0.532425 -0.288135
C32   C     C_R   0.808866 0.570250 0.417431 -0.254498
C33   C     C_R   0.231910 0.500182 0.480512 -0.138723
C34   C     C_R   0.768459 0.499635 0.490504 -0.144093
H1    H     H_    0.521313 0.345372 0.113111 0.175900
H2    H     H_    0.518604 0.345328 0.886666 0.180686
H3    H     H_    0.641980 0.932705 0.472909 0.167386
H4    H     H_    0.355986 0.930600 0.527780 0.173510
H5    H     H_    0.639945 0.758433 0.469176 0.141873
H6    H     H_    0.360140 0.756577 0.532536 0.144319
H7    H     H_    0.427458 0.679554 0.877112 0.173872
H8    H     H_    0.533737 0.731265 0.114361 0.171192
H9    H     H_    0.218411 0.631388 0.583754 0.185640
H10   H     H_    0.768905 0.623762 0.371334 0.182713
H11   H     H_    0.059317 0.375620 0.356284 0.166637
H12   H     H_    0.952856 0.376499 0.575894 0.164091
H13   H     H_    0.564707 0.243536 0.323745 0.167447
H14   H     H_    0.433721 0.244551 0.675139 0.170818
N1    N     N_R   0.500000 0.252470 0.500000 -0.129700
N2    N     N_R   0.500000 0.747550 0.500000 -0.097537
O1    O     O_R   0.369060 0.579480 0.500010 -0.628916
O2    O     O_R   0.630940 0.579480 0.499990 -0.639793
O3    O     O_R   0.369050 0.420520 0.500010 -0.603227
O4    O     O_R   0.630950 0.420520 0.499990 -0.602688
O5    O     O_R   0.499990 0.579490 0.316780 -0.612096
O6    O     O_R   0.500010 0.579490 0.683220 -0.622849
O7    O     O_R   0.499980 0.420540 0.316780 -0.630743
O8    O     O_R   0.500020 0.420540 0.683220 -0.624607
Zn1   Zn    Zn3+2 0.500000 0.606140 0.500000 0.946458
Zn2   Zn    Zn3+2 0.500000 0.393860 0.500000 0.961458
C35   C     C_R   0.556069 0.755832 0.874095 0.134633
C36   C     C_R   0.535334 0.851445 0.895951 -0.096893
C37   C     C_R   0.592060 0.923070 0.852163 -0.044944
C38   C     C_R   0.669038 0.900241 0.783852 -0.138597
C39   C     C_R   0.689733 0.805632 0.759667 -0.145178
C40   C     C_R   0.633723 0.733641 0.804169 -0.080284
H15   H     H_    0.475669 0.870408 0.948369 0.165912
H16   H     H_    0.576371 0.996386 0.871324 0.177526
H17   H     H_    0.712470 0.955872 0.749296 0.136999
H18   H     H_    0.749119 0.787998 0.705963 0.165314
H19   H     H_    0.651444 0.661057 0.783561 0.138420
C41   C     C_R   0.393367 0.681103 0.121252 0.177690
C42   C     C_R   0.369791 0.750978 0.209197 -0.112400
C43   C     C_R   0.283842 0.752906 0.261723 -0.137629
C44   C     C_R   0.220532 0.685270 0.226932 -0.053229
C45   C     C_R   0.242699 0.616132 0.138532 -0.145647
C46   C     C_R   0.328496 0.613945 0.085524 -0.181162
H20   H     H_    0.418100 0.803852 0.237594 0.140318
H21   H     H_    0.266354 0.806795 0.329703 0.139027
H22   H     H_    0.154258 0.686554 0.268305 0.194482
H23   H     H_    0.193437 0.563920 0.111428 0.156723
H24   H     H_    0.344401 0.559410 0.017673 0.136319
Cl1   Cl    Cl    0.034658 0.669883 0.603413 -0.583642
Cl2   Cl    Cl    0.948743 0.657489 0.302035 -0.605807
C47   C     C_R   0.234269 0.345335 0.358730 0.144106
C48   C     C_R   0.283968 0.355856 0.247467 -0.122925
C49   C     C_R   0.329122 0.278341 0.195767 -0.114039
C50   C     C_R   0.325957 0.190428 0.255621 -0.099159
C51   C     C_R   0.276928 0.179624 0.366747 -0.134191
C52   C     C_R   0.230667 0.256644 0.417870 -0.122131
H25   H     H_    0.287841 0.423780 0.201139 0.114780
H26   H     H_    0.366534 0.286364 0.109273 0.139447
H27   H     H_    0.361573 0.130723 0.216001 0.167994
H28   H     H_    0.274882 0.111610 0.413317 0.147822
H29   H     H_    0.193060 0.247618 0.504207 0.139093
C53   C     C_R   0.779664 0.350023 0.620609 0.137155
C54   C     C_R   0.749837 0.366930 0.743640 -0.136243
C55   C     C_R   0.709481 0.294205 0.812703 -0.120708
C56   C     C_R   0.697136 0.205037 0.758616 -0.106236
C57   C     C_R   0.726407 0.187938 0.635943 -0.133931
C58   C     C_R   0.768197 0.259977 0.567269 -0.108445
H30   H     H_    0.757755 0.436191 0.785699 0.130499
H31   H     H_    0.687545 0.307013 0.908079 0.147430
H32   H     H_    0.665000 0.149211 0.811788 0.137617
H33   H     H_    0.716521 0.118963 0.594016 0.135865
H34   H     H_    0.790131 0.246245 0.471985 0.137357
Cl3   Cl    Cl    0.577382 0.048698 0.262728 -0.674350
Cl4   Cl    Cl    0.413264 0.050474 0.733131 -0.682670

loop_
_geom_bond_atom_site_label_1
_geom_bond_atom_site_label_2
_ccdc_geom_bond_type
C15   C18   A    
C49   C50   A    
C7    C29   A    
O5    Zn1   S    
C3    C47   S    
C42   C43   A    
C14   C18   A    
C10   Cl4   S    
C20   O6    A    
C12   N1    A    
C1    C33   S    
C7    C8    S    
O4    Zn2   S    
C47   C48   A    
C19   O7    A    
C57   H33   S    
C36   C37   A    
N1    Zn2   S    
C31   H9    S    
C13   C18   S    
N2    Zn1   S    
C24   C26   A    
C29   Cl1   S    
C48   H25   S    
C3    C33   A    
O8    Zn2   S    
C55   H31   S    
C51   H28   S    
C9    C13   A    
C1    O3    A    
C27   C35   S    
C4    C53   S    
C11   H13   S    
C35   C40   A    
C56   C57   A    
C42   H20   S    
C31   C33   A    
C44   H22   S    
C54   H30   S    
C12   H14   S    
C2    C34   S    
C56   H32   S    
C21   C22   A    
C28   C41   S    
C10   C12   A    
O3    Zn2   S    
C54   C55   A    
C4    C34   A    
C43   C44   A    
C20   C24   S    
C52   H29   S    
C45   C46   A    
C4    C6    A    
C2    O4    A    
C5    C7    A    
C48   C49   A    
O7    Zn2   S    
C6    C8    A    
C25   C26   A    
C5    H11   S    
C17   H6    S    
C32   C34   A    
C17   N2    A    
C19   C23   S    
C44   C45   A    
C15   H4    S    
C41   C46   A    
C11   N1    A    
O2    Zn1   S    
C9    C11   A    
C27   H7    S    
C40   H19   S    
C53   C54   A    
C32   H10   S    
C38   H17   S    
C1    O1    A    
C2    O2    A    
C25   H1    S    
C36   H15   S    
C26   H2    S    
C21   C28   S    
C55   C56   A    
C43   H21   S    
C21   C23   A    
C14   C16   A    
O1    Zn1   S    
C20   O8    A    
C49   H26   S    
C19   O5    A    
C58   H34   S    
C15   C17   A    
C50   H27   S    
C6    H12   S    
C16   N2    A    
C41   C42   A    
C3    C5    A    
C10   C13   A    
C45   H23   S    
C47   C52   A    
C9    Cl3   S    
C37   H16   S    
O6    Zn1   S    
C22   C27   S    
C8    C30   A    
C38   C39   A    
C29   C31   A    
C14   H3    S    
C30   C32   A    
C46   H24   S    
C28   H8    S    
C57   C58   A    
C22   C24   A    
C23   C25   A    
C30   Cl2   S    
C35   C36   A    
C16   H5    S    
C37   C38   A    
C50   C51   A    
C39   C40   A    
C27   C28   S    
C51   C52   A    
C53   C58   A    
C39   H18   S    
