data_mof_unit_57219.cif
_audit_creation_date              2012-12-11T15:34:57-0500
_audit_creation_method            fapswitch 2.2
_symmetry_space_group_name_H-M    P1
_symmetry_Int_Tables_number       1
_space_group_crystal_system       triclinic
_cell_length_a                    30.404465
_cell_length_b                    7.249065
_cell_length_c                    26.041394
_cell_angle_alpha                 90.025455
_cell_angle_beta                  112.46009
_cell_angle_gamma                 90.039322
_cell_volume                      5304.24879487

loop_
_atom_site_label
_atom_site_type_symbol
_atom_type_description
_atom_site_fract_x
_atom_site_fract_y
_atom_site_fract_z
_atom_type_partial_charge
O1    O     O_R   0.295360 0.592990 0.320420 -0.541224
O2    O     O_R   0.704640 0.407010 0.679580 -0.534720
O3    O     O_R   0.204640 0.092990 0.179580 -0.538641
O4    O     O_R   0.795360 0.907010 0.820420 -0.533531
O5    O     O_R   0.294060 0.265620 0.213230 -0.508511
O6    O     O_R   0.705940 0.734380 0.786770 -0.506677
O7    O     O_R   0.205940 0.765620 0.286770 -0.507668
O8    O     O_R   0.794060 0.234380 0.713230 -0.507771
C1    C     C_R   0.304338 0.432278 0.199613 0.818951
C2    C     C_R   0.695656 0.567720 0.800381 0.820459
C3    C     C_R   0.195688 0.932250 0.300426 0.822816
C4    C     C_R   0.804386 0.067751 0.699674 0.819382
O9    O     O_R   0.300850 0.263360 0.322080 -0.533073
O10   O     O_R   0.699150 0.736640 0.677920 -0.543401
O11   O     O_R   0.199150 0.763360 0.177920 -0.534803
O12   O     O_R   0.800850 0.236640 0.822080 -0.545095
O13   O     O_R   0.211480 0.091820 0.289210 -0.503138
O14   O     O_R   0.788520 0.908180 0.710790 -0.503536
O15   O     O_R   0.288520 0.591820 0.210790 -0.501494
O16   O     O_R   0.711480 0.408180 0.789210 -0.503115
C5    C     C_R   0.313179 0.431451 0.343402 0.792238
C6    C     C_R   0.686820 0.568519 0.656618 0.797283
C7    C     C_R   0.186304 0.931467 0.156668 0.791310
C8    C     C_R   0.813759 0.068834 0.843249 0.790310
O17   O     O_3   0.220670 0.426670 0.239090 -0.371893
O18   O     O_3   0.779330 0.573330 0.760910 -0.373746
O19   O     O_3   0.279330 0.926670 0.260910 -0.371715
O20   O     O_3   0.720670 0.073330 0.739090 -0.371435
V1    V     V_3+5 0.255440 0.152290 0.252020 1.709738
V2    V     V_3+5 0.744560 0.847710 0.747980 1.693642
V3    V     V_3+5 0.244560 0.652290 0.247980 1.705732
V4    V     V_3+5 0.755440 0.347710 0.752020 1.688851
C9    C     C_R   0.851556 0.068844 0.899847 -0.266322
C10   C     C_R   0.149658 0.937691 0.099345 -0.270756
C11   C     C_R   0.650444 0.563156 0.599650 -0.269989
C12   C     C_R   0.350157 0.436392 0.400045 -0.265146
C13   C     C_R   0.876444 0.168273 0.995559 0.538671
C14   C     C_R   0.127016 0.875207 0.001203 0.530802
C15   C     C_R   0.629374 0.599444 0.500750 0.564886
C16   C     C_R   0.374158 0.377446 0.498489 0.536404
C17   C     C_R   0.840545 0.131045 0.944093 0.605896
C18   C     C_R   0.160514 0.869333 0.055606 0.606360
C19   C     C_R   0.663166 0.605788 0.555005 0.594216
C20   C     C_R   0.339624 0.372886 0.444610 0.603738
C21   C     C_R   0.899416 0.037446 0.908357 -0.334789
C22   C     C_R   0.103761 0.006356 0.088213 -0.317906
C23   C     C_R   0.602734 0.526227 0.589940 -0.333594
C24   C     C_R   0.396917 0.488498 0.409141 -0.242085
C25   C     C_R   0.937333 0.091140 0.958736 0.028006
C26   C     C_R   0.069373 0.024125 0.032767 0.029106
C27   C     C_R   0.566615 0.539110 0.535738 0.017118
C28   C     C_R   0.434079 0.470758 0.462393 0.059441
C29   C     C_R   0.925353 0.157551 0.003268 -0.175710
C30   C     C_R   0.081395 0.956472 0.988437 -0.173954
C31   C     C_R   0.580864 0.558221 0.489988 -0.126176
C32   C     C_R   0.421112 0.439495 0.508616 -0.194151
C33   C     C_R   0.986671 0.073714 0.966638 0.023537
C34   C     C_R   0.022436 0.096314 0.020813 0.033447
C35   C     C_R   0.517035 0.524915 0.526019 0.014111
C36   C     C_R   0.483517 0.486946 0.471279 0.103222
C37   C     C_R   0.010597 0.200168 0.060029 -0.060727
C38   C     C_R   0.001938 0.046810 0.921919 -0.069499
C39   C     C_R   0.500733 0.463434 0.427768 -0.085943
C40   C     C_R   0.499789 0.551604 0.569227 -0.071333
C41   C     C_R   0.962186 0.217966 0.053244 -0.090382
C42   C     C_R   0.048110 0.975236 0.932755 -0.087710
C43   C     C_R   0.547327 0.521502 0.435615 -0.106088
C44   C     C_R   0.454665 0.478971 0.562804 -0.076983
H1    H     H_    0.095047 0.038523 0.123708 0.176481
H2    H     H_    0.906187 0.973347 0.874691 0.171666
H3    H     H_    0.403804 0.541616 0.374154 0.140831
H4    H     H_    0.594299 0.486969 0.625199 0.169665
C45   C     C_R   0.093659 0.960675 0.480694 0.643229
C46   C     C_R   0.907136 0.039380 0.520317 0.643993
C47   C     C_R   0.406738 0.459024 0.019773 0.645116
C48   C     C_R   0.593198 0.540924 0.980150 0.643717
N1    N     N_R   0.073365 0.969328 0.423937 -0.518121
N2    N     N_R   0.927421 0.030835 0.577075 -0.518705
N3    N     N_R   0.426985 0.469255 0.076513 -0.515929
N4    N     N_R   0.572951 0.530692 0.923411 -0.518688
C49   C     C_R   0.025302 0.988840 0.396704 0.785519
C50   C     C_R   0.975483 0.011348 0.604323 0.784754
C51   C     C_R   0.475014 0.490315 0.103744 0.775863
C52   C     C_R   0.524924 0.509599 0.896179 0.785807
C53   C     C_R   0.995365 0.005653 0.426669 -0.203875
C54   C     C_R   0.005429 0.994517 0.574363 -0.203516
C55   C     C_R   0.504950 0.507208 0.073778 -0.198498
C56   C     C_R   0.494987 0.492705 0.926145 -0.203949
C57   C     C_R   0.015309 0.992003 0.485202 -0.067536
C58   C     C_R   0.985489 0.008147 0.515829 -0.066916
C59   C     C_R   0.485060 0.491882 0.015275 -0.067712
C60   C     C_R   0.514877 0.508041 0.984647 -0.067764
C61   C     C_R   0.065003 0.962228 0.512986 -0.165784
C62   C     C_R   0.935796 0.037896 0.488039 -0.165747
C63   C     C_R   0.435421 0.460412 0.987521 -0.166846
C64   C     C_R   0.564515 0.539518 0.012402 -0.165875
C65   C     C_R   0.946271 0.039218 0.399337 0.697453
C66   C     C_R   0.054525 0.960981 0.601695 0.693937
C67   C     C_R   0.553982 0.542490 0.101069 0.693994
C68   C     C_R   0.445955 0.457416 0.898854 0.695279
C69   C     C_R   0.916607 0.059511 0.429203 -0.214742
C70   C     C_R   0.084191 0.940667 0.571827 -0.209939
C71   C     C_R   0.583637 0.562856 0.071189 -0.212876
C72   C     C_R   0.416300 0.437063 0.928734 -0.210428
O21   O     O_2   0.141511 0.957207 0.505442 -0.502645
O22   O     O_2   0.859282 0.042666 0.495552 -0.500354
O23   O     O_2   0.358893 0.454184 0.994989 -0.502598
O24   O     O_2   0.641042 0.545783 0.004934 -0.500831
O25   O     O_2   0.006677 0.992055 0.340650 -0.404265
O26   O     O_2   0.994098 0.008180 0.660379 -0.404743
O27   O     O_2   0.493605 0.494973 0.159791 -0.420660
O28   O     O_2   0.506334 0.504908 0.840131 -0.403432
C73   C     C_R   0.891501 0.886090 0.637995 0.654598
C74   C     C_R   0.109188 0.114276 0.362953 0.649811
C75   C     C_R   0.609003 0.385459 0.862698 0.652469
C76   C     C_R   0.390955 0.614513 0.137243 0.637842
C77   C     C_R   0.861799 0.894986 0.667914 0.521281
C78   C     C_R   0.138661 0.105275 0.332752 0.517394
C79   C     C_R   0.638594 0.394409 0.832645 0.515370
C80   C     C_R   0.361383 0.605567 0.167322 0.493737
C81   C     C_R   0.836940 0.059012 0.668861 -0.425134
C82   C     C_R   0.163357 0.941062 0.331530 -0.426569
C83   C     C_R   0.663219 0.558884 0.831350 -0.426237
C84   C     C_R   0.336758 0.441106 0.168623 -0.423593
C85   C     C_R   0.843199 0.213736 0.639298 0.620585
C86   C     C_R   0.157215 0.786344 0.361176 0.619357
C87   C     C_R   0.656864 0.713933 0.860753 0.622388
C88   C     C_R   0.343088 0.286068 0.139199 0.614425
C89   C     C_R   0.873093 0.203771 0.609711 -0.193469
C90   C     C_R   0.127543 0.796415 0.391047 -0.195471
C91   C     C_R   0.627067 0.703920 0.890463 -0.192856
C92   C     C_R   0.372867 0.296073 0.109468 -0.202110
H5    H     H_    0.877241 0.323591 0.587133 0.226924
H6    H     H_    0.123440 0.676534 0.413631 0.226713
H7    H     H_    0.622816 0.824043 0.912877 0.227181
H8    H     H_    0.377103 0.175952 0.087042 0.227375
C93   C     C_R   0.897352 0.040383 0.608689 0.044069
C94   C     C_R   0.103400 0.959917 0.392278 0.042722
C95   C     C_R   0.603015 0.540140 0.891790 0.043819
C96   C     C_R   0.396923 0.459836 0.108137 0.048384
C97   C     C_2   0.950180 0.309701 0.097096 0.725784
H9    H     H_    0.928049 0.432324 0.087362 0.069902
O29   O     O_2   0.963841 0.245123 0.143894 -0.427016
C98   C     C_2   0.062256 0.929004 0.885748 0.717134
H10   H     H_    0.092850 0.996048 0.882084 0.097441
O30   O     O_2   0.040684 0.811168 0.851982 -0.445966
C99   C     C_2   0.561808 0.527112 0.387281 0.560569
H11   H     H_    0.571130 0.657879 0.373835 0.131879
O31   O     O_2   0.564525 0.385467 0.363277 -0.465452
C100  C     C_2   0.441566 0.461695 0.611935 0.714695
H12   H     H_    0.408638 0.520712 0.611458 0.108041
O32   O     O_2   0.467658 0.379946 0.653350 -0.446886
F1    F     F_    0.819615 0.373960 0.637647 -0.560407
F2    F     F_    0.180679 0.625980 0.362602 -0.566065
F3    F     F_    0.680246 0.874589 0.862115 -0.560772
F4    F     F_    0.319699 0.125429 0.137842 -0.567210
F5    F     F_    0.204078 0.795401 0.065670 -0.601060
F6    F     F_    0.794415 0.158390 0.937167 -0.590616
F7    F     F_    0.295095 0.312277 0.436143 -0.598194
F8    F     F_    0.709120 0.646580 0.563867 -0.588702
F9    F     F_    0.862279 0.217502 0.037148 -0.608414
F10   F     F_    0.139918 0.797037 0.961688 -0.622762
F11   F     F_    0.645166 0.632181 0.459404 -0.603143
F12   F     F_    0.361179 0.316073 0.539887 -0.621127
C101  C     C_2   0.047698 0.325254 0.098941 0.381892
H13   H     H_    0.077747 0.366744 0.088793 0.063326
O33   O     O_2   0.045995 0.381540 0.142298 -0.468932
C102  C     C_2   0.974310 0.137473 0.867407 0.414574
H14   H     H_    0.951484 0.253787 0.866307 0.066353
O34   O     O_2   0.975727 0.084307 0.823609 -0.469370
C103  C     C_2   0.473196 0.358133 0.376328 0.438852
H15   H     H_    0.472374 0.403249 0.336252 0.082231
O35   O     O_2   0.452400 0.216203 0.378749 -0.506070
C104  C     C_2   0.524140 0.689275 0.614220 0.427883
H16   H     H_    0.550054 0.783695 0.609505 0.064410
O36   O     O_2   0.515183 0.703957 0.655888 -0.469822
F13   F     F_    0.927153 0.062499 0.343256 -0.547866
F14   F     F_    0.073642 0.937760 0.657778 -0.555126
F15   F     F_    0.573028 0.567410 0.157099 -0.555249
F16   F     F_    0.426910 0.432481 0.842825 -0.552603
C105  C     C_2   0.866590 0.117169 0.397717 0.684412
H17   H     H_    0.850089 0.220444 0.414652 0.076747
O37   O     O_2   0.843498 0.051733 0.352090 -0.421936
C106  C     C_2   0.134213 0.883093 0.603320 0.675701
H18   H     H_    0.150722 0.779794 0.586403 0.075516
O38   O     O_2   0.157299 0.948618 0.648936 -0.426840
C107  C     C_2   0.633544 0.622424 0.102573 0.682161
H19   H     H_    0.649884 0.725634 0.085405 0.076225
O39   O     O_2   0.656721 0.558677 0.148372 -0.422630
C108  C     C_2   0.366392 0.377496 0.897352 0.675595
H20   H     H_    0.350050 0.274302 0.914523 0.074572
O40   O     O_2   0.343216 0.441225 0.851549 -0.426262
F17   F     F_    0.914287 0.725964 0.637021 -0.590182
F18   F     F_    0.086511 0.274502 0.364123 -0.588049
F19   F     F_    0.586432 0.224944 0.863983 -0.589554
F20   F     F_    0.413529 0.775016 0.135953 -0.598218
F21   F     F_    0.857986 0.743077 0.696417 -0.569572
F22   F     F_    0.142378 0.257234 0.304209 -0.560021
F23   F     F_    0.642516 0.242094 0.804340 -0.567536
F24   F     F_    0.357483 0.757869 0.195645 -0.576842

loop_
_geom_bond_atom_site_label_1
_geom_bond_atom_site_label_2
_ccdc_geom_bond_type
O17   V3    S    
C38   C102  S    
C103  H15   S    
O1    C5    A    
C108  H20   S    
C55   C59   A    
O19   V1    S    
C9    C21   A    
C46   C62   A    
O3    C7    A    
C99   H11   S    
C10   C18   A    
C45   C61   A    
N4    C52   A    
O15   V3    S    
C47   C63   A    
C33   C38   A    
C5    C12   S    
C105  H17   S    
O7    C3    A    
C6    C11   S    
C103  O35   D    
C35   C40   A    
C52   O28   S    
C36   C39   A    
C79   F23   S    
C50   O26   S    
O9    V1    S    
C99   O31   D    
C14   C18   A    
C91   H7    S    
C97   O29   D    
O4    C8    A    
C42   C98   S    
C86   C90   A    
C68   F16   S    
O1    V3    S    
C1    C84   S    
O13   V1    S    
C106  H18   S    
O2    V4    S    
C78   C82   A    
O3    V1    S    
C77   C81   A    
C104  H16   S    
C22   H1    S    
C28   C36   A    
C80   F24   S    
C39   C103  S    
C1    O15   A    
C68   C72   A    
C15   C31   A    
C4    C81   S    
C56   C60   A    
C62   C69   A    
C2    O16   A    
C16   C32   A    
O2    C6    A    
C10   C22   A    
N1    C49   A    
C66   F14   S    
C11   C19   A    
C16   C20   A    
C55   C67   A    
C53   C65   A    
C92   H8    S    
C84   C88   A    
C13   C29   A    
C34   C37   A    
O11   C7    A    
N3    C96   S    
C11   C23   A    
C35   C36   A    
O12   C8    A    
C65   F13   S    
C13   C17   A    
C101  O33   D    
C90   H6    S    
O10   V2    S    
C88   C92   A    
C85   F1    S    
C58   C62   A    
O5    V1    S    
C105  O37   D    
C60   C64   A    
C92   C96   A    
C39   C43   A    
O7    V3    S    
C38   C42   A    
C28   C32   A    
O8    V4    S    
C52   C56   A    
C47   O23   S    
C44   C100  S    
N1    C94   S    
C98   O30   D    
C2    C83   S    
C54   C58   A    
C87   F3    S    
C59   C60   A    
C53   C57   A    
O18   V4    S    
C15   C19   A    
C27   C31   A    
C32   C44   A    
C14   F10   S    
N3    C51   A    
C76   C80   A    
C26   C34   A    
C67   F15   S    
C82   C86   A    
C81   C85   A    
C100  O32   D    
C37   C41   A    
C46   O22   S    
C41   C97   S    
N2    C50   A    
C65   C69   A    
C83   C87   A    
C14   C30   A    
C21   C25   A    
O8    C4    A    
C7    C10   S    
C72   C108  S    
O9    C5    A    
C26   C30   A    
C77   F21   S    
O11   V3    S    
C51   C55   A    
C56   C68   A    
C73   C77   A    
C86   F2    S    
C102  H14   S    
O6    V2    S    
C49   O25   S    
C19   F8    S    
C75   C79   A    
C43   C99   S    
O14   V2    S    
C51   O27   S    
C12   C20   A    
C3    C82   S    
C27   C35   A    
C24   H3    S    
C40   C104  S    
C90   C94   A    
N2    C93   S    
C40   C44   A    
C76   F20   S    
C29   C41   A    
C63   C72   A    
C13   F9    S    
O16   V4    S    
C75   F19   S    
C3    O13   A    
C108  O40   D    
C89   H5    S    
C74   F18   S    
C21   H2    S    
C73   F17   S    
C67   C71   A    
C48   N4    A    
O5    C1    A    
C98   H10   S    
C61   C70   A    
O6    C2    A    
C25   C33   A    
C23   C27   A    
C16   F12   S    
C30   C42   A    
C79   C83   A    
O12   V4    S    
N4    C95   S    
C22   C26   A    
C8    C9    S    
C45   O21   S    
C73   C93   A    
C9    C17   A    
O10   C6    A    
C87   C91   A    
O20   V2    S    
C70   C106  S    
C31   C43   A    
C66   C70   A    
C97   H9    S    
C48   C64   A    
C50   C54   A    
C33   C34   A    
C47   N3    A    
C25   C29   A    
C102  O34   D    
C74   C78   A    
C104  O36   D    
C106  O38   D    
C12   C24   A    
C37   C101  S    
C74   C94   A    
C57   C61   A    
C54   C66   A    
C69   C105  S    
O4    V2    S    
C23   H4    S    
C107  O39   D    
C91   C95   A    
C88   F4    S    
C59   C63   A    
C17   F6    S    
C18   F5    S    
C85   C89   A    
C101  H13   S    
C24   C28   A    
C89   C93   A    
C48   O24   S    
C46   N2    A    
C64   C71   A    
C4    O14   A    
C20   F7    S    
C45   N1    A    
C100  H12   S    
C107  H19   S    
C57   C58   A    
C75   C95   A    
C15   F11   S    
C71   C107  S    
C49   C53   A    
C80   C84   A    
C76   C96   A    
C78   F22   S    
