data_mof_unit_64751.cif
_audit_creation_date              2012-10-26T21:17:30-0400
_audit_creation_method            fapswitch 2.2
_symmetry_space_group_name_H-M    P1
_symmetry_Int_Tables_number       1
_space_group_crystal_system       triclinic
_cell_length_a                    17.728599
_cell_length_b                    16.445056
_cell_length_c                    11.726043
_cell_angle_alpha                 90.000071
_cell_angle_beta                  90.198619
_cell_angle_gamma                 90.0
_cell_volume                      3418.68153745

loop_
_atom_site_label
_atom_site_type_symbol
_atom_type_description
_atom_site_fract_x
_atom_site_fract_y
_atom_site_fract_z
_atom_type_partial_charge
C1    C     C_R   0.355213 0.500000 0.499850 0.546288
C2    C     C_R   0.114403 0.500000 0.499687 0.039395
C3    C     C_1   0.966177 0.500000 0.500100 -0.030869
C4    C     C_1   0.033823 0.500000 0.499900 -0.030869
C5    C     C_R   0.499973 0.500000 0.283544 0.554012
C6    C     C_R   0.500027 0.500000 0.716456 0.554013
C7    C     C_R   0.549458 0.828901 0.570424 -0.139228
C8    C     C_R   0.450542 0.171099 0.429576 -0.139228
C9    C     C_R   0.450542 0.828901 0.429576 -0.139228
C10   C     C_R   0.549458 0.171099 0.570424 -0.139228
C11   C     C_R   0.548578 0.743071 0.569187 0.046304
C12   C     C_R   0.644787 0.500000 0.500149 0.546288
C13   C     C_R   0.451421 0.256929 0.430813 0.046304
C14   C     C_R   0.451421 0.743071 0.430813 0.046304
C15   C     C_R   0.548578 0.256929 0.569187 0.046304
C16   C     C_1   0.500000 0.962704 0.500000 -0.025121
C17   C     C_1   0.500000 0.037296 0.500000 -0.025121
C18   C     C_1   0.499977 0.500000 0.162071 -0.024261
C19   C     C_1   0.500023 0.500000 0.837929 -0.024261
C20   C     C_1   0.499989 0.500000 0.059783 -0.041531
C21   C     C_1   0.500010 0.500000 0.940217 -0.041531
C22   C     C_R   0.500000 0.873073 0.500000 0.024143
C23   C     C_R   0.767750 0.573816 0.500408 -0.131282
C24   C     C_R   0.500000 0.126927 0.500000 0.024143
C25   C     C_R   0.846386 0.573715 0.500379 -0.113204
C26   C     C_R   0.153614 0.426285 0.499621 -0.113204
C27   C     C_R   0.153614 0.573715 0.499621 -0.113204
C28   C     C_R   0.846386 0.426285 0.500379 -0.113204
C29   C     C_R   0.232250 0.426184 0.499592 -0.131282
C30   C     C_R   0.232250 0.573816 0.499592 -0.131282
C31   C     C_R   0.767750 0.426184 0.500408 -0.131282
C32   C     C_R   0.727737 0.500000 0.500334 0.011042
C33   C     C_R   0.272263 0.500000 0.499665 0.011041
C34   C     C_R   0.885597 0.500000 0.500313 0.039395
Cu1   Cu    Cu3+1 0.500000 0.580420 0.500000 0.939241
Cu2   Cu    Cu3+1 0.500000 0.419580 0.500000 0.939241
H1    H     H_    0.588555 0.860466 0.626103 0.096879
H2    H     H_    0.123427 0.368987 0.499634 0.109345
H3    H     H_    0.123427 0.631013 0.499634 0.109346
H4    H     H_    0.876573 0.368986 0.500366 0.109345
H5    H     H_    0.738387 0.631569 0.500446 0.124578
H6    H     H_    0.261613 0.368431 0.499554 0.124578
H7    H     H_    0.261613 0.631569 0.499555 0.124578
H8    H     H_    0.738387 0.368431 0.500445 0.124578
H9    H     H_    0.411445 0.139534 0.373897 0.096879
H10   H     H_    0.411445 0.860466 0.373897 0.096879
H11   H     H_    0.588555 0.139534 0.626103 0.096879
H12   H     H_    0.587008 0.709962 0.623961 0.119794
H13   H     H_    0.412992 0.290038 0.376039 0.119794
H14   H     H_    0.412992 0.709962 0.376039 0.119794
H15   H     H_    0.587008 0.290038 0.623961 0.119794
H16   H     H_    0.876573 0.631013 0.500366 0.109346
N1    N     N_R   0.500000 0.701220 0.500000 -0.216446
N2    N     N_R   0.500000 0.298780 0.500000 -0.216446
O1    O     O_R   0.391260 0.567930 0.500000 -0.506148
O2    O     O_R   0.608740 0.432070 0.500000 -0.506148
O3    O     O_R   0.608740 0.567930 0.500000 -0.506148
O4    O     O_R   0.391260 0.432070 0.500000 -0.506148
O5    O     O_R   0.500010 0.567910 0.337200 -0.494985
O6    O     O_R   0.499990 0.432090 0.662800 -0.494985
O7    O     O_R   0.499990 0.567910 0.662800 -0.494985
O8    O     O_R   0.500010 0.432090 0.337200 -0.494985

loop_
_geom_bond_atom_site_label_1
_geom_bond_atom_site_label_2
_ccdc_geom_bond_type
C2    C26   A    
C2    C4    S    
C9    C14   A    
C8    C13   A    
Cu2   O2    S    
C15   H15   S    
C29   H6    S    
Cu1   N1    S    
C7    C22   A    
Cu2   O4    S    
C31   C32   A    
C11   N1    A    
C25   C34   A    
Cu1   O3    S    
C8    C24   A    
C23   C32   A    
C7    H1    S    
C25   H16   S    
C1    C33   S    
C9    H10   S    
Cu1   O7    S    
C12   O2    A    
C1    O4    A    
C12   C32   S    
C27   C30   A    
C7    C11   A    
C6    C19   S    
C5    O5    A    
C28   C34   A    
C11   H12   S    
C2    C27   A    
Cu2   O8    S    
C12   O3    A    
C6    O7    A    
C19   C21   T    
C5    O8    A    
C18   C20   T    
C10   C15   A    
C23   C25   A    
C1    O1    A    
C9    C22   A    
C13   H13   S    
C30   H7    S    
C17   C24   S    
Cu2   N2    S    
C31   H8    S    
C14   H14   S    
Cu1   O1    S    
C3    C4    T    
C15   N2    A    
C6    O6    A    
C14   N1    A    
C20   C21   S    
C26   C29   A    
Cu1   O5    S    
C13   N2    A    
C10   H11   S    
C28   H4    S    
C8    H9    S    
C26   H2    S    
C16   C22   S    
C5    C18   S    
C30   C33   A    
C10   C24   A    
C3    C34   S    
C28   C31   A    
Cu1   Cu2   S    
C29   C33   A    
C27   H3    S    
C16   C17   T    
Cu2   O6    S    
C23   H5    S    
