data_mof_unit_45337.cif
_audit_creation_date              2012-12-10T16:48:04-0500
_audit_creation_method            fapswitch 2.2
_symmetry_space_group_name_H-M    P1
_symmetry_Int_Tables_number       1
_space_group_crystal_system       triclinic
_cell_length_a                    15.816145
_cell_length_b                    8.75842
_cell_length_c                    7.502308
_cell_angle_alpha                 102.243247
_cell_angle_beta                  94.285987
_cell_angle_gamma                 91.233006
_cell_volume                      1012.03134495

loop_
_atom_site_label
_atom_site_type_symbol
_atom_type_description
_atom_site_fract_x
_atom_site_fract_y
_atom_site_fract_z
_atom_type_partial_charge
C1    C     C_R   0.497587 0.200380 0.454205 0.877353
C2    C     C_R   0.502415 0.799620 0.545794 0.877825
C3    C     C_R   0.340311 0.504977 0.502896 0.816173
C4    C     C_R   0.659689 0.495036 0.497107 0.815681
C5    C     C_2   0.496359 0.033135 0.428293 -0.346253
C6    C     C_2   0.503647 0.966865 0.571706 -0.345578
C7    C     C_3   0.980558 0.363316 0.537647 0.138899
C8    C     C_3   0.019460 0.637579 0.462717 0.169597
C9    C     C_3   0.030253 0.386929 0.377134 0.398772
C10   C     C_3   0.969759 0.614060 0.623265 0.433929
C11   C     C_1   0.251167 0.517443 0.509078 -0.104883
C12   C     C_1   0.748844 0.482771 0.490968 -0.102411
C13   C     C_3   0.034611 0.495047 0.669269 -0.344629
C14   C     C_3   0.965391 0.505884 0.331192 -0.347491
C15   C     C_3   0.083845 0.519708 0.505953 -0.050906
C16   C     C_3   0.916188 0.481154 0.494394 -0.061513
C17   C     C_1   0.175742 0.524439 0.510225 0.070560
C18   C     C_1   0.824282 0.476036 0.489925 0.070158
Cu1   Cu    Cu3+1 0.509330 0.517380 0.684380 0.990576
Cu2   Cu    Cu3+1 0.490670 0.482620 0.315620 0.989928
H1    H     H_    0.936881 0.505625 0.191366 0.215839
H2    H     H_    0.063254 0.494278 0.808674 0.198692
H3    H     H_    0.489387 0.963813 0.289048 0.183900
H4    H     H_    0.510620 0.036187 0.710951 0.183900
H5    H     H_    0.435285 0.378612 0.949613 0.235961
H6    H     H_    0.564715 0.621388 0.050387 0.235982
N1    N     N_2   0.476600 0.456420 0.038510 -0.213832
N2    N     N_2   0.523400 0.543580 0.961490 -0.213715
O1    O     O_R   0.506070 0.286130 0.619780 -0.588596
O2    O     O_R   0.493930 0.713870 0.380220 -0.588681
O3    O     O_R   0.490300 0.256770 0.308360 -0.580798
O4    O     O_R   0.509700 0.743230 0.691640 -0.580719
O5    O     O_R   0.386960 0.514660 0.655680 -0.587620
O6    O     O_R   0.613040 0.485340 0.344320 -0.588069
O7    O     O_R   0.371190 0.485310 0.344260 -0.556767
O8    O     O_R   0.628810 0.514690 0.655740 -0.555851
S1    S     S_3+6 0.069542 0.249500 0.195432 -0.007302
O9    O     O_2   0.123602 0.337853 0.092090 -0.309724
O10   O     O_2   0.122508 0.130940 0.264822 -0.292707
O11   O     O_3   0.986352 0.160630 0.056961 -0.478579
H7    H     H_    0.939471 0.158586 0.136933 0.348443
S2    S     S_3+6 0.928980 0.751936 0.802430 -0.013922
O12   O     O_2   0.872924 0.863884 0.728228 -0.283574
O13   O     O_2   0.877472 0.664596 0.911439 -0.329499
O14   O     O_3   0.011191 0.850466 0.935143 -0.479595
H8    H     H_    0.046494 0.769436 0.973956 0.339594
N3    N     N_2   0.959562 0.215203 0.582228 -0.454738
H9    H     H_    0.907575 0.220448 0.658083 0.292695
C19   C     C_3   0.030748 0.144607 0.661783 -0.440497
H10   H     H_    0.009618 0.034580 0.697330 0.307893
H11   H     H_    0.058749 0.223581 0.787354 0.281264
H12   H     H_    0.080675 0.118707 0.565714 0.243943
N4    N     N_2   0.040680 0.785638 0.418369 -0.431443
H13   H     H_    0.092802 0.780310 0.342891 0.277594
C20   C     C_3   0.969680 0.856334 0.338433 -0.535188
H14   H     H_    0.991058 0.965839 0.302444 0.286853
H15   H     H_    0.919784 0.883046 0.434394 0.261494
H16   H     H_    0.941663 0.777296 0.213098 0.271581

loop_
_geom_bond_atom_site_label_1
_geom_bond_atom_site_label_2
_ccdc_geom_bond_type
C8    N4    S    
C7    C13   S    
C8    C14   S    
C9    C14   S    
C4    O8    A    
C20   H15   S    
S1    O9    D    
Cu2   N1    S    
C4    C12   S    
H6    N2    S    
N3    H9    S    
C5    H3    S    
C13   C15   S    
C3    O7    A    
C20   H14   S    
C19   H12   S    
C6    H4    S    
C1    O1    A    
C9    C15   S    
Cu2   O6    S    
S1    O10   D    
C16   C18   S    
C10   C16   S    
N4    H13   S    
Cu1   N2    S    
C2    C6    S    
S2    O13   D    
C1    C5    S    
Cu1   O4    S    
C14   H1    S    
C9    S1    S    
O11   H7    S    
N3    C19   S    
C13   H2    S    
S1    O11   S    
C14   C16   S    
Cu1   O8    S    
N4    C20   S    
C5    C6    D    
Cu2   O3    S    
C4    O6    A    
C3    C11   S    
S2    O12   D    
C3    O5    A    
Cu1   O1    S    
O14   H8    S    
C1    O3    A    
C2    O2    A    
C2    O4    A    
C19   H10   S    
Cu1   O5    S    
C20   H16   S    
C12   C18   T    
N1    N2    D    
C7    C9    S    
C11   C17   T    
C10   S2    S    
Cu2   O2    S    
C8    C15   S    
C15   C17   S    
Cu2   O7    S    
H5    N1    S    
S2    O14   S    
C8    C10   S    
C7    C16   S    
Cu1   Cu2   S    
C19   H11   S    
C10   C13   S    
C7    N3    S    
