data_mof_unit_36202.cif
_audit_creation_date              2012-12-11T17:00:17-0500
_audit_creation_method            fapswitch 2.2
_symmetry_space_group_name_H-M    P1
_symmetry_Int_Tables_number       1
_space_group_crystal_system       triclinic
_cell_length_a                    6.958283
_cell_length_b                    13.527443
_cell_length_c                    20.268647
_cell_angle_alpha                 103.054336
_cell_angle_beta                  90.619197
_cell_angle_gamma                 90.093936
_cell_volume                      1858.41212139

loop_
_atom_site_label
_atom_site_type_symbol
_atom_type_description
_atom_site_fract_x
_atom_site_fract_y
_atom_site_fract_z
_atom_type_partial_charge
O1    O     O_R   0.506770 0.599700 0.449550 -0.538933
O2    O     O_R   0.179980 0.595740 0.587960 -0.545680
O3    O     O_R   0.004580 0.400300 0.550450 -0.537005
C1    C     C_R   0.348508 0.616143 0.615491 0.716781
O4    O     O_R   0.177380 0.611700 0.452380 -0.540522
O5    O     O_R   0.001970 0.416370 0.413900 -0.541452
C2    C     C_R   0.345386 0.639192 0.436153 0.720597
O6    O     O_R   0.509390 0.583630 0.586100 -0.538197
O7    O     O_3   0.337530 0.435890 0.487530 -0.371661
V1    V     V_3+5 0.064660 0.511890 0.502310 1.408790
O8    O     O_R   0.671950 0.404260 0.412040 -0.542221
C3    C     C_R   0.840118 0.382864 0.384727 0.693139
O9    O     O_R   0.674540 0.388300 0.547620 -0.541723
C4    C     C_R   0.844307 0.361082 0.563920 0.723783
V2    V     V_3+5 0.564030 0.488110 0.497690 1.405726
O10   O     O_3   0.841030 0.564110 0.512470 -0.371295
C5    C     C_R   0.958782 0.114949 0.611630 0.450501
H1    H     H_    0.950337 0.166667 0.518914 0.141284
H2    H     H_    0.039457 0.998920 0.699636 0.153061
C6    C     C_R   0.858841 0.283169 0.603336 -0.110599
C7    C     C_R   0.788442 0.311870 0.928134 -0.178020
C8    C     C_R   0.754935 0.385590 0.891622 -0.090998
C9    C     C_R   0.782099 0.364034 0.821845 -0.136915
C10   C     C_R   0.846622 0.267293 0.786556 0.093538
C11   C     C_R   0.888401 0.193469 0.824924 0.077738
C12   C     C_R   0.869209 0.241114 0.714600 0.029830
C13   C     C_R   0.936884 0.142608 0.682815 0.030370
C14   C     C_R   0.983906 0.073427 0.722369 -0.197409
C15   C     C_R   0.959256 0.098096 0.791936 -0.224207
C16   C     C_R   0.828570 0.309803 0.673064 -0.215038
C17   C     C_R   0.924532 0.186479 0.572928 -0.263732
C18   C     C_R   0.855209 0.216083 0.895629 -0.081485
H3    H     H_    0.779531 0.385979 0.693322 0.112163
H4    H     H_    0.760680 0.329278 0.982034 0.103770
H5    H     H_    0.750455 0.424931 0.797297 0.127056
H6    H     H_    0.704192 0.459741 0.917446 0.138227
H7    H     H_    0.996196 0.041056 0.819688 0.127651
C19   C     C_R   0.713247 0.178546 0.227916 0.116790
C20   C     C_R   0.867973 0.182154 0.184831 -0.110691
C21   C     C_R   0.022190 0.247225 0.211108 -0.186392
H8    H     H_    0.144238 0.252984 0.179723 0.135519
C22   C     C_R   0.014182 0.311073 0.276393 -0.175286
H9    H     H_    0.130942 0.363789 0.293416 0.129377
C23   C     C_R   0.851317 0.312099 0.317317 -0.109222
C24   C     C_R   0.704912 0.242047 0.292493 0.097536
C25   C     C_3   0.495745 0.260674 0.285303 -0.413614
C26   C     C_3   0.504733 0.191489 0.215181 -0.405726
H10   H     H_    0.465563 0.341070 0.284496 0.165796
H11   H     H_    0.408187 0.228968 0.321206 0.167104
H12   H     H_    0.479207 0.231480 0.173635 0.167008
H13   H     H_    0.422827 0.119853 0.210719 0.166682
C27   C     C_R   0.479119 0.765418 0.701589 0.093440
C28   C     C_R   0.351790 0.683699 0.683920 -0.155987
C29   C     C_R   0.210570 0.674055 0.731622 -0.215015
H14   H     H_    0.105071 0.613516 0.719026 0.152458
C30   C     C_R   0.212322 0.737278 0.797500 0.358407
C31   C     C_R   0.352360 0.815140 0.816160 -0.170691
C32   C     C_R   0.478149 0.829866 0.765552 0.036521
C33   C     C_3   0.691303 0.841782 0.766401 -0.381507
C34   C     C_3   0.692325 0.769883 0.696847 -0.381740
H15   H     H_    0.761829 0.810405 0.806452 0.236922
H16   H     H_    0.734306 0.920326 0.765271 0.165151
H17   H     H_    0.761934 0.695874 0.696647 0.189149
H18   H     H_    0.738212 0.806906 0.656029 0.147253
C35   C     C_R   0.284596 0.890654 0.389081 0.437567
H19   H     H_    0.283695 0.839316 0.481926 0.146497
H20   H     H_    0.221266 0.009261 0.301081 0.148952
C36   C     C_R   0.349165 0.717602 0.396812 -0.106597
C37   C     C_R   0.412580 0.684262 0.071181 -0.135008
C38   C     C_R   0.433364 0.609399 0.107600 -0.124606
C39   C     C_R   0.411576 0.632583 0.177653 -0.161740
C40   C     C_R   0.364883 0.732223 0.213321 0.106182
C41   C     C_R   0.336058 0.807596 0.175105 0.069907
C42   C     C_R   0.347975 0.759780 0.285495 0.029171
C43   C     C_R   0.300025 0.861593 0.317686 0.028323
C44   C     C_R   0.264518 0.932453 0.278266 -0.190888
C45   C     C_R   0.283206 0.906194 0.208509 -0.215157
C46   C     C_R   0.373968 0.689239 0.326811 -0.219578
C47   C     C_R   0.305113 0.817804 0.427675 -0.263898
C48   C     C_R   0.364023 0.783162 0.104095 -0.086556
H21   H     H_    0.405891 0.610514 0.306167 0.103711
H22   H     H_    0.436680 0.665309 0.017045 0.130085
H23   H     H_    0.433583 0.570641 0.202125 0.104298
H24   H     H_    0.470520 0.532970 0.081474 0.119072
H25   H     H_    0.254310 0.964212 0.180817 0.119283
O11   O     O_R   0.203450 0.916320 0.913910 -0.517551
O12   O     O_R   0.535520 0.888300 0.047620 -0.539295
O13   O     O_R   0.710860 0.083650 0.086100 -0.542349
C49   C     C_R   0.367684 0.861690 0.064553 0.707742
O14   O     O_R   0.532860 0.904250 0.912040 -0.540423
O15   O     O_R   0.708190 0.099710 0.949550 -0.541351
C50   C     C_R   0.363461 0.881869 0.885082 0.767113
O16   O     O_R   0.206120 0.900260 0.050460 -0.531317
O17   O     O_3   0.375280 0.064080 0.012470 -0.384524
V3    V     V_3+5 0.648180 0.988110 0.997690 1.469298
O18   O     O_R   0.038220 0.111740 0.952370 -0.545625
C51   C     C_R   0.868707 0.138016 0.935313 0.680588
O19   O     O_R   0.040880 0.095790 0.087940 -0.551175
C52   C     C_R   0.873065 0.117195 0.115271 0.680727
V4    V     V_3+5 0.148800 0.011950 0.002300 1.455848
O20   O     O_3   0.871820 0.935920 0.987530 -0.344488
Cl1   Cl    Cl    0.053730 0.707214 0.857313 -0.699832
O21   O     O_3   0.232319 0.988123 0.421606 -0.550004
C53   C     C_3   0.393077 0.054255 0.428469 0.075251
H26   H     H_    0.359015 0.116341 0.402640 0.122529
H27   H     H_    0.528395 0.018099 0.405687 0.097804
C54   C     C_3   0.429835 0.101576 0.503055 -0.648342
H28   H     H_    0.455553 0.041484 0.531408 0.227008
H29   H     H_    0.557433 0.152109 0.508482 0.164734
H30   H     H_    0.304603 0.147538 0.524864 0.234004
O22   O     O_3   0.028119 0.020506 0.579706 -0.551234
C55   C     C_3   0.876494 0.948385 0.568594 0.074648
H31   H     H_    0.746673 0.972187 0.600181 0.095937
H32   H     H_    0.930375 0.878137 0.581936 0.129011
C56   C     C_3   0.817711 0.922208 0.494096 -0.670581
H33   H     H_    0.931867 0.877688 0.463363 0.236534
H34   H     H_    0.684126 0.875922 0.487200 0.170520
H35   H     H_    0.792857 0.992456 0.475871 0.223621

loop_
_geom_bond_atom_site_label_1
_geom_bond_atom_site_label_2
_ccdc_geom_bond_type
C35   C47   A    
C31   C50   S    
C1    C28   S    
O22   C55   S    
C1    O6    A    
C55   H32   S    
O14   V3    S    
C6    C16   A    
C24   C25   S    
C18   C51   S    
H19   C47   S    
C25   H11   S    
C12   C13   A    
C34   H17   S    
C14   C15   A    
C10   C12   A    
O5    C3    A    
C19   C20   A    
V2    O10   S    
C30   C31   A    
C48   C49   S    
C53   H26   S    
C19   C24   A    
C37   H22   S    
C27   C34   S    
C2    C36   S    
C29   H14   S    
O14   C50   A    
C56   H34   S    
O12   V3    S    
C54   H28   S    
C38   C39   A    
O1    V2    S    
C38   H24   S    
O7    V1    S    
O8    V2    S    
C36   C47   A    
C21   C22   A    
O13   V3    S    
C45   H25   S    
C33   C34   S    
O9    C4    A    
C11   C15   A    
C54   H29   S    
O17   V3    S    
C22   C23   A    
C5    O22   S    
C53   H27   S    
C55   H31   S    
C26   H12   S    
C39   H23   S    
C36   C46   A    
C7    C18   A    
C29   C30   A    
C33   H15   S    
C42   C43   A    
C5    C13   A    
C4    C6    S    
C10   C11   A    
C40   C42   A    
C20   C21   A    
O4    C2    A    
C26   H13   S    
C7    H4    S    
C32   C33   S    
C28   C29   A    
O15   C51   A    
O2    C1    A    
C43   C44   A    
C20   C52   S    
O17   V4    S    
C9    C10   A    
C56   H35   S    
O18   C51   A    
C44   C45   A    
H2    C14   S    
O16   V4    S    
C19   C26   S    
O3    C4    A    
C27   C32   A    
C21   H8    S    
C12   C16   A    
O6    V2    S    
O19   V4    S    
O12   C49   A    
C5    C17   A    
C54   H30   S    
C22   H9    S    
C35   O21   S    
O2    V1    S    
C13   C14   A    
O11   V4    S    
C27   C28   A    
C25   C26   S    
C33   H16   S    
C16   H3    S    
O1    C2    A    
C23   C24   A    
C40   C41   A    
O5    V1    S    
O8    C3    A    
H20   C44   S    
C8    H6    S    
C9    H5    S    
C35   C43   A    
C34   H18   S    
O9    V2    S    
O7    V2    S    
C30   Cl1   S    
O4    V1    S    
C3    C23   S    
O3    V1    S    
O11   C50   A    
C46   H21   S    
C31   C32   A    
C11   C18   A    
O18   V4    S    
V4    O20   S    
C41   C48   A    
C53   C54   S    
C49   O16   A    
C37   C38   A    
O13   C52   A    
O15   V3    S    
C25   H10   S    
V3    O20   S    
C39   C40   A    
O19   C52   A    
C42   C46   A    
C15   H7    S    
O21   C53   S    
C41   C45   A    
C8    C9    A    
C37   C48   A    
V1    O10   S    
H1    C17   S    
C7    C8    A    
C55   C56   S    
C56   H33   S    
C6    C17   A    
