data_mof_unit_6212.cif
_audit_creation_date              2012-10-26T19:17:57-0400
_audit_creation_method            fapswitch 2.2
_symmetry_space_group_name_H-M    P1
_symmetry_Int_Tables_number       1
_space_group_crystal_system       triclinic
_cell_length_a                    10.853543
_cell_length_b                    12.283754
_cell_length_c                    13.361697
_cell_angle_alpha                 116.828668
_cell_angle_beta                  79.34665
_cell_angle_gamma                 100.575544
_cell_volume                      1552.05102243

loop_
_atom_site_label
_atom_site_type_symbol
_atom_type_description
_atom_site_fract_x
_atom_site_fract_y
_atom_site_fract_z
_atom_type_partial_charge
C1    C     C_R   0.499806 0.854840 0.289011 0.549658
C2    C     C_R   0.204227 0.285477 0.321805 -0.118227
C3    C     C_R   0.248302 0.205028 0.212639 -0.117557
C4    C     C_R   0.736688 0.000910 0.503723 0.578981
C5    C     C_R   0.260171 0.083663 0.187233 -0.117674
C6    C     C_R   0.218618 0.039814 0.269111 -0.063175
C7    C     C_R   0.165359 0.117888 0.376645 0.059314
C8    C     C_R   0.480924 0.269697 0.025745 -0.140013
C9    C     C_R   0.482063 0.229728 0.831806 0.028700
C10   C     C_R   0.480202 0.821868 0.095199 -0.149170
C11   C     C_R   0.468568 0.745943 0.982129 -0.146619
C12   C     C_R   0.681186 0.736988 0.728211 -0.162871
C13   C     C_R   0.462088 0.619121 0.941609 -0.113178
C14   C     C_R   0.456282 0.564856 0.016287 -0.008530
C15   C     C_R   0.444130 0.641829 0.133930 0.034172
C16   C     C_R   0.486565 0.145592 0.712230 0.577265
C17   C     C_R   0.462593 0.437259 0.979206 0.013421
C18   C     C_R   0.460312 0.391443 0.060015 -0.015794
C19   C     C_R   0.427082 0.464867 0.173506 -0.111181
C20   C     C_R   0.405451 0.584710 0.207806 0.370517
C21   C     C_R   0.472821 0.353802 0.865004 -0.118317
C22   C     C_R   0.489337 0.188449 0.912128 -0.088739
C23   C     C_R   0.043288 0.942159 0.555097 -0.136635
C24   C     C_R   0.472480 0.771636 0.172097 0.006752
C25   C     C_R   0.696317 0.344117 0.329068 -0.152452
C26   C     C_R   0.331257 0.760829 0.644411 0.059424
C27   C     C_R   0.295621 0.663974 0.674636 -0.165492
C28   C     C_R   0.263086 0.000354 0.498512 0.545427
C29   C     C_R   0.358082 0.559109 0.619115 -0.145548
C30   C     C_R   0.457929 0.550249 0.532512 -0.003202
C31   C     C_R   0.491383 0.652066 0.504925 0.218079
C32   C     C_R   0.526917 0.445537 0.473372 -0.016458
C33   C     C_R   0.626362 0.444409 0.387595 0.023226
C34   C     C_R   0.129406 0.002746 0.499666 0.001038
C35   C     C_R   0.656958 0.544172 0.361846 -0.185880
C36   C     C_R   0.591995 0.646046 0.420065 -0.075246
C37   C     C_R   0.502975 0.341544 0.496040 0.047205
C38   C     C_R   0.668459 0.245211 0.356122 0.041711
C39   C     C_R   0.674650 0.862966 0.770309 -0.070910
C40   C     C_R   0.749985 0.930142 0.715778 0.428799
C41   C     C_R   0.830647 0.870461 0.617160 0.054109
C42   C     C_R   0.837639 0.744145 0.576448 -0.163893
C43   C     C_R   0.763209 0.677887 0.631955 -0.132763
C44   C     C_R   0.085130 0.064175 0.448682 -0.035008
C45   C     C_R   0.956246 0.064112 0.455080 -0.151529
C46   C     C_R   0.869982 0.001719 0.508200 0.029571
C47   C     C_R   0.914000 0.939724 0.559384 0.008200
C48   C     C_R   0.162721 0.242143 0.403839 -0.099094
Cu1   Cu    Cu3+1 0.529370 0.098270 0.475420 0.943383
Cu2   Cu    Cu3+1 0.470630 0.901730 0.524580 1.001090
F1    F     F_    0.330417 0.636672 0.306530 -0.623561
F2    F     F_    0.745260 0.052946 0.759307 -0.651483
H1    H     H_    0.623340 0.684689 0.769939 0.121051
H2    H     H_    0.461132 0.566716 0.851820 0.097242
H3    H     H_    0.469494 0.785987 0.924657 0.105313
H4    H     H_    0.612088 0.908899 0.845716 0.102599
H5    H     H_    0.721759 0.167112 0.311558 0.125190
H6    H     H_    0.733555 0.544551 0.297077 0.115724
H7    H     H_    0.772372 0.342623 0.263398 0.105864
H8    H     H_    0.428948 0.333753 0.559094 0.117674
H9    H     H_    0.282289 0.841910 0.687698 0.119298
H10   H     H_    0.326449 0.486907 0.645879 0.095859
H11   H     H_    0.219361 0.670139 0.741200 0.106761
H12   H     H_    0.269547 0.235976 0.147071 0.119694
H13   H     H_    0.625795 0.718486 0.396000 0.175759
H14   H     H_    0.900413 0.696970 0.501386 0.128185
H15   H     H_    0.768511 0.580497 0.599908 0.138386
H16   H     H_    0.076526 0.896265 0.596203 0.134497
H17   H     H_    0.923275 0.108671 0.412576 0.134876
H18   H     H_    0.120577 0.303054 0.486050 0.111215
H19   H     H_    0.196508 0.379797 0.341359 0.144676
H20   H     H_    0.295700 0.022123 0.102663 0.099138
H21   H     H_    0.219535 0.943382 0.246363 0.111880
H22   H     H_    0.500356 0.093482 0.887263 0.144880
H23   H     H_    0.409497 0.427338 0.234864 0.133514
H24   H     H_    0.486184 0.236280 0.087118 0.112362
H25   H     H_    0.470562 0.382321 0.800244 0.113150
H26   H     H_    0.494852 0.920300 0.122430 0.132290
N1    N     N_R   0.573890 0.246290 0.438210 -0.236497
N2    N     N_R   0.426890 0.754320 0.561170 -0.214965
O1    O     O_R   0.536940 0.972510 0.318130 -0.522891
O2    O     O_R   0.487330 0.806530 0.359650 -0.458310
O3    O     O_R   0.705160 0.082990 0.479250 -0.510777
O4    O     O_R   0.655550 0.917010 0.520760 -0.522159
O5    O     O_R   0.512670 0.193470 0.640350 -0.515952
O6    O     O_R   0.463060 0.027490 0.681870 -0.508864
O7    O     O_R   0.344450 0.082990 0.479240 -0.508456
O8    O     O_R   0.294840 0.917010 0.520750 -0.488047

loop_
_geom_bond_atom_site_label_1
_geom_bond_atom_site_label_2
_ccdc_geom_bond_type
C27   C29   A    
C41   C42   A    
Cu1   O7    S    
C19   C20   A    
C26   N2    A    
C10   H26   S    
Cu2   O4    S    
C31   N2    A    
C4    C46   S    
C3    H12   S    
C37   N1    A    
C26   C27   A    
C35   H6    S    
C26   H9    S    
C20   F1    S    
C30   C31   A    
C9    C22   A    
C38   N1    A    
C1    O1    A    
C8    H24   S    
C18   C19   A    
Cu1   O1    S    
C46   C47   A    
C12   C43   A    
C35   C36   A    
C28   O8    A    
C8    C22   A    
C12   H1    S    
Cu2   O8    S    
C28   C34   S    
C13   C14   A    
C16   O6    A    
C14   C17   A    
C15   C20   A    
C23   C47   A    
C45   H17   S    
Cu1   O5    S    
C34   C44   A    
C39   C40   A    
C36   H13   S    
C2    C48   A    
C1    O2    A    
C40   F2    S    
C8    C18   A    
Cu1   N1    S    
C23   H16   S    
C29   C30   A    
C25   C38   A    
C38   H5    S    
C39   H4    S    
C4    O4    A    
C23   C34   A    
C28   O7    A    
C17   C18   A    
C41   C47   S    
C32   C37   A    
C27   H11   S    
C40   C41   A    
C16   O5    A    
C42   C43   A    
C22   H22   S    
C2    H19   S    
C11   H3    S    
C44   C45   A    
Cu2   O2    S    
C6    H21   S    
C13   H2    S    
C29   H10   S    
C15   C24   A    
C31   C36   A    
C9    C16   S    
C48   H18   S    
C3    C5    A    
Cu2   N2    S    
C6    C7    A    
C5    H20   S    
C10   C24   A    
C7    C48   A    
Cu1   O3    S    
C12   C39   A    
C19   H23   S    
C2    C3    A    
C32   C33   A    
C30   C32   A    
C11   C13   A    
C9    C21   A    
C5    C6    A    
C4    O3    A    
C33   C35   A    
C17   C21   A    
C37   H8    S    
C10   C11   A    
Cu2   O6    S    
C45   C46   A    
C1    C24   S    
C43   H15   S    
Cu1   Cu2   S    
C21   H25   S    
C42   H14   S    
C14   C15   A    
C25   H7    S    
C7    C44   S    
C25   C33   A    
