data_mof_unit_30045.cif
_audit_creation_date              2012-12-10T20:30:12-0500
_audit_creation_method            fapswitch 2.2
_symmetry_space_group_name_H-M    P1
_symmetry_Int_Tables_number       1
_space_group_crystal_system       triclinic
_cell_length_a                    9.86255
_cell_length_b                    10.680026
_cell_length_c                    12.942143
_cell_angle_alpha                 90.364467
_cell_angle_beta                  71.597767
_cell_angle_gamma                 90.226098
_cell_volume                      1293.48639751

loop_
_atom_site_label
_atom_site_type_symbol
_atom_type_description
_atom_site_fract_x
_atom_site_fract_y
_atom_site_fract_z
_atom_type_partial_charge
C1    C     C_R   0.498959 0.740191 0.503288 0.905658
C2    C     C_R   0.455296 0.379605 0.970339 0.041255
C3    C     C_R   0.495080 0.388348 0.856591 0.085269
C4    C     C_R   0.559809 0.407051 0.020855 0.099931
C5    C     C_R   0.705187 0.418938 0.956557 0.169741
C6    C     C_R   0.745682 0.388594 0.846296 -0.239984
C7    C     C_R   0.641069 0.371704 0.796561 -0.174089
C8    C     C_R   0.521650 0.435536 0.131396 -0.258352
C9    C     C_R   0.766440 0.491165 0.113736 -0.141985
C10   C     C_R   0.387189 0.414988 0.808641 -0.176336
C11   C     C_R   0.365289 0.935556 0.535633 0.088004
C12   C     C_R   0.424743 0.474265 0.700224 0.894927
C13   C     C_R   0.492437 0.871620 0.521940 -0.116898
C14   C     C_R   0.611498 0.936164 0.532633 -0.198583
C15   C     C_R   0.610342 0.065592 0.534341 -0.182956
C16   C     C_R   0.489865 0.128983 0.525765 -0.152340
C17   C     C_R   0.362811 0.063344 0.539772 0.152861
C18   C     C_3   0.254423 0.070626 0.481133 0.090392
C19   C     C_3   0.261426 0.928759 0.473086 -0.503605
C20   C     C_R   0.912525 0.600302 0.540703 0.208664
C21   C     C_R   0.949353 0.408870 0.447493 -0.100240
C22   C     C_R   0.093841 0.409707 0.446452 -0.064090
C23   C     C_R   0.497930 0.259879 0.504682 0.871174
C24   C     C_R   0.054188 0.599125 0.542338 0.204816
C25   C     C_3   0.011708 0.646998 0.656537 -0.492082
C26   C     C_3   0.859094 0.652647 0.653313 -0.494293
C27   C     C_R   0.577976 0.497814 0.295328 0.879757
C28   C     C_R   0.806841 0.462737 0.002983 -0.126227
C29   C     C_R   0.623705 0.476826 0.178103 -0.072150
C30   C     C_R   0.245125 0.383031 0.866471 -0.231044
C31   C     C_R   0.211763 0.338322 0.973103 0.327997
C32   C     C_R   0.313084 0.346110 0.027541 -0.230295
H1    H     H_    0.846411 0.523690 0.148938 0.170082
H2    H     H_    0.707132 0.114701 0.533275 0.196183
H3    H     H_    0.294017 0.118561 0.401128 0.127547
H4    H     H_    0.160412 0.881005 0.518871 0.230444
H5    H     H_    0.311263 0.893933 0.388395 0.185468
H6    H     H_    0.911459 0.333761 0.407239 0.171190
H7    H     H_    0.165214 0.335904 0.404552 0.158631
H8    H     H_    0.027118 0.576279 0.714526 0.208880
H9    H     H_    0.057569 0.740678 0.663060 0.216523
H10   H     H_    0.784735 0.589107 0.711725 0.229653
H11   H     H_    0.857371 0.385404 0.797351 0.171713
H12   H     H_    0.819165 0.749955 0.654189 0.210838
H13   H     H_    0.917099 0.475913 0.953391 0.148614
H14   H     H_    0.411276 0.430048 0.181602 0.158887
H15   H     H_    0.162386 0.388451 0.828081 0.175791
H16   H     H_    0.281266 0.318462 0.112009 0.156569
H17   H     H_    0.676266 0.347346 0.711026 0.196818
H18   H     H_    0.708686 0.888112 0.531012 0.177669
N1    N     N_R   0.856940 0.500860 0.500710 -0.119314
N2    N     N_R   0.142580 0.500820 0.500710 -0.107082
O1    O     O_R   0.385310 0.683210 0.499990 -0.609108
O2    O     O_R   0.614650 0.683240 0.500000 -0.616800
O3    O     O_R   0.328390 0.499940 0.653610 -0.604313
O4    O     O_R   0.557730 0.499980 0.653620 -0.628233
O5    O     O_R   0.385350 0.316760 0.500000 -0.607096
O6    O     O_R   0.614690 0.316790 0.500010 -0.633939
O7    O     O_R   0.442270 0.500020 0.346380 -0.622833
O8    O     O_R   0.671610 0.500060 0.346390 -0.604562
Zn1   Zn    Zn3+2 0.346870 0.499980 0.499990 0.959266
Zn2   Zn    Zn3+2 0.653130 0.500020 0.500010 0.945146
Br1   Br    Br    0.071788 0.129123 0.578040 -0.556329
Br2   Br    Br    0.032072 0.261148 0.044680 -0.551199

loop_
_geom_bond_atom_site_label_1
_geom_bond_atom_site_label_2
_ccdc_geom_bond_type
O6    Zn2   S    
C23   O6    A    
C2    C4    A    
C1    O2    A    
C24   N2    A    
C6    C7    A    
C19   H5    S    
C27   C29   S    
C5    C28   A    
C11   C13   A    
C18   H3    S    
C10   C30   A    
C15   H2    S    
C31   C32   A    
C9    C29   A    
C30   C31   A    
C6    H11   S    
C16   C23   S    
C17   C18   S    
C25   C26   S    
C26   H12   S    
C3    C10   A    
C27   O7    A    
C21   C22   A    
O5    Zn1   S    
C32   H16   S    
C11   C19   S    
C27   O8    A    
C14   H18   S    
N1    Zn2   S    
C10   C12   S    
C9    H1    S    
C23   O5    A    
C22   H7    S    
O3    Zn1   S    
C2    C32   A    
C22   N2    A    
C12   O4    A    
C2    C3    A    
C20   N1    A    
C3    C7    A    
N2    Zn1   S    
C25   H8    S    
C5    C6    A    
C28   H13   S    
O4    Zn2   S    
C18   Br1   S    
O7    Zn1   S    
C12   O3    A    
C1    C13   S    
C8    C29   A    
C15   C16   A    
C16   C17   A    
C30   H15   S    
C21   N1    A    
C24   C25   S    
C7    H17   S    
O8    Zn2   S    
C18   C19   S    
C25   H9    S    
C4    C8    A    
C26   H10   S    
C1    O1    A    
C14   C15   A    
C11   C17   A    
O2    Zn2   S    
C8    H14   S    
C19   H4    S    
C13   C14   A    
O1    Zn1   S    
C31   Br2   S    
C21   H6    S    
C20   C24   A    
C9    C28   A    
C4    C5    A    
C20   C26   S    
