data_mof_unit_54572.cif
_audit_creation_date              2012-12-10T17:02:57-0500
_audit_creation_method            fapswitch 2.2
_symmetry_space_group_name_H-M    P1
_symmetry_Int_Tables_number       1
_space_group_crystal_system       triclinic
_cell_length_a                    9.859785
_cell_length_b                    11.025088
_cell_length_c                    13.417635
_cell_angle_alpha                 94.732124
_cell_angle_beta                  81.696021
_cell_angle_gamma                 111.891822
_cell_volume                      1338.54492911

loop_
_atom_site_label
_atom_site_type_symbol
_atom_type_description
_atom_site_fract_x
_atom_site_fract_y
_atom_site_fract_z
_atom_type_partial_charge
C1    C     C_R   0.556948 0.746036 0.509200 0.810147
C2    C     C_R   0.432831 0.478172 0.971168 0.094712
C3    C     C_R   0.455659 0.447365 0.866815 0.081514
C4    C     C_R   0.531481 0.468821 0.035250 0.080871
C5    C     C_R   0.639455 0.415111 0.996666 0.138916
C6    C     C_R   0.648708 0.371550 0.896412 -0.236199
C7    C     C_R   0.557708 0.386509 0.832562 -0.201840
C8    C     C_R   0.526905 0.512193 0.136467 -0.317714
C9    C     C_R   0.722855 0.439052 0.161571 0.154834
C10   C     C_R   0.374072 0.476578 0.799630 -0.106750
C11   C     C_2   0.588969 0.887039 0.518661 -0.008292
C12   C     C_R   0.421375 0.483613 0.690293 0.780735
C13   C     C_2   0.518165 0.936569 0.465497 -0.180669
C14   C     C_2   0.414479 0.110247 0.477790 -0.077656
C15   C     C_2   0.530685 0.073511 0.478390 -0.189796
C16   C     C_2   0.910481 0.470788 0.513052 -0.093124
C17   C     C_2   0.074971 0.504187 0.515027 -0.029058
C18   C     C_R   0.442812 0.252699 0.490733 0.816691
C19   C     C_R   0.576615 0.507636 0.309504 0.814785
C20   C     C_R   0.735414 0.402797 0.059310 -0.257376
C21   C     C_R   0.615624 0.491926 0.200694 -0.050328
C22   C     C_R   0.254810 0.513715 0.838255 -0.190326
C23   C     C_R   0.221538 0.529402 0.941444 -0.157090
C24   C     C_R   0.310831 0.514916 0.007343 -0.182319
Cu1   Cu    Cu3+1 0.362000 0.479240 0.482530 0.919890
Cu2   Cu    Cu3+1 0.638000 0.520760 0.517470 0.937239
H1    H     H_    0.444026 0.872589 0.414552 0.147052
H2    H     H_    0.129257 0.580018 0.568422 0.135940
H3    H     H_    0.843748 0.376543 0.483392 0.163338
H4    H     H_    0.910844 0.642062 0.570390 0.187783
H5    H     H_    0.727188 0.326020 0.866963 0.145966
H6    H     H_    0.817362 0.361085 0.029682 0.135957
H7    H     H_    0.453604 0.561262 0.168100 0.146684
H8    H     H_    0.189357 0.534279 0.788419 0.149136
H9    H     H_    0.279049 0.529853 0.086258 0.121798
H10   H     H_    0.128531 0.557164 0.970488 0.140473
H11   H     H_    0.565993 0.346328 0.756692 0.169469
H12   H     H_    0.637976 0.144604 0.491949 0.186176
N1    N     N_2   0.845330 0.551960 0.543750 -0.282630
N2    N     N_2   0.154690 0.448120 0.456210 -0.152434
O1    O     O_R   0.426290 0.668220 0.490680 -0.588775
O2    O     O_R   0.659360 0.703290 0.520190 -0.575252
O3    O     O_R   0.326580 0.473880 0.629020 -0.580077
O4    O     O_R   0.559660 0.508940 0.658530 -0.568268
O5    O     O_R   0.340640 0.296710 0.479810 -0.588247
O6    O     O_R   0.573710 0.331780 0.509320 -0.594775
O7    O     O_R   0.440340 0.491060 0.341470 -0.606071
O8    O     O_R   0.673420 0.526120 0.370980 -0.530172
N3    N     N_3   0.813822 0.415766 0.225990 -0.585226
H13   H     H_    0.791871 0.315291 0.223710 0.205047
H14   H     H_    0.923958 0.463332 0.196842 0.211009
C25   C     C_3   0.263656 0.003950 0.464490 -0.410324
C26   C     C_3   0.132495 0.046641 0.467302 -0.361822
C27   C     C_3   0.991388 0.929151 0.455259 -0.827004
H15   H     H_    0.006954 0.867910 0.387825 0.253410
H16   H     H_    0.957815 0.868951 0.523261 0.256385
H17   H     H_    0.902636 0.964103 0.444951 0.265199
H18   H     H_    0.116945 0.099813 0.539476 0.241291
H19   H     H_    0.152582 0.109628 0.403016 0.242354
H20   H     H_    0.273711 0.953160 0.390251 0.201737
H21   H     H_    0.236376 0.931616 0.524446 0.211950
N4    N     N_3   0.687080 0.968494 0.587885 -0.609406
H22   H     H_    0.731154 0.912756 0.622831 0.225229
H23   H     H_    0.624138 0.001244 0.645394 0.223012
C28   C     C_3   0.076921 0.343248 0.386054 -0.182756
C29   C     C_3   0.173567 0.321136 0.291586 -0.301553
C30   C     C_3   0.082938 0.216732 0.220352 -0.956801
H24   H     H_    0.022954 0.123214 0.259506 0.264343
H25   H     H_    0.002647 0.249385 0.191493 0.255281
H26   H     H_    0.157437 0.199602 0.155026 0.264719
H27   H     H_    0.225515 0.413517 0.250237 0.225100
H28   H     H_    0.258582 0.287594 0.311136 0.249676
H29   H     H_    0.020125 0.250950 0.427284 0.158963
H30   H     H_    0.993528 0.368754 0.354202 0.165321

loop_
_geom_bond_atom_site_label_1
_geom_bond_atom_site_label_2
_ccdc_geom_bond_type
C2    C4    A    
C23   C24   A    
C15   H12   S    
N4    H22   S    
Cu2   O8    S    
C14   C18   S    
C9    C20   A    
C3    C7    A    
C29   H27   S    
C1    C11   S    
C4    C8    A    
C26   H18   S    
C11   N4    S    
Cu1   O3    S    
N3    H14   S    
C14   C15   D    
C6    H5    S    
C26   H19   S    
Cu2   O4    S    
C12   O4    A    
C3    C10   A    
C26   C27   S    
C10   C22   A    
C11   C13   D    
C9    C21   A    
C6    C7    A    
C9    N3    S    
C10   C12   S    
C5    C6    A    
C18   O6    A    
C1    O1    A    
C19   C21   S    
H4    N1    S    
C29   C30   S    
C12   O3    A    
C2    C3    A    
C25   H21   S    
C13   C15   S    
Cu1   N2    S    
C2    C24   A    
N2    C28   S    
C22   H8    S    
N3    H13   S    
C19   O7    A    
Cu2   N1    S    
C24   H9    S    
C16   C17   S    
C28   C29   S    
Cu2   O6    S    
C16   N1    D    
C30   H24   S    
C18   O5    A    
Cu1   O5    S    
C1    O2    A    
C4    C5    A    
C28   H29   S    
C25   C26   S    
Cu2   O2    S    
C16   H3    S    
C23   H10   S    
C20   H6    S    
Cu1   O1    S    
C5    C20   A    
Cu1   O7    S    
C27   H15   S    
C13   H1    S    
N4    H23   S    
C25   H20   S    
C30   H26   S    
C30   H25   S    
Cu1   Cu2   S    
C19   O8    A    
C17   H2    S    
C27   H17   S    
C22   C23   A    
C14   C25   S    
C28   H30   S    
C27   H16   S    
C29   H28   S    
C8    H7    S    
C7    H11   S    
C17   N2    D    
C8    C21   A    
