data_mof_unit_24446.cif
_audit_creation_date              2012-10-26T21:08:05-0400
_audit_creation_method            fapswitch 2.2
_symmetry_space_group_name_H-M    P1
_symmetry_Int_Tables_number       1
_space_group_crystal_system       triclinic
_cell_length_a                    15.865477
_cell_length_b                    10.835338
_cell_length_c                    9.623119
_cell_angle_alpha                 90.367989
_cell_angle_beta                  89.671874
_cell_angle_gamma                 92.976498
_cell_volume                      1651.99933417

loop_
_atom_site_label
_atom_site_type_symbol
_atom_type_description
_atom_site_fract_x
_atom_site_fract_y
_atom_site_fract_z
_atom_type_partial_charge
C1    C     C_R   0.507443 0.263403 0.499862 0.564515
C2    C     C_R   0.571556 0.059736 0.871290 0.224963
C3    C     C_R   0.520947 0.951329 0.884675 -0.114202
C4    C     C_R   0.340091 0.499663 0.500237 0.565899
C5    C     C_R   0.488539 0.890996 0.767040 -0.138207
C6    C     C_R   0.503443 0.940786 0.633189 0.009477
C7    C     C_R   0.533002 0.065133 0.624622 -0.011740
C8    C     C_R   0.516135 0.129571 0.500353 0.007934
C9    C     C_R   0.493426 0.063253 0.379686 -0.084595
C10   C     C_R   0.485908 0.935697 0.381488 -0.120992
C11   C     C_R   0.490988 0.872510 0.507188 0.002211
C12   C     C_3   0.083551 0.500837 0.500162 -0.053828
C13   C     C_R   0.615365 0.660367 0.143393 -0.068672
C14   C     C_R   0.672737 0.737532 0.071505 -0.114104
C15   C     C_R   0.672979 0.737536 0.927965 -0.030499
C16   C     C_R   0.495074 0.737513 0.501623 0.524620
C17   C     C_R   0.615596 0.659923 0.856050 -0.085098
C18   C     C_R   0.557644 0.577321 0.925089 0.107665
C19   C     C_R   0.557280 0.577792 0.074407 0.148501
C20   C     C_R   0.444977 0.427995 0.076812 0.073475
C21   C     C_R   0.441987 0.428723 0.929814 0.359241
C22   C     C_R   0.659949 0.501954 0.499616 0.535549
C23   C     C_3   0.976869 0.615617 0.526955 -0.071150
C24   C     C_3   0.969256 0.424791 0.597283 0.174218
C25   C     C_3   0.024368 0.385501 0.472933 -0.109081
C26   C     C_1   0.250528 0.499774 0.500628 0.029768
C27   C     C_1   0.749554 0.502976 0.498914 0.061954
C28   C     C_3   0.029298 0.538267 0.624662 -0.021734
C29   C     C_1   0.730839 0.820134 0.853200 0.208342
C30   C     C_1   0.950878 0.741309 0.555676 0.230649
C31   C     C_1   0.061732 0.578327 0.761199 0.307899
C32   C     C_1   0.643105 0.213885 0.720009 0.314747
C33   C     C_3   0.916607 0.502257 0.500344 0.007765
C34   C     C_3   0.032174 0.579727 0.401287 -0.135912
C35   C     C_3   0.971677 0.465141 0.376830 0.194006
C36   C     C_1   0.175076 0.500096 0.500413 -0.010138
C37   C     C_1   0.824999 0.502923 0.499414 0.063657
C38   C     C_R   0.577987 0.117689 0.740373 0.005380
Cu1   Cu    Cu3+1 0.499990 0.499990 0.640660 1.041171
Cu2   Cu    Cu3+1 0.500010 0.500010 0.359340 0.999307
H1    H     H_    0.044235 0.290703 0.450164 0.158630
H2    H     H_    0.481367 0.109848 0.283123 0.194221
H3    H     H_    0.300747 0.242653 0.689185 0.354880
H4    H     H_    0.046063 0.229472 0.743389 0.336480
H5    H     H_    0.053847 0.449718 0.109409 0.348443
H6    H     H_    0.755456 0.078059 0.983285 0.373121
H7    H     H_    0.510377 0.909076 0.985355 0.147575
H8    H     H_    0.449978 0.807370 0.783787 0.165192
H9    H     H_    0.474015 0.886731 0.284463 0.152585
H10   H     H_    0.399841 0.372266 0.136915 0.170850
H11   H     H_    0.618652 0.670733 0.252983 0.184090
H12   H     H_    0.716256 0.799054 0.128668 0.168674
H13   H     H_    0.617434 0.670560 0.746564 0.181676
H14   H     H_    0.058560 0.642964 0.319820 0.150638
N1    N     N_R   0.500800 0.501210 0.147910 -0.271084
N2    N     N_R   0.500830 0.501290 0.852040 -0.264628
N3    N     N_1   0.777125 0.886398 0.792764 -0.218188
N4    N     N_1   0.930481 0.840484 0.578135 -0.197139
N5    N     N_1   0.087304 0.609900 0.868743 -0.219870
N6    N     N_1   0.696782 0.288980 0.705560 -0.149048
O1    O     O_R   0.499990 0.319640 0.618810 -0.448082
O2    O     O_2   0.283911 0.445825 0.840862 -0.281326
O3    O     O_3   0.358987 0.268034 0.717904 -0.494236
O4    O     O_2   0.873634 0.388707 0.825982 -0.148868
O5    O     O_2   0.877788 0.216302 0.659989 -0.230847
O6    O     O_3   0.009153 0.264304 0.815441 -0.415043
O7    O     O_2   0.872156 0.306632 0.228206 -0.161082
O8    O     O_2   0.888764 0.519439 0.143586 -0.238451
O9    O     O_3   0.014113 0.376122 0.109786 -0.407263
O10   O     O_2   0.584521 0.235717 0.066753 -0.248148
O11   O     O_2   0.621331 0.028723 0.136035 -0.336257
O12   O     O_R   0.500000 0.319660 0.381240 -0.485291
O13   O     O_3   0.727256 0.157450 0.981725 -0.401205
O14   O     O_R   0.379070 0.499980 0.618770 -0.418709
O15   O     O_R   0.379080 0.500000 0.381190 -0.515124
O16   O     O_R   0.500000 0.680340 0.618760 -0.552188
O17   O     O_R   0.500010 0.680360 0.381190 -0.535780
O18   O     O_R   0.620920 0.500000 0.618810 -0.518263
O19   O     O_R   0.620930 0.500020 0.381230 -0.493101
O20   O     O_2   0.312271 0.261840 0.971588 -0.295361
S1    S     S_3+6 0.347895 0.350562 0.864123 0.043758
S2    S     S_3+6 0.928747 0.320870 0.727192 0.096518
S3    S     S_3+6 0.933110 0.416294 0.210762 0.099390
S4    S     S_3+6 0.625433 0.120696 0.019680 0.024901

loop_
_geom_bond_atom_site_label_1
_geom_bond_atom_site_label_2
_ccdc_geom_bond_type
O7    S3    D    
C1    C8    S    
H4    O6    S    
H3    O3    S    
C7    C8    A    
C9    H2    S    
O3    S1    S    
C22   O19   A    
C18   C19   A    
C5    C6    A    
C34   C35   S    
Cu1   O14   S    
C31   N5    T    
C24   S2    S    
C4    O15   A    
C20   H10   S    
C13   H11   S    
C2    S4    S    
C14   H12   S    
C8    C9    A    
C23   C33   S    
C32   C38   S    
C12   C36   S    
O10   S4    D    
C9    C10   A    
O13   S4    S    
C4    O14   A    
C18   N2    A    
Cu2   N1    S    
C13   C14   A    
C20   N1    A    
C15   C29   S    
Cu1   O1    S    
C5    H8    S    
C1    O12   A    
C13   C19   A    
H5    O9    S    
C23   C30   S    
C24   C25   S    
C22   O18   A    
C25   H1    S    
C6    C11   A    
C35   S3    S    
C23   C28   S    
C33   C37   S    
Cu1   O18   S    
O9    S3    S    
O6    S2    S    
C11   C16   S    
C2    C38   A    
Cu1   N2    S    
C23   C34   S    
C17   C18   A    
Cu2   O19   S    
Cu1   O16   S    
O4    S2    D    
C25   C35   S    
C26   C36   T    
O2    S1    D    
C21   S1    S    
C34   H14   S    
C22   C27   S    
C32   N6    T    
C12   C34   S    
C17   H13   S    
Cu1   Cu2   S    
O11   S4    D    
C19   N1    A    
C15   C17   A    
Cu2   O12   S    
C16   O16   A    
O8    S3    D    
C28   C31   S    
C24   C28   S    
C29   N3    T    
O20   S1    D    
C3    C5    A    
C1    O1    A    
C21   N2    A    
C4    C26   S    
C6    C7    A    
C24   C33   S    
Cu2   O15   S    
C12   C25   S    
C2    C3    A    
O5    S2    D    
C27   C37   T    
C30   N4    T    
C3    H7    S    
C33   C35   S    
C7    C38   A    
Cu2   O17   S    
C10   C11   A    
C20   C21   A    
C12   C28   S    
C14   C15   A    
C16   O17   A    
C10   H9    S    
H6    O13   S    
