data_mof_unit_45075.cif
_audit_creation_date              2012-12-10T17:10:51-0500
_audit_creation_method            fapswitch 2.2
_symmetry_space_group_name_H-M    P1
_symmetry_Int_Tables_number       1
_space_group_crystal_system       triclinic
_cell_length_a                    18.37172
_cell_length_b                    19.051818
_cell_length_c                    18.364946
_cell_angle_alpha                 109.221109
_cell_angle_beta                  108.518181
_cell_angle_gamma                 109.539013
_cell_volume                      5016.0997333

loop_
_atom_site_label
_atom_site_type_symbol
_atom_type_description
_atom_site_fract_x
_atom_site_fract_y
_atom_site_fract_z
_atom_type_partial_charge
C1    C     C_R   0.621202 0.618384 0.499050 0.894941
C2    C     C_R   0.777379 0.705999 0.542899 -0.041975
C3    C     C_R   0.687643 0.680085 0.494254 -0.031595
C4    C     C_R   0.379448 0.499889 0.378971 0.833126
C5    C     C_R   0.662139 0.725610 0.455515 -0.203259
C6    C     C_R   0.725529 0.795326 0.462120 -0.182912
C7    C     C_R   0.814608 0.826772 0.517603 -0.058542
C8    C     C_R   0.567987 0.421813 0.716532 -0.166293
C9    C     C_R   0.543244 0.389489 0.767618 -0.109773
C10   C     C_R   0.606918 0.397976 0.840496 -0.145482
C11   C     C_R   0.695275 0.436851 0.861315 -0.160273
C12   C     C_3   0.216316 0.428863 0.174473 -0.149367
C13   C     C_R   0.722487 0.468015 0.808682 0.114341
C14   C     C_R   0.657514 0.462704 0.737377 0.089186
C15   C     C_R   0.683701 0.499015 0.688597 -0.089616
C16   C     C_R   0.377501 0.381292 0.498992 0.834809
C17   C     C_R   0.770939 0.539654 0.708227 -0.179643
C18   C     C_R   0.834362 0.542322 0.774897 -0.134847
C19   C     C_R   0.811612 0.505553 0.824317 -0.112711
C20   C     C_R   0.217887 0.388782 0.488167 -0.181290
C21   C     C_R   0.145829 0.395641 0.492009 -0.129351
C22   C     C_R   0.089241 0.338990 0.506594 -0.100382
C23   C     C_3   0.215729 0.430484 0.258977 -0.145722
C24   C     C_R   0.102571 0.273288 0.514123 -0.158075
C25   C     C_R   0.173452 0.263314 0.507145 0.095338
C26   C     C_R   0.234495 0.324530 0.499089 0.104866
C27   C     C_R   0.309451 0.318286 0.500590 -0.098370
C28   C     C_R   0.621730 0.501373 0.620977 0.888129
C29   C     C_R   0.322270 0.251960 0.506820 -0.210325
C30   C     C_R   0.260624 0.190068 0.510390 -0.199685
C31   C     C_R   0.185958 0.194369 0.508803 -0.102815
C32   C     C_R   0.999552 0.618852 0.121073 0.830536
C33   C     C_R   0.124808 0.499970 0.124393 0.851555
C34   C     C_3   0.312623 0.499651 0.311423 0.034608
C35   C     C_R   0.005900 0.381987 0.883529 0.963654
C36   C     C_R   0.881633 0.503585 0.887055 0.924648
C37   C     C_R   0.995587 0.116297 0.620748 0.924652
C38   C     C_R   0.879844 0.885699 0.506794 0.898888
C39   C     C_R   0.997860 0.877380 0.380672 0.864758
C40   C     C_3   0.288334 0.570740 0.327918 -0.170130
C41   C     C_R   0.119989 0.123190 0.503429 0.865345
C42   C     C_R   0.831292 0.609873 0.100831 -0.177417
C43   C     C_R   0.751458 0.601710 0.096237 -0.125188
C44   C     C_R   0.750783 0.658600 0.166362 -0.117334
C45   C     C_R   0.808820 0.654198 0.567446 0.335936
C46   C     C_R   0.829962 0.725721 0.239800 -0.169543
C47   C     C_R   0.911639 0.736789 0.244068 0.097509
C48   C     C_R   0.912142 0.675229 0.176073 0.103513
C49   C     C_R   0.993936 0.682253 0.184766 -0.093058
C50   C     C_R   0.073272 0.750651 0.256852 -0.197798
C51   C     C_R   0.072930 0.812900 0.321122 -0.199863
C52   C     C_3   0.190295 0.501609 0.274315 -0.168244
C53   C     C_R   0.993200 0.807082 0.314620 -0.104487
C54   C     C_R   0.162780 0.360481 0.910029 0.368088
C55   C     C_R   0.210682 0.326049 0.946561 -0.235748
C56   C     C_R   0.894809 0.691788 0.634001 -0.247954
C57   C     C_R   0.181589 0.239226 0.902202 -0.199333
C58   C     C_R   0.109796 0.188564 0.817627 -0.059614
C59   C     C_R   0.060681 0.222490 0.779852 0.062862
C60   C     C_R   0.078354 0.303891 0.834563 -0.076001
C61   C     C_R   0.008557 0.322068 0.813840 -0.213947
C62   C     C_R   0.935499 0.273801 0.728926 0.450970
C63   C     C_R   0.931984 0.205773 0.666412 -0.260682
C64   C     C_3   0.192199 0.499980 0.191124 0.027734
C65   C     C_R   0.994124 0.179528 0.690639 -0.159204
C66   C     C_3   0.289218 0.569131 0.243625 -0.171694
C67   C     C_R   0.948307 0.779584 0.677934 -0.285129
C68   C     C_3   0.314606 0.498067 0.228263 -0.185923
C69   C     C_R   0.920860 0.829942 0.648621 0.459504
C70   C     C_R   0.838897 0.789887 0.570930 -0.055340
Cl1   Cl    Cl    0.752994 0.542213 0.504799 -0.601287
H1    H     H_    0.137782 0.503103 0.291304 0.144940
H2    H     H_    0.380353 0.248042 0.508785 0.165963
H3    H     H_    0.319328 0.628829 0.392145 0.155560
H4    H     H_    0.259325 0.433603 0.475621 0.151640
H5    H     H_    0.134285 0.445521 0.484338 0.146128
H6    H     H_    0.034391 0.345531 0.511396 0.161611
H7    H     H_    0.057649 0.231579 0.526657 0.159487
H8    H     H_    0.270250 0.137452 0.512351 0.162812
H9    H     H_    0.135889 0.755839 0.263401 0.160281
H10   H     H_    0.829262 0.565710 0.044699 0.128716
H11   H     H_    0.689995 0.550786 0.038356 0.145623
H12   H     H_    0.011456 0.808538 0.735297 0.181960
H13   H     H_    0.688746 0.651220 0.163535 0.148719
H14   H     H_    0.826164 0.767700 0.293091 0.156536
H15   H     H_    0.317723 0.625882 0.235910 0.164854
H16   H     H_    0.135326 0.866712 0.375562 0.160684
H17   H     H_    0.274025 0.367303 0.005606 0.159977
H18   H     H_    0.218557 0.212409 0.930313 0.175930
H19   H     H_    0.091554 0.122614 0.785186 0.256925
H20   H     H_    0.879926 0.172277 0.599084 0.222230
H21   H     H_    0.367090 0.496566 0.211226 0.140752
H22   H     H_    0.184900 0.371083 0.109882 0.138303
H23   H     H_    0.704883 0.824659 0.424129 0.170240
H24   H     H_    0.187833 0.374058 0.267369 0.135638
H25   H     H_    0.593092 0.705436 0.418023 0.137257
H26   H     H_    0.919584 0.653081 0.653429 0.195105
H27   H     H_    0.111929 0.957937 0.759027 0.337404
H28   H     H_    0.741846 0.264040 0.576683 0.392696
H29   H     H_    0.295413 0.528709 0.071746 0.333087
H30   H     H_    0.790215 0.569912 0.672098 0.180176
H31   H     H_    0.516427 0.414655 0.660820 0.134088
H32   H     H_    0.474617 0.358769 0.751239 0.154250
H33   H     H_    0.587861 0.374502 0.881453 0.143179
H34   H     H_    0.739852 0.442702 0.920169 0.154646
H35   H     H_    0.901507 0.572142 0.786502 0.185327
O1    O     O_R   0.592050 0.539910 0.448690 -0.564692
O2    O     O_R   0.051390 0.091590 0.643040 -0.587882
O3    O     O_R   0.856260 0.908400 0.447890 -0.647477
O4    O     O_R   0.591210 0.643330 0.551330 -0.616811
O5    O     O_R   0.960490 0.908380 0.552100 -0.561588
O6    O     O_R   0.948610 0.908430 0.356980 -0.620273
O7    O     O_R   0.052850 0.908400 0.461190 -0.618318
O8    O     O_R   0.039510 0.091640 0.447910 -0.621409
O9    O     O_R   0.143740 0.091610 0.552120 -0.618439
O10   O     O_R   0.408100 0.448300 0.356370 -0.623178
O11   O     O_R   0.407270 0.551720 0.459020 -0.635955
O12   O     O_R   0.054880 0.643340 0.094680 -0.624273
O13   O     O_R   0.408790 0.356670 0.448670 -0.616655
O14   O     O_R   0.407950 0.460090 0.551310 -0.626291
O15   O     O_R   0.592730 0.448280 0.540980 -0.571387
O16   O     O_R   0.591900 0.551700 0.643630 -0.621881
O17   O     O_R   0.951420 0.539930 0.094700 -0.640173
O18   O     O_2   0.932390 0.985202 0.696457 -0.316420
O19   O     O_2   0.993745 0.954340 0.813346 -0.300086
O20   O     O_3   0.079811 0.981178 0.728812 -0.569074
O21   O     O_2   0.799689 0.286532 0.744209 -0.287238
O22   O     O_2   0.894683 0.394445 0.722515 -0.315724
O23   O     O_R   0.044450 0.448300 0.096090 -0.632863
O24   O     O_3   0.784449 0.242901 0.588233 -0.558078
O25   O     O_2   0.309745 0.472357 0.926822 -0.296226
O26   O     O_2   0.178022 0.481882 0.861203 -0.231197
O27   O     O_3   0.255217 0.538003 0.030048 -0.525910
O28   O     O_R   0.147910 0.551710 0.096070 -0.580564
O29   O     O_R   0.952850 0.356690 0.912870 -0.596429
O30   O     O_R   0.056310 0.460100 0.912850 -0.528814
O31   O     O_R   0.859820 0.448320 0.911480 -0.615120
O32   O     O_R   0.963280 0.551730 0.911460 -0.614889
O33   O     O_R   0.947150 0.091620 0.538830 -0.639090
S1    S     S_3+6 0.980558 0.940558 0.723650 0.009935
S2    S     S_3+6 0.852265 0.301681 0.697435 0.024685
S3    S     S_3+6 0.226782 0.464643 0.930036 0.043973
Zn1   Zn    Zn3+2 0.500560 0.430950 0.431460 1.036983
Zn2   Zn    Zn3+2 0.499440 0.569050 0.568540 0.986009
Zn3   Zn    Zn3+2 0.934790 0.430970 0.003790 1.007597
Zn4   Zn    Zn3+2 0.072940 0.569060 0.003760 1.090425
Zn5   Zn    Zn3+2 0.930400 0.000020 0.430430 0.982307
Zn6   Zn    Zn3+2 0.069600 0.999990 0.569590 1.047491

loop_
_geom_bond_atom_site_label_1
_geom_bond_atom_site_label_2
_ccdc_geom_bond_type
C25   C31   A    
C66   C68   S    
C63   C65   A    
C67   H12   S    
C45   Cl1   S    
O13   Zn1   S    
O15   Zn1   S    
O14   Zn2   S    
O16   Zn2   S    
C41   O8    A    
C7    C70   A    
C23   C52   S    
C54   C60   A    
C67   C69   A    
C12   C68   S    
C12   C23   S    
O33   Zn5   S    
O27   S3    S    
C29   C30   A    
C57   H18   S    
C34   C40   S    
O7    Zn6   S    
O31   Zn3   S    
C39   C53   S    
O8    Zn5   S    
C19   C36   S    
C16   O14   A    
C30   C31   A    
C12   C64   S    
C28   O16   A    
C29   H2    S    
C27   C29   A    
C18   C19   A    
O21   S2    D    
C55   H17   S    
O24   S2    S    
C17   H30   S    
C46   C47   A    
C33   O28   A    
O17   Zn3   S    
C45   C56   A    
C23   H24   S    
C8    C9    A    
O29   Zn3   S    
C37   C65   S    
C11   H34   S    
C13   C14   A    
C36   O31   A    
O23   Zn3   S    
C47   C53   A    
C46   H14   S    
C69   S1    S    
C59   C60   A    
C2    C45   A    
C40   C66   S    
C21   C22   A    
C32   O17   A    
C36   O32   A    
O3    Zn5   S    
C42   H10   S    
C56   H26   S    
C41   O9    A    
C9    C10   A    
C44   C46   A    
C50   C51   A    
O19   S1    D    
O26   S3    D    
O28   Zn4   S    
C4    C34   S    
C13   C19   A    
O12   Zn4   S    
O11   Zn2   S    
C24   C25   A    
C37   O2    A    
C52   C64   S    
C16   O13   A    
C51   H16   S    
C4    O10   A    
C28   O15   A    
C39   O7    A    
C25   C26   A    
C40   C52   S    
O9    Zn6   S    
C20   H4    S    
C60   C61   A    
C1    C3    S    
C64   C66   S    
C43   C44   A    
C18   H35   S    
C62   C63   A    
C52   H1    S    
C1    O4    A    
O10   Zn1   S    
C47   C48   A    
C21   H5    S    
C9    H32   S    
C23   C34   S    
O20   S1    S    
C17   C18   A    
C26   C27   A    
C35   C61   S    
C42   C48   A    
C38   O3    A    
O4    Zn2   S    
C58   H19   S    
O25   S3    D    
C1    O1    A    
C30   H8    S    
C24   H7    S    
C48   C49   A    
C54   S3    S    
C55   C57   A    
C22   C24   A    
C12   H22   S    
C42   C43   A    
C62   S2    S    
C35   O29   A    
C3    C5    A    
C5    H25   S    
H29   O27   S    
O22   S2    D    
C33   O23   A    
C15   C17   A    
C54   C55   A    
C39   O6    A    
C8    C14   A    
C31   C41   S    
H28   O24   S    
O18   S1    D    
C22   H6    S    
C32   O12   A    
C44   H13   S    
C50   H9    S    
C35   O30   A    
C66   H15   S    
C6    C7    A    
C56   C67   A    
O6    Zn5   S    
O32   Zn4   S    
C10   H33   S    
C2    C3    A    
C58   C59   A    
C34   C68   S    
O5    Zn6   S    
C59   C65   A    
C11   C13   A    
C6    H23   S    
C57   C58   A    
C5    C6    A    
C20   C26   A    
C16   C27   S    
C33   C64   S    
C68   H21   S    
C7    C38   S    
C40   H3    S    
C61   C62   A    
C4    O11   A    
O1    Zn1   S    
C69   C70   A    
C32   C49   S    
C10   C11   A    
C15   C28   S    
H27   O20   S    
C20   C21   A    
C49   C50   A    
C37   O33   A    
C63   H20   S    
C43   H11   S    
C14   C15   A    
C51   C53   A    
C38   O5    A    
C2    C70   A    
C8    H31   S    
O30   Zn4   S    
O2    Zn6   S    
