data_mof_unit_22172.cif
_audit_creation_date              2012-12-11T20:44:22-0500
_audit_creation_method            fapswitch 2.2
_symmetry_space_group_name_H-M    P1
_symmetry_Int_Tables_number       1
_space_group_crystal_system       triclinic
_cell_length_a                    8.430541
_cell_length_b                    19.090101
_cell_length_c                    19.001199
_cell_angle_alpha                 102.184599
_cell_angle_beta                  93.869647
_cell_angle_gamma                 92.493276
_cell_volume                      2977.11344351

loop_
_atom_site_label
_atom_site_type_symbol
_atom_type_description
_atom_site_fract_x
_atom_site_fract_y
_atom_site_fract_z
_atom_type_partial_charge
Ba1   Ba    Ba6+2 0.153030 0.533740 0.468880 1.753389
Ba2   Ba    Ba6+2 0.657140 0.466250 0.531070 1.835163
C1    C     C_3   0.340938 0.722612 0.210613 -0.309473
C2    C     C_3   0.390590 0.697426 0.279181 0.330431
C3    C     C_3   0.515701 0.683622 0.625899 0.308557
C4    C     C_3   0.560744 0.763916 0.638743 -0.332554
C5    C     C_3   0.887537 0.289482 0.685078 0.309995
C6    C     C_3   0.876805 0.218075 0.709509 -0.173829
C7    C     C_3   0.423084 0.298967 0.716463 0.265591
C8    C     C_3   0.489610 0.281462 0.786666 -0.318991
C9    C     C_R   0.947617 0.201115 0.461878 -0.198610
C10   C     C_R   0.978174 0.277256 0.479403 -0.031191
C11   C     C_R   0.133922 0.190580 0.559546 -0.199020
C12   C     C_3   0.926219 0.718439 0.303961 0.315430
C13   C     C_R   0.196899 0.259384 0.559218 -0.059395
C14   C     C_R   0.690921 0.802472 0.426717 -0.155241
C15   C     C_R   0.620568 0.736492 0.433337 -0.024047
C16   C     C_R   0.873860 0.797850 0.527887 -0.153154
C17   C     C_R   0.839217 0.722209 0.515516 0.099624
C18   C     C_R   0.012874 0.156204 0.507033 -0.009859
C19   C     C_R   0.100337 0.307598 0.532497 0.124883
C20   C     C_R   0.808840 0.840006 0.479593 -0.015552
C21   C     C_R   0.705928 0.693147 0.470212 -0.244764
C22   C     C_R   0.236654 0.042180 0.527980 -0.057768
C23   C     C_3   0.959607 0.782975 0.270854 -0.272550
C24   C     C_R   0.340441 0.997152 0.553376 -0.066753
C25   C     C_R   0.293580 0.925922 0.546695 -0.013005
C26   C     C_R   0.141544 0.901124 0.516798 0.006309
C27   C     C_R   0.021886 0.948277 0.505858 0.049315
C28   C     C_R   0.071745 0.022877 0.511926 0.058820
C29   C     C_R   0.860220 0.921088 0.484743 0.016772
C30   C     C_R   0.751289 0.972741 0.467761 -0.000641
C31   C     C_R   0.799899 0.048049 0.478302 0.028065
C32   C     C_R   0.961103 0.074952 0.499078 0.017944
C33   C     C_R   0.591334 0.952602 0.439839 -0.144170
C34   C     C_3   0.796985 0.358851 0.300698 0.268930
C35   C     C_R   0.498382 0.998564 0.408948 0.389517
C36   C     C_R   0.539152 0.071406 0.427420 -0.060274
C37   C     C_R   0.680739 0.095642 0.468594 -0.131865
C38   C     C_2   0.603032 0.517456 0.300697 -0.241356
C39   C     C_3   0.676744 0.573786 0.266660 -0.050792
C40   C     C_2   0.619335 0.565625 0.187751 -0.126949
C41   C     C_2   0.484108 0.525099 0.160138 -0.077014
C42   C     C_2   0.402643 0.483240 0.207097 -0.051745
C43   C     C_1   0.464608 0.484718 0.273626 0.042158
C44   C     C_R   0.310131 0.520932 0.945674 0.542216
C45   C     C_3   0.836117 0.337372 0.221609 -0.185912
C46   C     C_R   0.416443 0.523679 0.085216 0.452742
C47   C     C_R   0.379678 0.545889 0.823267 0.366393
C48   C     C_R   0.327682 0.546462 0.749925 0.002214
C49   C     C_R   0.067733 0.489901 0.764969 0.017133
C50   C     C_R   0.120597 0.486406 0.835549 -0.192987
C51   C     C_R   0.269965 0.518400 0.867151 -0.115679
C52   C     C_R   0.165964 0.528098 0.727727 -0.200290
C53   C     C_3   0.986742 0.683587 0.715184 0.293140
C54   C     C_3   0.889782 0.711986 0.780217 -0.315893
C55   C     C_3   0.301925 0.313547 0.362005 0.302551
C56   C     C_3   0.268302 0.232797 0.333646 0.258603
H1    H     H_    0.357744 0.639077 0.270859 0.030888
H2    H     H_    0.819821 0.278063 0.202836 0.143762
H3    H     H_    0.963495 0.352783 0.217872 0.087383
H4    H     H_    0.968858 0.624560 0.701192 -0.077223
H5    H     H_    0.932738 0.689413 0.826826 0.082261
H6    H     H_    0.763653 0.693647 0.764838 0.148201
H7    H     H_    0.192584 0.335643 0.384849 -0.050126
H8    H     H_    0.401676 0.322420 0.404650 0.083215
H9    H     H_    0.215388 0.704652 0.192070 0.143751
H10   H     H_    0.159385 0.223192 0.295821 0.041377
H11   H     H_    0.246769 0.206953 0.379594 -0.057211
H12   H     H_    0.521850 0.707005 0.288175 -0.060490
H13   H     H_    0.417503 0.699601 0.167334 0.102914
H14   H     H_    0.611366 0.653283 0.598606 -0.018993
H15   H     H_    0.403775 0.672322 0.590365 0.090244
H16   H     H_    0.675609 0.777313 0.671645 0.139626
H17   H     H_    0.570358 0.780226 0.586588 0.050518
H18   H     H_    0.469831 0.796176 0.667576 0.185310
H19   H     H_    0.355398 0.782041 0.220319 0.179777
H20   H     H_    0.900768 0.830013 0.300584 0.108551
H21   H     H_    0.779793 0.292280 0.649224 0.090052
H22   H     H_    0.992540 0.290151 0.654351 -0.090923
H23   H     H_    0.857792 0.173748 0.660794 0.037015
H24   H     H_    0.773144 0.215603 0.741885 0.081086
H25   H     H_    0.293200 0.284064 0.710238 0.002094
H26   H     H_    0.444967 0.357696 0.721249 0.084834
H27   H     H_    0.417761 0.306085 0.831325 0.132546
H28   H     H_    0.614327 0.303865 0.799805 0.150322
H29   H     H_    0.981345 0.729878 0.360360 0.074816
H30   H     H_    0.485055 0.222444 0.782128 0.130238
H31   H     H_    0.868113 0.178107 0.414841 0.144026
H32   H     H_    0.187625 0.163840 0.598947 0.131669
H33   H     H_    0.647662 0.824223 0.381521 0.093148
H34   H     H_    0.953568 0.822601 0.574304 0.109504
H35   H     H_    0.658915 0.639374 0.469664 0.050470
H36   H     H_    0.291827 0.090452 0.517871 0.046509
H37   H     H_    0.462949 0.015640 0.570611 0.073573
H38   H     H_    0.379754 0.888838 0.558661 0.091330
H39   H     H_    0.794976 0.712111 0.304501 -0.074222
H40   H     H_    0.122912 0.844393 0.498724 0.117433
H41   H     H_    0.530303 0.903551 0.443807 0.105820
H42   H     H_    0.459051 0.109526 0.412621 0.151410
H43   H     H_    0.696994 0.152057 0.490849 0.141281
H44   H     H_    0.680497 0.597401 0.155578 0.112893
H45   H     H_    0.293804 0.450896 0.186085 0.117615
H46   H     H_    0.044615 0.458997 0.866213 0.146807
H47   H     H_    0.658060 0.509938 0.351713 0.033631
H48   H     H_    0.088970 0.797006 0.274519 0.191873
H49   H     H_    0.123334 0.536236 0.676196 0.099767
H50   H     H_    0.912406 0.771146 0.213332 0.125074
H51   H     H_    0.666118 0.357874 0.304462 0.056161
H52   H     H_    0.851185 0.413658 0.324180 -0.000079
N1    N     N_R   0.371307 0.582800 0.990328 -0.137508
N2    N     N_R   0.424788 0.584009 0.058212 -0.222752
N3    N     N_R   0.347660 0.462385 0.041871 -0.199527
N4    N     N_R   0.296329 0.460925 0.973353 -0.217974
O1    O     O_2   0.114910 0.675240 0.550030 -0.464546
O2    O     O_3   0.340809 0.345558 0.305057 -0.609411
O3    O     O_3   0.988787 0.656810 0.263205 -0.584175
O4    O     O_2   0.695400 0.324710 0.449950 -0.451588
O5    O     O_3   0.942410 0.413600 0.456340 -0.415816
O6    O     O_3   0.455050 0.372170 0.581390 -0.335465
O7    O     O_3   0.860474 0.307591 0.335732 -0.615399
O8    O     O_3   0.370790 0.538810 0.587440 -0.403492
O9    O     O_3   0.868570 0.409120 0.620070 -0.444852
O10   O     O_2   0.732041 0.452312 0.743830 -0.425355
O11   O     O_3   0.902653 0.347444 0.744893 -0.596513
O12   O     O_3   0.867890 0.586390 0.543600 -0.478522
O13   O     O_3   0.439510 0.461180 0.412500 -0.469641
O14   O     O_2   0.623160 0.539640 0.674980 -0.409075
O15   O     O_3   0.495016 0.664775 0.692324 -0.629393
O16   O     O_2   0.505568 0.241288 0.516311 -0.513336
O17   O     O_3   0.498755 0.260259 0.657967 -0.616236
O18   O     O_3   0.355250 0.627820 0.418550 -0.480512
O19   O     O_2   0.318076 0.759311 0.479383 -0.499943
O20   O     O_3   0.926726 0.713367 0.658697 -0.647975
O21   O     O_3   0.314004 0.735623 0.337614 -0.554985
O22   O     O_2   0.187140 0.460320 0.325000 -0.456591
O23   O     O_3   0.941730 0.590880 0.379870 -0.485823
O24   O     O_2   0.982148 0.515961 0.248250 -0.445513
P1    P     P_3+3 0.943060 0.664750 0.570190 1.016999
P2    P     P_3+3 0.360910 0.439170 0.334000 1.030699
P3    P     P_3+3 0.897881 0.581967 0.287157 0.993713
P4    P     P_3+3 0.867240 0.335250 0.429760 1.062618
P5    P     P_3+3 0.893669 0.429042 0.716108 1.035589
P6    P     P_3+3 0.403793 0.716310 0.416390 0.961379
P7    P     P_3+3 0.452405 0.571933 0.678176 1.086996
P8    P     P_3+3 0.413875 0.281318 0.578892 0.994070
C57   C     C_2   0.733627 0.370436 0.171470 0.830414
O25   O     O_2   0.590796 0.354212 0.162043 -0.577438
O26   O     O_R   0.803579 0.416058 0.132208 -0.713609
H53   H     H_    0.723923 0.431899 0.097207 0.325679
C58   C     C_2   0.158357 0.708676 0.735940 0.824241
O27   O     O_2   0.225352 0.747393 0.702232 -0.574697
O28   O     O_R   0.235656 0.693400 0.797887 -0.788576
H54   H     H_    0.346999 0.717147 0.809124 0.356740
C59   C     C_2   0.892561 0.793002 0.805141 0.941511
O29   O     O_2   0.964898 0.832586 0.773961 -0.511344
O30   O     O_R   0.809728 0.823598 0.864169 -0.674219
H55   H     H_    0.752657 0.786306 0.885775 0.314020
S1    S     S_3+6 0.430405 0.191945 0.287462 -0.013925
O31   O     O_2   0.578215 0.202877 0.338094 -0.285379
O32   O     O_2   0.390951 0.112868 0.261151 -0.190073
O33   O     O_3   0.464537 0.228229 0.216241 -0.443985
H56   H     H_    0.362517 0.220256 0.185857 0.354519
C60   C     C_2   0.025005 0.206668 0.753179 0.884922
O34   O     O_2   0.064258 0.247448 0.811153 -0.563045
O35   O     O_R   0.115795 0.148397 0.727887 -0.763304
H57   H     H_    0.212503 0.146140 0.761876 0.320992
S2    S     S_3+6 0.160269 0.401756 0.561135 -0.057498
O36   O     O_2   0.272277 0.414032 0.506518 -0.267944
O37   O     O_2   0.057113 0.464108 0.568336 -0.243247
O38   O     O_3   0.244026 0.410981 0.645458 -0.596178
H58   H     H_    0.180492 0.378632 0.668151 0.247460
S3    S     S_3+6 0.332140 0.964074 0.347936 -0.037822
O39   O     O_2   0.393069 0.932716 0.276220 -0.213862
O40   O     O_2   0.242733 0.905389 0.373024 -0.333115
O41   O     O_3   0.208328 0.028270 0.336547 -0.434202
H59   H     H_    0.185025 0.052702 0.385629 0.302788
S4    S     S_3+6 0.572059 0.581516 0.863911 -0.067562
O42   O     O_2   0.555960 0.656155 0.906976 -0.267639
O43   O     O_2   0.632776 0.535479 0.913959 -0.303029
O44   O     O_3   0.710217 0.586159 0.806153 -0.531255
H60   H     H_    0.812029 0.578947 0.832140 0.343445

loop_
_geom_bond_atom_site_label_1
_geom_bond_atom_site_label_2
_ccdc_geom_bond_type
O18   P6    S    
O38   H58   S    
C8    H27   S    
O6    P8    S    
O30   H55   S    
C11   H32   S    
C59   O30   S    
C39   C40   S    
C17   C21   A    
C57   O25   D    
C55   H8    S    
O22   P2    D    
Ba1   O18   S    
C2    H12   S    
S4    O42   D    
Ba2   O4    S    
C5    C6    S    
Ba2   O9    S    
C42   C43   D    
C8    H30   S    
C24   C25   A    
C31   C37   A    
C19   S2    S    
C52   H49   S    
O17   P8    S    
C15   P6    S    
C6    H24   S    
C60   O34   D    
C57   O26   S    
C22   C24   A    
C12   H29   S    
C16   C17   A    
C3    H14   S    
C56   S1    S    
C36   C37   A    
O14   P7    D    
O16   P8    D    
C53   H4    S    
C2    H1    S    
C34   C45   S    
Ba1   Ba2   S    
Ba1   O5    S    
O8    P7    S    
Ba1   O8    S    
C45   H2    S    
S2    O38   S    
C50   H46   S    
S1    O31   D    
C14   C15   A    
Ba2   O8    S    
C58   O27   D    
C54   H6    S    
O10   P5    D    
C37   H43   S    
Ba1   O22   S    
C41   C46   S    
O15   P7    S    
Ba1   P1    S    
C18   C32   S    
Ba2   O13   S    
C3    O15   S    
S3    O39   D    
C44   N1    A    
C25   H38   S    
C54   C59   S    
C33   H41   S    
C40   H44   S    
C5    H22   S    
C42   H45   S    
C23   H48   S    
C4    H16   S    
C55   O2    S    
S3    O40   D    
C38   C43   D    
O12   P1    S    
C45   C57   S    
C9    C18   A    
C54   H5    S    
C20   C29   S    
C44   N4    A    
C6    H23   S    
C30   C33   A    
S2    O36   D    
C4    H17   S    
Ba1   O12   S    
C36   H42   S    
C6    C60   S    
O20   P1    S    
C28   C32   A    
O44   H60   S    
C35   S3    S    
C23   H20   S    
C43   P2    S    
C49   C50   A    
C1    H13   S    
C41   C42   S    
C39   P3    S    
C35   C36   A    
C22   H36   S    
C9    H31   S    
C29   C30   A    
C15   C21   A    
Ba2   O5    S    
C12   O3    S    
C53   C54   S    
S1    O32   D    
C31   C32   A    
S1    O33   S    
C48   C52   A    
C5    O11   S    
C4    H18   S    
Ba1   P2    S    
C7    H25   S    
C2    O21   S    
Ba2   O12   S    
C48   P7    S    
C56   H10   S    
C38   C39   S    
C46   N2    A    
O1    P1    D    
C11   C13   A    
C34   H52   S    
O35   H57   S    
Ba2   P4    S    
C40   C41   D    
O9    P5    S    
C1    C2    S    
C26   C27   A    
C34   H51   S    
C59   O29   D    
Ba1   O23   S    
C50   C51   A    
C12   H39   S    
C5    H21   S    
N3    N4    A    
C7    C8    S    
S3    O41   S    
C26   H40   S    
C24   H37   S    
O23   P3    S    
O21   P6    S    
O19   P6    D    
C14   C20   A    
N1    N2    A    
C33   C35   A    
C16   C20   A    
C47   S4    S    
O7    P4    S    
C11   C18   A    
C1    H9    S    
Ba1   O13   S    
C55   H7    S    
O4    P4    D    
O24   P3    D    
C45   H3    S    
C13   P8    S    
S4    O43   D    
C9    C10   A    
C56   H11   S    
C53   C58   S    
C49   P5    S    
O33   H56   S    
C53   O20   S    
C49   C52   A    
C16   H34   S    
C30   C31   A    
O41   H59   S    
C34   O7    S    
C27   C29   A    
O26   H53   S    
C8    H28   S    
C55   C56   S    
C3    C4    S    
O11   P5    S    
C47   C51   A    
C7    O17   S    
C10   C19   A    
C44   C51   S    
C60   O35   S    
C10   P4    S    
C58   O28   S    
C12   C23   S    
C3    H15   S    
C22   C28   A    
S4    O44   S    
C7    H26   S    
C27   C28   A    
C21   H35   S    
C13   C19   A    
C14   H33   S    
C17   P1    S    
C47   C48   A    
O13   P2    S    
S2    O37   D    
C25   C26   A    
O5    P4    S    
O3    P3    S    
C46   N3    A    
Ba1   O1    S    
Ba2   O6    S    
O28   H54   S    
C23   H50   S    
Ba2   O14   S    
C38   H47   S    
O2    P2    S    
C1    H19   S    
