data_mof_unit_59092.cif
_audit_creation_date              2012-12-10T19:41:49-0500
_audit_creation_method            fapswitch 2.2
_symmetry_space_group_name_H-M    P1
_symmetry_Int_Tables_number       1
_space_group_crystal_system       triclinic
_cell_length_a                    18.281043
_cell_length_b                    18.370204
_cell_length_c                    18.369779
_cell_angle_alpha                 119.979786
_cell_angle_beta                  90.027263
_cell_angle_gamma                 120.017937
_cell_volume                      4361.29383503

loop_
_atom_site_label
_atom_site_type_symbol
_atom_type_description
_atom_site_fract_x
_atom_site_fract_y
_atom_site_fract_z
_atom_type_partial_charge
C1    C     C_R   0.140560 0.780332 0.140433 0.826273
C2    C     C_R   0.791310 0.108207 0.802996 -0.209500
C3    C     C_R   0.728951 0.054545 0.833677 -0.131672
C4    C     C_R   0.857758 0.219889 0.859836 0.830384
C5    C     C_R   0.678486 0.945138 0.781230 0.172027
C6    C     C_R   0.686494 0.891675 0.696540 -0.184928
C7    C     C_R   0.735407 0.946477 0.662511 0.047642
C8    C     C_3   0.804149 0.941998 0.619315 -0.068253
C9    C     C_3   0.861764 0.060048 0.677208 -0.297326
C10   C     C_R   0.729900 0.499749 0.178540 0.182382
C11   C     C_R   0.805300 0.501796 0.196753 -0.012835
C12   C     C_R   0.552039 0.381980 0.720636 -0.054875
C13   C     C_R   0.834696 0.519559 0.278256 -0.273412
C14   C     C_R   0.784139 0.525437 0.336305 0.222140
C15   C     C_R   0.700971 0.507549 0.309472 -0.015269
C16   C     C_R   0.140321 0.499835 0.860372 0.805487
C17   C     C_R   0.679485 0.503267 0.234015 -0.085304
C18   C     C_3   0.593181 0.441179 0.161049 -0.142038
C19   C     C_3   0.649277 0.433955 0.096663 -0.152369
C20   C     C_R   0.162040 0.946708 0.236721 -0.081158
C21   C     C_R   0.197667 0.892404 0.191266 -0.103004
C22   C     C_R   0.285642 0.946732 0.188992 0.162700
C23   C     C_R   0.646406 0.435820 0.733721 -0.067840
C24   C     C_R   0.336709 0.055365 0.235395 -0.111553
C25   C     C_R   0.303428 0.108688 0.293167 -0.180296
C26   C     C_R   0.214428 0.052564 0.288420 -0.063083
C27   C     C_3   0.172398 0.060299 0.360150 0.138890
C28   C     C_R   0.858955 0.499004 0.138841 0.863665
C29   C     C_3   0.114114 0.941384 0.301927 -0.288635
C30   C     C_R   0.283043 0.578382 0.243896 0.111631
C31   C     C_R   0.194640 0.494905 0.191629 -0.101074
C32   C     C_R   0.160575 0.407323 0.193576 0.162590
C33   C     C_R   0.216034 0.408908 0.248428 -0.283182
C34   C     C_R   0.701096 0.431238 0.784858 -0.037215
C35   C     C_R   0.303960 0.496767 0.302479 -0.089803
C36   C     C_R   0.334458 0.579679 0.297985 0.071592
C37   C     C_3   0.411538 0.689147 0.339072 -0.117411
C38   C     C_3   0.353269 0.687814 0.275862 -0.076007
C39   C     C_R   0.274475 0.586986 0.825069 -0.032285
C40   C     C_R   0.139883 0.498890 0.138899 0.884438
C41   C     C_R   0.196959 0.496676 0.805473 -0.081758
C42   C     C_R   0.174961 0.402031 0.728629 0.221540
C43   C     C_R   0.227901 0.402956 0.672544 -0.256113
C44   C     C_R   0.303585 0.496602 0.693765 -0.069178
C45   C     C_R   0.796154 0.491626 0.803483 -0.092480
C46   C     C_R   0.323732 0.586187 0.770071 -0.102804
C47   C     C_3   0.384303 0.699534 0.817067 -0.215070
C48   C     C_3   0.328965 0.703362 0.881983 0.392272
C49   C     C_R   0.641017 0.501296 0.361183 0.836794
C50   C     C_R   0.359845 0.499476 0.639369 0.814890
C51   C     C_R   0.638620 0.779999 0.640257 0.842594
C52   C     C_R   0.858356 0.498282 0.860109 0.850880
C53   C     C_R   0.359795 0.219964 0.357934 0.847718
C54   C     C_R   0.359989 0.499596 0.360029 0.820145
C55   C     C_R   0.638482 0.498301 0.639799 0.867725
C56   C     C_R   0.834644 0.544466 0.764489 0.149064
C57   C     C_R   0.658490 0.365024 0.813701 -0.037705
C58   C     C_R   0.565771 0.312538 0.799003 0.120275
C59   C     C_R   0.513782 0.325335 0.756767 0.185838
C60   C     C_3   0.980642 0.705756 0.857860 -0.827381
C61   C     C_3   0.700156 0.880491 0.479753 -0.666387
C62   C     C_2   0.879820 0.109322 0.627730 0.509611
C63   C     C_3   0.855531 0.659006 0.493416 -0.812379
C64   C     C_2   0.521600 0.340870 0.148079 0.343029
C65   C     C_2   0.559144 0.505732 0.175333 0.346509
C66   C     C_2   0.622876 0.325755 0.029340 0.413971
C67   C     C_R   0.779758 0.538573 0.706131 0.127340
C68   C     C_2   0.656011 0.485925 0.051485 0.346898
C69   C     C_3   0.370513 0.881534 0.194545 -0.628275
C70   C     C_2   0.707215 0.345381 0.857677 0.416163
C71   C     C_2   0.422271 0.113306 0.222436 0.468805
C72   C     C_3   0.200950 0.106167 0.514056 -0.679196
C73   C     C_2   0.125959 0.112298 0.370685 0.403698
C74   C     C_2   0.015359 0.887336 0.261203 0.585036
C75   C     C_3   0.008363 0.306377 0.186496 -0.667282
C76   C     C_3   0.365202 0.732587 0.476701 -0.702390
C77   C     C_2   0.326581 0.761122 0.321659 0.396516
C78   C     C_R   0.688149 0.491052 0.695188 -0.105439
C79   C     C_3   0.494305 0.142204 0.765833 -0.727097
C80   C     C_2   0.393481 0.698198 0.207015 0.355377
C81   C     C_3   0.127046 0.277126 0.760881 -0.801970
C82   C     C_2   0.375627 0.733954 0.760433 0.446039
C83   C     C_3   0.460935 0.855860 0.016893 -0.721129
C84   C     C_3   0.196324 0.684286 0.810742 -0.760411
C85   C     C_3   0.401370 0.344074 0.815378 -0.787970
C86   C     C_2   0.488484 0.378735 0.667213 0.422177
C87   C     C_3   0.817685 0.504439 0.572156 -0.740819
C88   C     C_2   0.715530 0.113070 0.917994 0.508125
C89   C     C_R   0.787381 0.052541 0.714759 0.175154
C90   C     C_3   0.655434 0.869920 0.864630 -0.624738
H1    H     H_    0.923312 0.094654 0.728036 0.097240
H2    H     H_    0.964080 0.750540 0.846453 0.236705
H3    H     H_    0.053238 0.740201 0.869463 0.237258
H4    H     H_    0.966829 0.711081 0.918559 0.265254
H5    H     H_    0.826596 0.906274 0.497009 0.229944
H6    H     H_    0.687984 0.838939 0.406873 0.218127
H7    H     H_    0.714006 0.956685 0.505802 0.247283
H8    H     H_    0.638484 0.834447 0.489874 0.247080
H9    H     H_    0.919945 0.100898 0.584840 0.050956
H10   H     H_    0.862871 0.534294 0.425006 0.231019
H11   H     H_    0.912216 0.712365 0.483263 0.247791
H12   H     H_    0.897406 0.530585 0.297383 0.149262
H13   H     H_    0.880761 0.675098 0.558249 0.245300
H14   H     H_    0.803326 0.673849 0.496659 0.241947
H15   H     H_    0.451324 0.309907 0.125604 0.086909
H16   H     H_    0.590777 0.581917 0.236901 0.116119
H17   H     H_    0.555846 0.267306 0.980944 0.084721
H18   H     H_    0.596806 0.453677 0.001590 0.089496
H19   H     H_    0.353740 0.911088 0.101645 0.250357
H20   H     H_    0.438290 0.953975 0.237774 0.248776
H21   H     H_    0.377024 0.818186 0.149554 0.239035
H22   H     H_    0.333877 0.862331 0.237380 0.230371
H23   H     H_    0.128664 0.908144 0.331756 0.175893
H24   H     H_    0.730553 0.388618 0.929704 0.070682
H25   H     H_    0.439345 0.179751 0.223762 0.103363
H26   H     H_    0.279919 0.085798 0.435884 0.250565
H27   H     H_    0.255678 0.140677 0.572296 0.242682
H28   H     H_    0.147771 0.026039 0.490781 0.230531
H29   H     H_    0.173786 0.152972 0.536744 0.257340
H30   H     H_    0.147996 0.166158 0.352735 0.090607
H31   H     H_    0.992106 0.906391 0.223330 0.056675
H32   H     H_    0.070379 0.250787 0.103394 0.216685
H33   H     H_    0.025213 0.294932 0.236373 0.214141
H34   H     H_    0.189905 0.341611 0.248824 0.173341
H35   H     H_    0.940137 0.238679 0.138269 0.246656
H36   H     H_    0.007955 0.375944 0.220921 0.254703
H37   H     H_    0.495472 0.800398 0.473123 0.232538
H38   H     H_    0.384741 0.802399 0.542831 0.234856
H39   H     H_    0.362953 0.676943 0.486928 0.215071
H40   H     H_    0.297623 0.698657 0.436341 0.262707
H41   H     H_    0.378016 0.843473 0.361987 0.067921
H42   H     H_    0.479079 0.254709 0.858851 0.216933
H43   H     H_    0.469663 0.100380 0.797515 0.243747
H44   H     H_    0.549482 0.137894 0.744242 0.287329
H45   H     H_    0.472523 0.695432 0.323612 0.141924
H46   H     H_    0.438759 0.103479 0.706271 0.226195
H47   H     H_    0.453876 0.771569 0.227814 0.044605
H48   H     H_    0.073918 0.247537 0.642451 0.231888
H49   H     H_    0.068877 0.201666 0.742587 0.221091
H50   H     H_    0.146969 0.334998 0.833392 0.244512
H51   H     H_    0.182996 0.269954 0.746321 0.236714
H52   H     H_    0.348631 0.680761 0.688248 0.039015
H53   H     H_    0.394750 0.704851 0.978116 0.243695
H54   H     H_    0.485075 0.890757 0.088993 0.253783
H55   H     H_    0.445402 0.903091 0.008674 0.278803
H56   H     H_    0.211369 0.330900 0.614209 0.168657
H57   H     H_    0.516276 0.858047 0.990996 0.232915
H58   H     H_    0.272037 0.784268 0.944838 0.230645
H59   H     H_    0.139611 0.628392 0.818530 0.218456
H60   H     H_    0.202994 0.642174 0.745109 0.240839
H61   H     H_    0.180746 0.735895 0.811841 0.242046
H62   H     H_    0.386566 0.205242 0.733298 0.235105
H63   H     H_    0.432461 0.366740 0.881656 0.251319
H64   H     H_    0.327778 0.302537 0.800515 0.241345
H65   H     H_    0.426954 0.414376 0.817500 0.244191
H66   H     H_    0.480038 0.440778 0.697410 0.071894
H67   H     H_    0.454288 0.728194 0.844697 0.147778
H68   H     H_    0.874191 0.650377 0.690386 0.221129
H69   H     H_    0.884999 0.541851 0.565804 0.213862
H70   H     H_    0.766840 0.477579 0.515204 0.291523
H71   H     H_    0.802516 0.435715 0.568461 0.250084
H72   H     H_    0.723238 0.183296 0.937059 0.137880
H73   H     H_    0.575369 0.908870 0.834717 0.277430
H74   H     H_    0.661757 0.917534 0.935420 0.246948
H75   H     H_    0.722407 0.887039 0.861018 0.229221
H76   H     H_    0.609733 0.787801 0.839623 0.233414
H77   H     H_    0.833991 0.910772 0.637301 0.124148
H78   H     H_    0.948152 0.590458 0.726104 0.246285
N1    N     N_2   0.929138 0.599479 0.781168 -0.313729
N2    N     N_2   0.382305 0.750544 0.971431 -0.328783
N3    N     N_2   0.278191 0.745466 0.883703 -0.260650
N4    N     N_2   0.420793 0.277738 0.746947 -0.308432
N5    N     N_2   0.815716 0.577062 0.654679 -0.327595
N6    N     N_2   0.618127 0.888748 0.811562 -0.281041
N7    N     N_2   0.775057 0.891593 0.522995 -0.273359
N8    N     N_2   0.818950 0.553137 0.422035 -0.307567
N9    N     N_2   0.322287 0.891810 0.141734 -0.277551
N10   N     N_2   0.236344 0.107197 0.443764 -0.274256
N11   N     N_2   0.072230 0.316735 0.139306 -0.288969
N12   N     N_2   0.430790 0.760977 0.434084 -0.302114
N13   N     N_2   0.525357 0.248176 0.829277 -0.349526
N14   N     N_2   0.103234 0.306133 0.709644 -0.280088
O1    O     O_3   0.000000 0.500000 0.000000 -0.523184
O2    O     O_R   0.323450 0.268330 0.384170 -0.653389
O3    O     O_R   0.444860 0.560620 0.384150 -0.644979
O4    O     O_R   0.055050 0.731580 0.115780 -0.638432
O5    O     O_R   0.615780 0.439200 0.555040 -0.599441
O6    O     O_R   0.323420 0.439190 0.384160 -0.658851
O7    O     O_R   0.615760 0.560630 0.676470 -0.675336
O8    O     O_R   0.615740 0.731500 0.676460 -0.629604
O9    O     O_R   0.444900 0.268330 0.384170 -0.623190
O10   O     O_R   0.615750 0.560630 0.384150 -0.670511
O11   O     O_R   0.323430 0.439200 0.555040 -0.635270
O12   O     O_R   0.055090 0.439280 0.823480 -0.612884
O13   O     O_R   0.884220 0.268410 0.823490 -0.555779
O14   O     O_R   0.176520 0.560720 0.944920 -0.633885
O15   O     O_R   0.884200 0.439290 0.115800 -0.627103
O16   O     O_R   0.176530 0.560720 0.115800 -0.596030
O17   O     O_R   0.884180 0.560710 0.944910 -0.648911
O18   O     O_R   0.055100 0.439290 0.115810 -0.635983
O19   O     O_R   0.884190 0.439280 0.823480 -0.585824
O20   O     O_2   0.850463 0.158659 0.635133 -0.516622
O21   O     O_2   0.541308 0.292164 0.159859 -0.550241
O22   O     O_2   0.495439 0.472669 0.117821 -0.587667
O23   O     O_R   0.884180 0.560710 0.115790 -0.596329
O24   O     O_2   0.674491 0.302075 0.028920 -0.574249
O25   O     O_2   0.726926 0.563039 0.069406 -0.524047
O26   O     O_2   0.720565 0.279813 0.813109 -0.569699
O27   O     O_2   0.475359 0.090294 0.212746 -0.559183
O28   O     O_2   0.064607 0.096062 0.401076 -0.593818
O29   O     O_2   0.960637 0.820933 0.269935 -0.542921
O30   O     O_2   0.248322 0.729727 0.313817 -0.596206
O31   O     O_2   0.359754 0.625813 0.128458 -0.529436
O32   O     O_2   0.401197 0.822916 0.795268 -0.561066
O33   O     O_2   0.443473 0.304943 0.589920 -0.574640
O34   O     O_R   0.176500 0.731590 0.115790 -0.613503
O35   O     O_2   0.698084 0.085824 0.967789 -0.559762
O36   O     O_R   0.884220 0.268420 0.944930 -0.661275
O37   O     O_3   0.499960 0.499910 0.499960 -0.490573
O38   O     O_R   0.615770 0.439200 0.384160 -0.609772
O39   O     O_R   0.444870 0.560630 0.676470 -0.662190
O40   O     O_R   0.615730 0.731500 0.555020 -0.640114
Zn1   Zn    Zn3+2 0.956630 0.413250 0.869870 1.059123
Zn2   Zn    Zn3+2 0.130130 0.586750 0.043370 1.010527
Zn3   Zn    Zn3+2 0.956630 0.413250 0.043380 1.000418
Zn4   Zn    Zn3+2 0.956610 0.586750 0.043370 1.024899
Zn5   Zn    Zn3+2 0.543330 0.586660 0.630080 0.957581
Zn6   Zn    Zn3+2 0.543320 0.586660 0.456570 0.949991
Zn7   Zn    Zn3+2 0.369830 0.413160 0.456580 0.971209
Zn8   Zn    Zn3+2 0.543350 0.413170 0.456590 1.038831

loop_
_geom_bond_atom_site_label_1
_geom_bond_atom_site_label_2
_ccdc_geom_bond_type
C81   H50   S    
C84   H60   S    
C50   O39   A    
C1    C21   S    
H26   N10   S    
C56   N1    S    
C27   C29   S    
C29   H23   S    
C69   H21   S    
C41   C42   A    
C2    C4    S    
C61   H8    S    
C61   N7    S    
C27   N10   S    
C72   N10   S    
C66   H17   S    
C63   H11   S    
C84   N3    S    
C88   O35   D    
C9    H1    S    
C61   H6    S    
C7    C8    S    
C39   C41   A    
C49   O10   A    
C1    O4    A    
C42   N14   S    
C18   C65   S    
C79   H46   S    
C12   C23   A    
C26   C27   S    
C40   O16   A    
C58   N13   S    
C75   H33   S    
C60   N1    S    
C55   O7    A    
C36   C37   S    
C25   C53   S    
O2    Zn7   S    
C18   C19   S    
C85   H65   S    
C83   H54   S    
H62   N4    S    
C69   H22   S    
C51   O40   A    
C70   O26   D    
C80   H47   S    
C7    C89   A    
C83   N2    S    
H58   N3    S    
C87   H70   S    
C30   C38   S    
C19   C66   S    
C81   H49   S    
C52   O19   A    
C5    N6    S    
C47   C82   S    
C79   H44   S    
H5    N7    S    
C86   O33   D    
C62   O20   D    
C14   N8    S    
C77   O30   D    
C69   N9    S    
C31   C40   S    
C82   O32   D    
C12   C59   A    
C76   H40   S    
C35   C36   A    
C45   C56   A    
C8    C9    S    
C71   O27   D    
C54   O3    A    
C72   H27   S    
H10   N8    S    
C33   H34   S    
C37   H45   S    
C32   N11   S    
O11   Zn7   S    
C57   C70   S    
C75   N11   S    
O36   Zn3   S    
C82   H52   S    
C85   H64   S    
C86   H66   S    
C60   H3    S    
C81   H51   S    
C23   C78   A    
C73   H30   S    
C83   H55   S    
C21   C22   A    
C90   H76   S    
C35   C54   S    
C28   O23   A    
O5    Zn8   S    
O1    Zn3   S    
O7    Zn5   S    
C67   C78   A    
C81   N14   S    
O37   Zn7   S    
C22   N9    S    
C87   N5    S    
O1    Zn4   S    
C44   C46   A    
C20   C29   S    
C60   H2    S    
H32   N11   S    
C79   H43   S    
C61   H7    S    
C8    N7    S    
C85   N4    S    
C49   O38   A    
C9    C62   S    
C47   C48   S    
C73   O28   D    
C63   N8    S    
C24   C25   A    
C63   H13   S    
C53   O2    A    
C9    C89   S    
C52   O17   A    
C55   C78   S    
O1    Zn2   S    
C29   C74   S    
C40   O18   A    
C45   C52   S    
C3    C5    A    
C25   C26   A    
O3    Zn6   S    
C70   H24   S    
O8    Zn5   S    
C90   H74   S    
C75   H35   S    
C2    C89   A    
O16   Zn2   S    
C43   C44   A    
O34   Zn2   S    
C19   C68   S    
C37   C38   S    
C16   O14   A    
C8    H77   S    
H19   N9    S    
H42   N13   S    
C34   C57   A    
C48   N3    S    
C76   H39   S    
H68   N5    S    
C31   C32   A    
O4    Zn4   S    
O40   Zn6   S    
C10   C19   S    
C23   C34   A    
C1    O34   A    
C17   C18   S    
C71   H25   S    
O23   Zn4   S    
C34   C45   A    
C85   H63   S    
C53   O9    A    
O14   Zn2   S    
C51   O8    A    
C39   C46   A    
C83   H57   S    
H78   N1    S    
C87   H71   S    
C69   H20   S    
C55   O5    A    
C90   H75   S    
C6    C51   S    
C48   N2    S    
O37   Zn6   S    
C42   C43   A    
H37   N12   S    
O37   Zn8   S    
O6    Zn7   S    
C65   H16   S    
C47   H67   S    
C44   C50   S    
C15   C17   A    
C37   N12   S    
O39   Zn5   S    
C46   C47   S    
C64   H15   S    
C3    C88   S    
C64   O21   D    
C77   H41   S    
H53   N2    S    
C63   H14   S    
C76   N12   S    
C6    C7    A    
C38   C77   S    
C30   C36   A    
C56   C67   A    
C68   H18   S    
C90   N6    S    
C80   O31   D    
C4    O36   A    
C28   O15   A    
C12   C86   S    
C74   O29   D    
C75   H36   S    
C32   C33   A    
C2    C3    A    
C58   C59   A    
C43   H56   S    
C27   C73   S    
C84   H59   S    
O13   Zn1   S    
C11   C13   A    
C33   C35   A    
C18   C64   S    
C57   C58   A    
C30   C31   A    
C65   O22   D    
C20   C26   A    
C11   C28   S    
C67   N5    S    
O9    Zn8   S    
C88   H72   S    
C68   O25   D    
C72   H29   S    
C50   O11   A    
C87   H69   S    
C22   C24   A    
O18   Zn3   S    
C15   C49   S    
C66   O24   D    
H48   N14   S    
O17   Zn4   S    
C16   O12   A    
C10   C11   A    
C62   H9    S    
C84   H61   S    
C79   N13   S    
O10   Zn6   S    
C74   H31   S    
C20   C21   A    
C38   C80   S    
O1    Zn1   S    
C72   H28   S    
O38   Zn8   S    
C5    C6    A    
C4    O13   A    
O19   Zn1   S    
C14   C15   A    
O12   Zn1   S    
C54   O6    A    
C10   C17   A    
O37   Zn5   S    
C13   H12   S    
C13   C14   A    
H73   N6    S    
C16   C41   S    
C59   N4    S    
C24   C71   S    
O15   Zn3   S    
C39   C48   S    
C76   H38   S    
C60   H4    S    
