data_mof_unit_27312.cif
_audit_creation_date              2012-12-11T14:33:02-0500
_audit_creation_method            fapswitch 2.2
_symmetry_space_group_name_H-M    P1
_symmetry_Int_Tables_number       1
_space_group_crystal_system       triclinic
_cell_length_a                    6.93361
_cell_length_b                    13.97887
_cell_length_c                    17.80556
_cell_angle_alpha                 113.187326
_cell_angle_beta                  95.741594
_cell_angle_gamma                 90.43808
_cell_volume                      1576.33463322

loop_
_atom_site_label
_atom_site_type_symbol
_atom_type_description
_atom_site_fract_x
_atom_site_fract_y
_atom_site_fract_z
_atom_type_partial_charge
O1    O     O_R   0.484560 0.544530 0.414330 -0.537414
O2    O     O_R   0.197040 0.638810 0.585080 -0.538524
O3    O     O_R   0.026800 0.455470 0.585670 -0.540741
C1    C     C_R   0.374922 0.680709 0.609445 0.694034
O4    O     O_R   0.155000 0.556150 0.414940 -0.543594
O5    O     O_R   0.984450 0.372220 0.414320 -0.536104
C2    C     C_R   0.317638 0.564966 0.386507 0.754716
O6    O     O_R   0.526900 0.627780 0.585680 -0.536928
O7    O     O_3   0.339170 0.439750 0.499990 -0.373259
V1    V     V_3+5 0.064350 0.511180 0.500000 1.374363
O8    O     O_R   0.654880 0.361190 0.414920 -0.542635
C3    C     C_R   0.816590 0.324364 0.386345 0.763645
O9    O     O_R   0.696930 0.443850 0.585060 -0.540298
C4    C     C_R   0.873402 0.430717 0.611060 0.680806
V2    V     V_3+5 0.564340 0.488820 0.500000 1.375618
O10   O     O_3   0.839390 0.560250 0.500010 -0.374368
C5    C     C_R   0.041427 0.865272 0.824072 -0.055012
C6    C     C_R   0.907240 0.394679 0.679211 -0.051739
C7    C     C_R   0.926248 0.825643 0.681650 -0.137851
C8    C     C_R   0.977777 0.792964 0.745014 -0.139061
C9    C     C_R   0.051004 0.972508 0.839312 -0.217917
C10   C     C_R   0.998006 0.008317 0.775202 0.118702
C11   C     C_R   0.936034 0.931723 0.695767 0.125132
C12   C     C_R   0.001787 0.116541 0.786707 -0.010464
C13   C     C_R   0.944975 0.145378 0.718787 0.061929
C14   C     C_R   0.886989 0.064856 0.641383 -0.156381
C15   C     C_R   0.882613 0.960843 0.630446 -0.218748
C16   C     C_R   0.058120 0.196705 0.864111 -0.185870
C17   C     C_R   0.057772 0.301472 0.876788 0.302584
C18   C     C_R   0.010123 0.330905 0.810008 0.017777
C19   C     C_R   0.948864 0.253526 0.730325 0.057883
C20   C     C_R   0.027838 0.436420 0.821276 -0.123296
C21   C     C_R   0.976769 0.467492 0.757074 -0.141042
C22   C     C_R   0.895788 0.288107 0.665481 -0.182882
H1    H     H_    0.835408 0.902147 0.569738 0.115842
H2    H     H_    0.848226 0.234681 0.603506 0.088304
H3    H     H_    0.994586 0.549177 0.768084 0.090688
H4    H     H_    0.876710 0.767441 0.621100 0.136934
H5    H     H_    0.965940 0.710632 0.732412 0.095677
H6    H     H_    0.097110 0.025303 0.901655 0.095626
H7    H     H_    0.842469 0.079421 0.587376 0.119124
H8    H     H_    0.100156 0.180798 0.917729 0.149358
H9    H     H_    0.085911 0.496418 0.879468 0.150238
H10   H     H_    0.114138 0.224383 0.309081 0.155860
H11   H     H_    0.834261 0.034095 0.193319 0.155168
C23   C     C_2   0.136408 0.037864 0.184221 -0.350636
C24   C     C_2   0.972897 0.077782 0.216966 -0.129063
H12   H     H_    0.673624 0.176796 0.294093 0.124748
C25   C     C_2   0.811996 0.220611 0.318186 -0.351626
C26   C     C_2   0.975500 0.180699 0.285431 -0.127233
H13   H     H_    0.274772 0.081690 0.208303 0.125627
C27   C     C_R   0.413707 0.789517 0.677291 -0.062308
C28   C     C_R   0.535347 0.469737 0.824148 -0.053236
C29   C     C_R   0.537497 0.898836 0.819543 -0.120831
C30   C     C_R   0.489471 0.801140 0.757033 0.141757
C31   C     C_R   0.398231 0.882113 0.662207 -0.252052
C32   C     C_R   0.452233 0.983889 0.726317 0.098963
C33   C     C_R   0.518902 0.988974 0.805478 0.084896
C34   C     C_R   0.444289 0.080884 0.715815 0.079312
C35   C     C_R   0.499758 0.178925 0.784608 0.050552
C36   C     C_R   0.559219 0.176920 0.861577 -0.169867
C37   C     C_R   0.569172 0.083931 0.871459 -0.206914
C38   C     C_R   0.383947 0.083221 0.638965 -0.177827
C39   C     C_R   0.375184 0.176577 0.629129 -0.218521
C40   C     C_R   0.427581 0.271411 0.695069 0.123525
C41   C     C_R   0.493432 0.275824 0.774222 0.086517
C42   C     C_R   0.411794 0.362388 0.681617 -0.128243
C43   C     C_R   0.461201 0.458531 0.744761 -0.154272
C44   C     C_R   0.549040 0.377060 0.838717 -0.189437
H14   H     H_    0.618719 0.086433 0.931975 0.122642
H15   H     H_    0.600820 0.386674 0.900462 0.100940
H16   H     H_    0.435755 0.522438 0.728627 0.117013
H17   H     H_    0.325522 0.174527 0.568772 0.117591
H18   H     H_    0.591177 0.904873 0.880690 0.132824
H19   H     H_    0.345975 0.872272 0.600428 0.101326
H20   H     H_    0.600787 0.246294 0.915801 0.136976
H21   H     H_    0.341214 0.013724 0.584937 0.122879
H22   H     H_    0.357344 0.359510 0.621516 0.139556
H23   H     H_    0.333804 0.667057 0.194516 0.155669
H24   H     H_    0.615225 0.590741 0.307900 0.153639
C45   C     C_2   0.314120 0.602147 0.318875 -0.343617
C46   C     C_2   0.476569 0.610813 0.285249 -0.126754
H25   H     H_    0.773343 0.636118 0.206739 0.126873
C47   C     C_2   0.634956 0.655887 0.183618 -0.343305
C48   C     C_2   0.472507 0.647051 0.217184 -0.115210
H26   H     H_    0.175794 0.621976 0.295750 0.126997
O11   O     O_R   0.421600 0.630430 0.917010 -0.535045
O12   O     O_R   0.793840 0.702190 0.087630 -0.543121
O13   O     O_R   0.964010 0.886170 0.088190 -0.536196
C49   C     C_R   0.631284 0.693219 0.116065 0.764662
O14   O     O_R   0.751460 0.619510 0.917500 -0.542670
O15   O     O_R   0.921330 0.802900 0.916840 -0.545798
C50   C     C_R   0.573435 0.577988 0.892134 0.678118
O16   O     O_R   0.464290 0.713700 0.088350 -0.534295
O17   O     O_3   0.609200 0.818520 0.002630 -0.378694
V3    V     V_3+5 0.884140 0.747190 0.002530 1.366141
O18   O     O_R   0.251150 0.814630 0.917340 -0.539005
C51   C     C_R   0.074701 0.827805 0.891453 0.692200
O19   O     O_R   0.293530 0.897310 0.087470 -0.542686
C52   C     C_R   0.131837 0.934089 0.116092 0.762518
V4    V     V_3+5 0.384070 0.769710 0.002370 1.376371
O20   O     O_3   0.109180 0.698190 0.002460 -0.370781
C53   C     C_3   0.514310 0.710189 0.778512 -0.753296
H27   H     H_    0.366235 0.677108 0.774941 0.182889
H28   H     H_    0.609879 0.655605 0.736984 0.183363
H29   H     H_    0.584642 0.732477 0.841765 0.240355
O21   O     O_3   0.106261 0.372994 0.956341 -0.648267
H30   H     H_    0.021194 0.432330 0.966219 0.277484

loop_
_geom_bond_atom_site_label_1
_geom_bond_atom_site_label_2
_ccdc_geom_bond_type
C33   C37   A    
O12   V3    S    
C13   C19   A    
V4    O20   S    
V3    O20   S    
C4    C6    S    
O2    C1    A    
O17   V3    S    
C1    O6    A    
C28   C44   A    
C3    C25   S    
O15   C51   A    
C14   C15   A    
C1    C27   S    
H25   C47   S    
C16   C17   A    
O5    C3    A    
C18   C19   A    
C32   C34   A    
C41   C44   A    
V2    O10   S    
O18   C51   A    
O15   V3    S    
C5    C8    A    
C31   C32   A    
C37   H14   S    
C23   C24   D    
C44   H15   S    
C28   C43   A    
O14   V3    S    
C29   H18   S    
O8    V2    S    
C7    C8    A    
O16   V4    S    
C40   C42   A    
C39   H17   S    
O1    V2    S    
C11   C15   A    
C5    C51   S    
C45   H26   S    
C27   C30   A    
C38   H21   S    
C35   C41   A    
C34   C35   A    
C31   H19   S    
O11   V4    S    
O9    C4    A    
C42   H22   S    
C47   C49   S    
C49   O16   A    
C24   C26   S    
H11   C24   S    
C36   H20   S    
O13   C52   A    
C28   C50   S    
C42   C43   A    
C12   C13   A    
H24   C46   S    
O4    C2    A    
C8    H5    S    
C15   H1    S    
C13   C14   A    
C23   H13   S    
C45   C46   D    
C35   C36   A    
C7    C11   A    
C17   C18   A    
C7    H4    S    
O14   C50   A    
O19   C52   A    
C43   H16   S    
C29   C33   A    
C19   C22   A    
C53   H28   S    
C47   C48   D    
C30   C53   S    
C6    C22   A    
O3    C4    A    
H12   C25   S    
O19   V4    S    
O12   C49   A    
C40   C41   A    
O6    V2    S    
O9    V2    S    
C10   C12   A    
O21   H30   S    
O2    V1    S    
H23   C48   S    
O7    V1    S    
H10   C26   S    
C23   C52   S    
C29   C30   A    
C2    C45   S    
O1    C2    A    
C12   C16   A    
O5    V1    S    
O8    C3    A    
C46   C48   S    
C34   C38   A    
C20   C21   A    
O13   V3    S    
O7    V2    S    
O4    V1    S    
O3    V1    S    
V1    O10   S    
C39   C40   A    
C18   C20   A    
C32   C33   A    
C9    H6    S    
O11   C50   A    
C16   H8    S    
C20   H9    S    
C53   H29   S    
C22   H2    S    
C36   C37   A    
C6    C21   A    
C21   H3    S    
C38   C39   A    
C27   C31   A    
C25   C26   D    
C53   H27   S    
C10   C11   A    
C17   O21   S    
C9    C10   A    
O18   V4    S    
O17   V4    S    
C14   H7    S    
C5    C9    A    
