data_mof_unit_39843.cif
_audit_creation_date              2012-12-10T18:50:54-0500
_audit_creation_method            fapswitch 2.2
_symmetry_space_group_name_H-M    P1
_symmetry_Int_Tables_number       1
_space_group_crystal_system       triclinic
_cell_length_a                    10.66973
_cell_length_b                    9.836651
_cell_length_c                    15.744294
_cell_angle_alpha                 90.106815
_cell_angle_beta                  90.327549
_cell_angle_gamma                 90.021671
_cell_volume                      1652.40309327

loop_
_atom_site_label
_atom_site_type_symbol
_atom_type_description
_atom_site_fract_x
_atom_site_fract_y
_atom_site_fract_z
_atom_type_partial_charge
C1    C     C_R   0.259874 0.499953 0.499790 0.987689
C2    C     C_R   0.934644 0.604404 0.458242 -0.275009
C3    C     C_R   0.871933 0.499946 0.499919 -0.206241
C4    C     C_R   0.127287 0.499773 0.499645 -0.339069
C5    C     C_R   0.573613 0.072152 0.555753 -0.192817
C6    C     C_R   0.573550 0.928238 0.555790 -0.209867
C7    C     C_R   0.499095 0.499854 0.338331 0.909938
C8    C     C_R   0.426662 0.927877 0.443941 0.613529
C9    C     C_R   0.426507 0.071803 0.444030 0.597268
C10   C     C_R   0.739854 0.500006 0.500036 0.913783
C11   C     C_R   0.500538 0.500125 0.661776 0.886928
C12   C     C_3   0.636085 0.539963 0.954153 0.188069
C13   C     C_3   0.391180 0.612919 0.048218 0.169884
C14   C     C_3   0.456343 0.343306 0.048016 0.187567
C15   C     C_3   0.458426 0.355927 0.947582 0.375524
C16   C     C_3   0.397940 0.604323 0.948062 0.431411
C17   C     C_1   0.501516 0.500468 0.750567 -0.131747
C18   C     C_3   0.484996 0.496013 0.083078 0.078042
C19   C     C_3   0.500799 0.500804 0.917683 -0.083820
C20   C     C_3   0.251282 0.593995 0.079113 -0.261179
C21   C     C_3   0.161404 0.713573 0.062445 -0.814154
C22   C     C_3   0.327024 0.272484 0.072890 -0.311080
C23   C     C_3   0.621988 0.535044 0.053617 -0.496430
C24   C     C_3   0.286192 0.261695 0.165848 -0.818097
C25   C     C_3   0.562853 0.235869 0.071967 -0.425079
C26   C     C_3   0.608259 0.223161 0.164466 -0.792688
C27   C     C_3   0.432701 0.762538 0.076071 -0.473230
C28   C     C_3   0.429535 0.798460 0.171092 -0.715335
C29   C     C_3   0.674895 0.686644 0.921336 -0.363429
C30   C     C_3   0.801821 0.742556 0.951467 -0.831621
C31   C     C_3   0.740630 0.438791 0.919641 -0.318006
C32   C     C_3   0.859877 0.419976 0.974247 -0.836532
C33   C     C_1   0.501871 0.500796 0.825824 0.057677
C34   C     C_1   0.487742 0.497536 0.174548 0.034069
C35   C     C_1   0.493264 0.499191 0.249782 -0.211230
C36   C     C_R   0.063805 0.395221 0.541681 0.616408
C37   C     C_R   0.063078 0.604164 0.457542 0.599170
C38   C     C_R   0.935350 0.395228 0.541311 -0.265334
F1    F     F_    0.283041 0.570087 0.911919 -0.609992
F2    F     F_    0.343836 0.324384 0.909902 -0.613240
F3    F     F_    0.353495 0.859641 0.387625 -0.585787
F4    F     F_    0.352719 0.139767 0.388097 -0.627310
F5    F     F_    0.125578 0.295659 0.584531 -0.617750
F6    F     F_    0.124056 0.703345 0.414325 -0.594301
H1    H     H_    0.519636 0.277072 0.919691 0.074650
H2    H     H_    0.063327 0.680012 0.073197 0.232809
H3    H     H_    0.179626 0.799283 0.106664 0.262097
H4    H     H_    0.205725 0.509531 0.046308 0.242773
H5    H     H_    0.248326 0.570964 0.147873 0.189011
H6    H     H_    0.337883 0.181026 0.199934 0.289756
H7    H     H_    0.290493 0.358942 0.200347 0.259062
H8    H     H_    0.186398 0.229503 0.167124 0.243360
H9    H     H_    0.246503 0.311832 0.037066 0.239925
H10   H     H_    0.328576 0.166181 0.048693 0.207120
H11   H     H_    0.673029 0.306683 0.182085 0.239273
H12   H     H_    0.416753 0.705865 0.920649 0.067521
H13   H     H_    0.531745 0.220209 0.210814 0.285190
H14   H     H_    0.662051 0.127124 0.171400 0.235951
H15   H     H_    0.532782 0.132626 0.051319 0.195250
H16   H     H_    0.647852 0.253277 0.034140 0.189171
H17   H     H_    0.424809 0.910711 0.178375 0.245831
H18   H     H_    0.347878 0.754519 0.204245 0.293651
H19   H     H_    0.517277 0.765233 0.202900 0.247231
H20   H     H_    0.526886 0.790035 0.054915 0.189586
H21   H     H_    0.373322 0.838041 0.042301 0.213232
H22   H     H_    0.812542 0.737517 0.021407 0.245428
H23   H     H_    0.652489 0.631312 0.083471 0.192050
H24   H     H_    0.880036 0.688356 0.919985 0.281302
H25   H     H_    0.809331 0.851110 0.932839 0.242761
H26   H     H_    0.677825 0.686012 0.850784 0.193574
H27   H     H_    0.605594 0.765279 0.935868 0.167026
H28   H     H_    0.883619 0.510214 0.013002 0.264734
H29   H     H_    0.848977 0.332803 0.018181 0.233572
H30   H     H_    0.940804 0.396855 0.932576 0.276799
H31   H     H_    0.705042 0.335966 0.906307 0.157290
H32   H     H_    0.771089 0.473484 0.855793 0.205012
H33   H     H_    0.689782 0.464020 0.081989 0.212190
H34   H     H_    0.885540 0.315292 0.574344 0.187272
H35   H     H_    0.884277 0.684319 0.425236 0.193462
H36   H     H_    0.632536 0.126874 0.600306 0.179011
H37   H     H_    0.632391 0.873832 0.600390 0.184496
H38   H     H_    0.168497 0.749943 0.995988 0.289765
N1    N     N_R   0.499970 0.857200 0.499980 -0.163300
N2    N     N_R   0.499970 0.142800 0.499980 -0.153672
O1    O     O_R   0.316750 0.614620 0.499990 -0.539214
O2    O     O_R   0.316750 0.385380 0.499990 -0.529067
O3    O     O_R   0.499990 0.614720 0.377140 -0.578071
O4    O     O_R   0.499990 0.385280 0.377140 -0.584747
O5    O     O_R   0.683220 0.614710 0.500000 -0.632039
O6    O     O_R   0.683220 0.385290 0.500000 -0.632694
O7    O     O_R   0.499980 0.614620 0.622860 -0.627502
O8    O     O_R   0.499980 0.385380 0.622860 -0.602701
Zn1   Zn    Zn3+2 0.499980 0.653120 0.500000 1.027924
Zn2   Zn    Zn3+2 0.499980 0.346880 0.500000 1.040312

loop_
_geom_bond_atom_site_label_1
_geom_bond_atom_site_label_2
_ccdc_geom_bond_type
C24   H8    S    
C4    C36   A    
C12   C29   S    
C8    N1    A    
C9    N2    A    
C14   C18   S    
C26   H11   S    
C32   H28   S    
C15   C19   S    
C12   C23   S    
C9    F4    S    
C20   H5    S    
C13   C18   S    
C4    C37   A    
C29   H26   S    
C32   H30   S    
C5    C6    A    
N1    Zn1   S    
C34   C35   T    
C23   H23   S    
C2    H35   S    
O2    Zn2   S    
O1    Zn1   S    
C11   O8    A    
C7    O3    A    
C7    O4    A    
C3    C38   A    
C8    C9    A    
C25   H16   S    
C28   H17   S    
C24   H7    S    
C6    H37   S    
C24   H6    S    
C17   C33   T    
C30   H22   S    
O6    Zn2   S    
C22   H9    S    
C1    O1    A    
O4    Zn2   S    
C18   C23   S    
C8    F3    S    
C10   O5    A    
C22   H10   S    
C19   C33   S    
C32   H29   S    
C5    N2    A    
C38   H34   S    
C25   C26   S    
C16   H12   S    
C29   C30   S    
C27   H21   S    
O7    Zn1   S    
C18   C34   S    
C31   H31   S    
C31   C32   S    
O8    Zn2   S    
N2    Zn2   S    
C23   H33   S    
C5    H36   S    
C26   H14   S    
C20   H4    S    
C12   C31   S    
C22   C24   S    
C15   H1    S    
C30   H25   S    
C21   H2    S    
C1    O2    A    
C11   C17   S    
C6    N1    A    
C13   C20   S    
C7    C35   S    
C1    C4    S    
C14   C22   S    
C37   F6    S    
C36   C38   A    
C2    C3    A    
C3    C10   S    
C21   H38   S    
C2    C37   A    
C31   H32   S    
C16   C19   S    
O3    Zn1   S    
C12   C19   S    
C14   C25   S    
O5    Zn1   S    
C26   H13   S    
C15   F2    S    
C27   H20   S    
C16   F1    S    
C28   H19   S    
C11   O7    A    
C20   C21   S    
C10   O6    A    
C13   C16   S    
C27   C28   S    
C14   C15   S    
C13   C27   S    
C36   F5    S    
C25   H15   S    
C21   H3    S    
C30   H24   S    
C29   H27   S    
C28   H18   S    
