data_mof_unit_19469.cif
_audit_creation_date              2013-03-05T15:44:33-0500
_audit_creation_method            fapswitch 2.2
_symmetry_space_group_name_H-M    P1
_symmetry_Int_Tables_number       1
_space_group_crystal_system       triclinic
_cell_length_a                    27.7619
_cell_length_b                    10.920568
_cell_length_c                    9.714134
_cell_angle_alpha                 90.134628
_cell_angle_beta                  91.024487
_cell_angle_gamma                 90.799197
_cell_volume                      2944.3223473

loop_
_atom_site_label
_atom_site_type_symbol
_atom_site_description
_atom_site_fract_x
_atom_site_fract_y
_atom_site_fract_z
_atom_type_partial_charge
O1    O     O_R   0.500010 0.321960 0.617040 -0.591711
O2    O     O_R   0.499990 0.321920 0.382900 -0.543654
C1    C     C_R   0.499435 0.265396 0.499930 0.868650
O3    O     O_R   0.430270 0.500040 0.617060 -0.578381
O4    O     O_R   0.430260 0.500000 0.382910 -0.506484
C2    C     C_R   0.407549 0.500459 0.499213 0.815850
Cu1   Cu    Cu3+1 0.500010 0.500020 0.638630 0.993800
Cu2   Cu    Cu3+1 0.499990 0.499980 0.361370 1.062418
O5    O     O_R   0.500010 0.678080 0.617100 -0.581894
O6    O     O_R   0.499990 0.678040 0.382960 -0.565897
O7    O     O_R   0.569740 0.500000 0.617090 -0.571299
O8    O     O_R   0.569730 0.499960 0.382940 -0.545239
C3    C     C_R   0.500695 0.734627 0.500224 0.856587
C4    C     C_R   0.592569 0.502433 0.501123 0.868551
C5    C     C_R   0.177667 0.384410 0.496683 0.547343
O9    O     O_2   0.202386 0.279576 0.483760 -0.519463
N1    N     N_R   0.201837 0.494609 0.502024 -0.467467
C6    C     C_R   0.177586 0.602633 0.511043 0.548813
C7    C     C_R   0.278118 0.553695 0.392828 -0.088898
C8    C     C_R   0.328390 0.555927 0.392486 -0.142399
C9    C     C_R   0.330003 0.443827 0.607644 -0.190754
C10   C     C_R   0.279811 0.442317 0.608392 -0.090008
C11   C     C_R   0.253587 0.496610 0.500678 0.328533
C12   C     C_R   0.101750 0.489718 0.516434 -0.047467
C13   C     C_R   0.127206 0.379898 0.503615 -0.022355
C14   C     C_R   0.101818 0.268337 0.498384 -0.127258
C15   C     C_R   0.127121 0.602244 0.517559 -0.023500
C16   C     C_R   0.354655 0.499594 0.498941 -0.036301
H1    H     H_    0.349547 0.400498 0.691430 0.184999
H2    H     H_    0.261223 0.399047 0.692840 0.158223
H3    H     H_    0.120566 0.182310 0.490628 0.192789
C17   C     C_R   0.645781 0.503475 0.505232 -0.227337
C18   C     C_R   0.974136 0.376149 0.504392 0.066316
C19   C     C_R   0.975867 0.593677 0.575311 -0.081505
C20   C     C_R   0.949683 0.485444 0.538067 0.036724
C21   C     C_R   0.946588 0.272572 0.461741 -0.162289
C22   C     C_R   0.896567 0.275794 0.454614 -0.095211
C23   C     C_R   0.872173 0.381787 0.491223 -0.019904
C24   C     C_R   0.898641 0.486356 0.534697 -0.042331
C25   C     C_R   0.873982 0.592057 0.574012 -0.107121
C26   C     C_R   0.823426 0.592062 0.567182 0.653860
N2    N     N_R   0.798470 0.489684 0.524249 -0.448269
C27   C     C_R   0.821665 0.385929 0.485328 0.626837
C28   C     C_R   0.719530 0.449609 0.630368 0.477137
C29   C     C_R   0.669314 0.454762 0.621795 -0.292914
C30   C     C_R   0.673568 0.549245 0.395236 0.323853
C31   C     C_R   0.723810 0.540568 0.402706 -0.209968
C32   C     C_R   0.746850 0.491837 0.519014 0.157255
O10   O     O_2   0.795894 0.287281 0.441213 -0.487341
C33   C     C_R   0.025213 0.374840 0.511778 0.047176
C34   C     C_R   0.050869 0.487223 0.526868 0.075037
C35   C     C_R   0.026033 0.597712 0.549529 0.078764
C36   C     C_R   0.051709 0.265672 0.501375 -0.182242
H4    H     H_    0.648339 0.419456 0.706178 0.230274
H5    H     H_    0.877057 0.194461 0.420012 0.200841
H6    H     H_    0.962830 0.188715 0.428329 0.155982
H7    H     H_    0.034648 0.176343 0.498702 0.163474
O11   O     O_2   0.202257 0.709966 0.515897 -0.525361
C37   C     C_R   0.101487 0.711547 0.522290 -0.137180
H8    H     H_    0.346684 0.603731 0.310731 0.187628
H9    H     H_    0.258204 0.596741 0.309654 0.158974
H10   H     H_    0.119774 0.799555 0.515599 0.191399
C38   C     C_R   0.950259 0.692122 0.635946 0.383930
C39   C     C_R   0.899976 0.692717 0.626626 -0.161885
O12   O     O_2   0.799304 0.693079 0.604179 -0.480190
C40   C     C_R   0.051641 0.709031 0.534756 -0.098563
H11   H     H_    0.880979 0.770174 0.668104 0.232480
H12   H     H_    0.745445 0.575541 0.319411 0.203882
H13   H     H_    0.033294 0.795143 0.528952 0.191964
C41   C     C_2   0.499220 0.932743 0.386923 -0.122845
C42   C     C_2   0.503276 0.866788 0.502609 -0.285184
H14   H     H_    0.494862 0.887617 0.287601 0.182905
H15   H     H_    0.509662 0.908315 0.602603 0.154313
C43   C     C_2   0.501422 0.066837 0.386902 -0.100191
C44   C     C_2   0.496878 0.133294 0.501879 -0.288154
H16   H     H_    0.506170 0.111516 0.288155 0.189854
H17   H     H_    0.490141 0.092189 0.601026 0.149926
C45   C     C_2   0.484204 0.410328 0.921893 -0.109948
N3    N     N_2   0.499480 0.498660 0.846910 -0.301778
H18   H     H_    0.473250 0.325550 0.871541 0.211019
H19   H     H_    0.505578 0.581655 0.895190 0.204777
C46   C     C_2   0.473299 0.427113 0.071326 0.471046
N4    N     N_2   0.499460 0.498630 0.153040 -0.339388
H20   H     H_    0.530344 0.534551 0.110837 0.194248
S1    S     S_3+6 0.976766 0.800102 0.753185 0.005139
O13   O     O_2   0.984295 0.920482 0.681343 -0.320566
O14   O     O_2   0.943168 0.819414 0.870742 -0.237110
O15   O     O_3   0.029537 0.749753 0.817524 -0.522704
H21   H     H_    0.042888 0.819025 0.872831 0.381899
N5    N     N_R   0.651924 0.609966 0.279126 0.141754
O16   O     O_R   0.669207 0.594478 0.156755 -0.305212
O17   O     O_R   0.621180 0.696964 0.298484 -0.339652
S2    S     S_3+6 0.417720 0.358009 0.118952 0.023605
O18   O     O_2   0.421703 0.282812 0.247440 -0.274052
O19   O     O_2   0.381662 0.457354 0.138542 -0.309350
O20   O     O_3   0.397187 0.265901 0.991070 -0.568869
H22   H     H_    0.364003 0.242423 0.017276 0.383933
S3    S     S_3+6 0.747298 0.390165 0.780857 0.060108
O21   O     O_2   0.770825 0.271062 0.746683 -0.236655
O22   O     O_2   0.784974 0.479226 0.834231 -0.252705
O23   O     O_3   0.706202 0.365846 0.903383 -0.505913
H23   H     H_    0.724867 0.335731 0.984008 0.395450

loop_
_geom_bond_atom_site_label_1
_geom_bond_atom_site_label_2
_geom_bond_distance
_ccdc_geom_bond_type
S2    O18   1.498970 D    
Cu2   N4    2.023553 S    
C26   N2    1.367410 A    
C20   C24   1.416987 A    
C7    C8    1.395580 A    
C12   C15   1.407766 A    
Cu1   Cu2   2.693330 S    
S1    O13   1.503598 D    
Cu1   O7    1.950829 S    
N1    C11   1.436842 S    
C43   H16   1.086522 S    
C21   C22   1.390114 A    
C37   C40   1.391170 A    
C23   C24   1.409102 A    
O7    C4    1.302540 A    
C45   H18   1.083317 S    
C5    C13   1.403880 A    
C40   H13   1.076820 S    
C5    O9    1.349708 S    
C18   C21   1.413614 A    
C5    N1    1.370081 A    
C19   C20   1.421609 A    
C17   C29   1.406427 A    
O5    C3    1.294008 A    
C28   S3    1.769430 S    
C6    O11   1.349593 S    
C2    C16   1.468283 S    
N4    H20   1.030062 S    
C41   C43   1.464808 S    
C41   C42   1.340113 D    
C8    H8    1.081742 S    
C1    C44   1.443577 S    
C12   C34   1.417888 A    
C14   H3    1.083447 S    
S2    O19   1.500479 D    
C46   S2    1.777373 S    
C9    C10   1.393420 A    
C38   S1    1.780061 S    
O3    Cu1   1.943698 S    
C33   C34   1.416348 A    
S1    O14   1.503664 D    
C33   C36   1.413905 A    
C43   C44   1.339356 D    
C34   C35   1.416727 A    
O23   H23   0.990711 S    
C12   C13   1.406900 A    
O3    C2    1.297191 A    
C24   C25   1.405800 A    
N3    H19   1.030039 S    
C36   H7    1.078532 S    
C45   N3    1.282137 D    
C27   O10   1.349622 S    
C26   O12   1.349791 S    
C8    C16   1.402882 A    
C13   C14   1.399328 A    
C9    H1    1.083483 S    
O1    C1    1.292975 A    
C7    C11   1.402423 A    
C39   H11   1.083718 S    
C22   C23   1.397669 A    
C21   H6    1.078260 S    
C45   C46   1.499476 S    
N5    O17   1.301528 A    
C31   C32   1.398326 A    
Cu2   O8    1.943692 S    
O20   H22   0.990619 S    
N1    C6    1.369797 A    
N2    C32   1.433590 S    
C44   H17   1.081767 S    
C25   C26   1.403908 A    
C9    C16   1.404136 A    
O8    C4    1.301574 A    
C29   H4    1.082568 S    
C46   N4    1.314604 D    
S2    O20   1.683072 S    
S3    O22   1.502890 D    
N2    C27   1.366929 A    
C14   C36   1.391841 A    
C31   H12   1.083412 S    
C35   C40   1.408611 A    
C28   C29   1.397018 A    
Cu1   N3    2.023663 S    
S1    O15   1.682424 S    
Cu1   O5    1.956221 S    
C30   C31   1.399949 A    
C37   H10   1.083308 S    
C10   H2    1.082922 S    
O1    Cu1   1.955304 S    
C17   C30   1.416997 A    
O2    Cu2   1.956221 S    
C6    C15   1.403525 A    
C4    C17   1.476979 S    
O6    C3    1.294380 A    
O4    Cu2   1.950832 S    
C30   N5    1.436433 S    
S3    O23   1.682382 S    
C3    C42   1.444155 S    
C19   C35   1.419556 A    
C25   C39   1.397293 A    
O2    C1    1.295116 A    
C18   C33   1.418822 A    
C23   C27   1.403691 A    
C15   C37   1.399273 A    
N5    O16   1.301395 A    
O4    C2    1.303646 A    
C7    H9    1.082812 S    
C19   C38   1.428794 A    
C18   C20   1.421670 A    
C38   C39   1.397361 A    
C22   H5    1.083470 S    
O15   H21   0.990683 S    
Cu2   O6    1.955304 S    
S3    O21   1.502667 D    
C42   H15   1.081740 S    
C10   C11   1.401486 A    
C41   H14   1.086418 S    
C28   C32   1.407096 A    
