data_mof_unit_33837.cif
_audit_creation_date              2013-03-05T16:45:33-0500
_audit_creation_method            fapswitch 2.2
_symmetry_space_group_name_H-M    P1
_symmetry_Int_Tables_number       1
_space_group_crystal_system       triclinic
_cell_length_a                    15.817176
_cell_length_b                    10.704072
_cell_length_c                    9.852731
_cell_angle_alpha                 89.735214
_cell_angle_beta                  90.451193
_cell_angle_gamma                 90.113644
_cell_volume                      1668.0753616

loop_
_atom_site_label
_atom_site_type_symbol
_atom_site_description
_atom_site_fract_x
_atom_site_fract_y
_atom_site_fract_z
_atom_type_partial_charge
O1    O     O_R   0.500010 0.316790 0.614690 -0.613816
O2    O     O_R   0.500000 0.316760 0.385350 -0.577719
C1    C     C_R   0.503228 0.260243 0.500282 0.936709
O3    O     O_R   0.378030 0.499990 0.614640 -0.612838
O4    O     O_R   0.378020 0.499950 0.385300 -0.615550
C2    C     C_R   0.339351 0.499512 0.499490 0.914215
Zn1   Zn    Zn3+2 0.500010 0.500020 0.653130 0.967094
Zn2   Zn    Zn3+2 0.499990 0.499980 0.346870 0.985235
O5    O     O_R   0.500000 0.683240 0.614650 -0.624760
O6    O     O_R   0.499990 0.683210 0.385310 -0.590007
O7    O     O_R   0.621980 0.500050 0.614700 -0.619135
O8    O     O_R   0.621970 0.500010 0.385360 -0.620767
C3    C     C_R   0.499185 0.739749 0.499529 0.930641
C4    C     C_R   0.660716 0.499893 0.500610 0.880797
H1    H     H_    0.080324 0.298799 0.440113 0.209343
C5    C     C_R   0.956685 0.375727 0.474914 0.344271
C6    C     C_R   0.913048 0.484718 0.513208 -0.043303
C7    C     C_R   0.956187 0.593301 0.551001 -0.323828
H2    H     H_    0.921848 0.676692 0.579349 0.182633
C8    C     C_R   0.043895 0.595553 0.550461 0.514330
C9    C     C_R   0.087287 0.489606 0.506628 -0.025265
C10   C     C_R   0.044740 0.380342 0.470560 -0.317340
C11   C     C_1   0.824043 0.490484 0.507236 0.063318
C12   C     C_1   0.176157 0.492166 0.500879 0.044288
C13   C     C_1   0.250993 0.495688 0.498843 -0.148554
C14   C     C_1   0.749174 0.495578 0.502868 -0.149891
C15   C     C_R   0.464834 0.064370 0.605840 0.094412
C16   C     C_R   0.503797 0.128078 0.499538 -0.289787
C17   C     C_R   0.536559 0.063449 0.387413 0.452464
C18   C     C_R   0.528218 0.934694 0.383838 -0.270782
H3    H     H_    0.553035 0.884187 0.297844 0.181354
C19   C     C_R   0.495912 0.871488 0.496540 -0.140740
C20   C     C_R   0.461386 0.936548 0.604468 0.058783
C21   C     C_3   0.480406 0.925141 0.752640 -0.549037
C22   C     C_3   0.486322 0.066789 0.754468 0.325740
H4    H     H_    0.425754 0.886404 0.809448 0.227471
H5    H     H_    0.541984 0.878952 0.774352 0.180902
H6    H     H_    0.550973 0.105049 0.773830 0.062495
C23   C     C_R   0.452185 0.582887 0.070305 0.172786
N1    N     N_R   0.499440 0.499140 0.142800 -0.132575
C24   C     C_R   0.552978 0.423240 0.072983 -0.135710
H7    H     H_    0.593918 0.360475 0.128228 0.184118
C25   C     C_R   0.553229 0.423450 0.928946 -0.111615
H8    H     H_    0.594787 0.360850 0.875366 0.142999
N2    N     N_R   0.499440 0.499180 0.857150 -0.093305
C26   C     C_R   0.451812 0.582267 0.927574 0.154200
C27   C     C_3   0.357984 0.594334 0.919655 -0.577669
C28   C     C_3   0.357931 0.594980 0.073999 0.103656
H9    H     H_    0.338439 0.684191 0.871936 0.216583
H10   H     H_    0.326923 0.510129 0.876166 0.208764
H11   H     H_    0.325763 0.513206 0.120945 0.122356
N3    N     N_R   0.329253 0.714556 0.128348 0.236090
O9    O     O_R   0.248933 0.740288 0.127432 -0.382190
O10   O     O_R   0.382301 0.794543 0.180405 -0.398493
N4    N     N_R   0.913319 0.261696 0.439390 0.207304
O11   O     O_R   0.949597 0.180189 0.361498 -0.392705
O12   O     O_R   0.841763 0.232290 0.495558 -0.431143
O13   O     O_3   0.086871 0.704284 0.582324 -0.582619
C29   C     C_3   0.103965 0.704603 0.723195 0.080501
H12   H     H_    0.135493 0.616543 0.757096 0.138321
H13   H     H_    0.044344 0.717113 0.780891 0.154565
C30   C     C_3   0.163219 0.812611 0.756098 -0.716648
H14   H     H_    0.133684 0.902562 0.725395 0.265794
H15   H     H_    0.176617 0.814516 0.866858 0.239261
H16   H     H_    0.223772 0.801168 0.701144 0.248096
O14   O     O_3   0.579819 0.125904 0.285573 -0.618866
C31   C     C_3   0.666715 0.095249 0.294940 0.078095
H17   H     H_    0.677700 0.999224 0.256269 0.143093
H18   H     H_    0.690814 0.101748 0.401466 0.176825
C32   C     C_3   0.717953 0.185456 0.208713 -0.738599
H19   H     H_    0.713281 0.281390 0.250379 0.254574
H20   H     H_    0.785440 0.157099 0.209923 0.260064
H21   H     H_    0.694443 0.184535 0.102190 0.220724
O15   O     O_3   0.421097 0.123372 0.829494 -0.575146
C33   C     C_3   0.443717 0.123808 0.968572 0.141714
H22   H     H_    0.506846 0.167482 0.985449 0.136329
H23   H     H_    0.444685 0.026889 0.009979 0.179605
C34   C     C_3   0.378961 0.198802 0.047045 -0.727177
H24   H     H_    0.315486 0.155220 0.036576 0.260199
H25   H     H_    0.396941 0.201216 0.156213 0.232147
H26   H     H_    0.376364 0.296001 0.007392 0.232323

loop_
_geom_bond_atom_site_label_1
_geom_bond_atom_site_label_2
_geom_bond_distance
_ccdc_geom_bond_type
N4    O11   1.301741 A    
C22   O15   1.412896 S    
C21   H5    1.111983 S    
C24   H7    1.076927 S    
C3    C19   1.411360 S    
C33   H22   1.113334 S    
C27   H9    1.111962 S    
N2    C26   1.362549 A    
C15   C20   1.369317 A    
Zn1   O7    1.968948 S    
C6    C11   1.410042 S    
Zn1   N2    2.010224 S    
C16   C17   1.408925 A    
C21   C22   1.519086 S    
C18   H3    1.083766 S    
O7    C4    1.284475 A    
C34   H25   1.110801 S    
C2    C13   1.398056 S    
C7    H2    1.084627 S    
C11   C14   1.186016 T    
O5    C3    1.282976 A    
C30   H15   1.110300 S    
H1    C10   1.084276 S    
C5    C6    1.411093 A    
C32   H19   1.110482 S    
C17   C18   1.384822 A    
C7    C8    1.387498 A    
O14   C31   1.415904 S    
C29   H12   1.115831 S    
C9    C10   1.394282 A    
C24   C25   1.419186 A    
O3    Zn1   1.963363 S    
N3    O10   1.301762 A    
C20   C21   1.492746 S    
C27   H10   1.111696 S    
C28   H11   1.112304 S    
C29   H13   1.113585 S    
O15   C33   1.413532 S    
C31   H17   1.112302 S    
C22   H6    1.116150 S    
C12   C13   1.184548 T    
O3    C2    1.284765 A    
C23   N1    1.364105 A    
C34   H24   1.110505 S    
C15   C22   1.501036 S    
O13   C29   1.411978 S    
C31   H18   1.116250 S    
C25   H8    1.081779 S    
C30   H14   1.110713 S    
C33   H23   1.113097 S    
C27   C28   1.520770 S    
Zn2   O8    1.963363 S    
C32   H21   1.110783 S    
C6    C7    1.397136 A    
C4    C14   1.399995 S    
C25   N2    1.367223 A    
C23   C26   1.406300 A    
N1    C24   1.366536 A    
O8    C4    1.286099 A    
N4    O12   1.301226 A    
C8    O13   1.382777 S    
N3    O9    1.300439 A    
Zn1   O5    1.995790 S    
C26   C27   1.491372 S    
C1    C16   1.414807 S    
C29   C30   1.521353 S    
C5    C10   1.394556 A    
C30   H16   1.111187 S    
O1    Zn1   1.999257 S    
O2    Zn2   1.995788 S    
O6    C3    1.280407 A    
O4    Zn2   1.968948 S    
C31   C32   1.520228 S    
C19   C20   1.389780 A    
O2    C1    1.282096 A    
C5    N4    1.442114 S    
C18   C19   1.397325 A    
C34   H26   1.110387 S    
O4    C2    1.284797 A    
C21   H4    1.111987 S    
C33   C34   1.520780 S    
C17   O14   1.387350 S    
C28   N3    1.463970 S    
C8    C9    1.398551 A    
Zn2   O6    1.999258 S    
C9    C12   1.407465 S    
C15   C16   1.394175 A    
C32   H20   1.110305 S    
Zn2   N1    2.010659 S    
O1    C1    1.283334 A    
C23   C28   1.497448 S    
