data_mof_unit_48259.cif
_audit_creation_date              2012-12-10T17:15:07-0500
_audit_creation_method            fapswitch 2.2
_symmetry_space_group_name_H-M    P1
_symmetry_Int_Tables_number       1
_space_group_crystal_system       triclinic
_cell_length_a                    10.335938
_cell_length_b                    10.888733
_cell_length_c                    12.931807
_cell_angle_alpha                 91.078227
_cell_angle_beta                  93.095929
_cell_angle_gamma                 94.179983
_cell_volume                      1449.04541605

loop_
_atom_site_label
_atom_site_type_symbol
_atom_type_description
_atom_site_fract_x
_atom_site_fract_y
_atom_site_fract_z
_atom_type_partial_charge
C1    C     C_R   0.445982 0.268484 0.494243 0.930977
C2    C     C_R   0.664788 0.454151 0.045541 -0.015606
C3    C     C_R   0.346429 0.539911 0.848361 -0.203441
C4    C     C_R   0.653567 0.460126 0.151640 -0.202970
C5    C     C_R   0.566598 0.477425 0.873001 -0.239714
C6    C     C_R   0.433408 0.522636 0.127003 -0.239595
C7    C     C_R   0.558523 0.482615 0.979367 0.104834
C8    C     C_R   0.441475 0.517441 0.020637 0.105102
C9    C     C_2   0.415526 0.137636 0.494449 -0.337874
C10   C     C_2   0.583240 0.862472 0.514845 -0.339276
C11   C     C_2   0.511829 0.065383 0.512809 -0.135368
C12   C     C_R   0.553764 0.731530 0.507668 0.932384
C13   C     C_2   0.485268 0.934862 0.510014 -0.137791
C14   C     C_1   0.214272 0.582380 0.992597 0.193197
C15   C     C_1   0.785716 0.417655 0.007404 0.193006
C16   C     C_1   0.875584 0.595089 0.421851 0.408284
C17   C     C_1   0.124390 0.404649 0.577919 0.408697
C18   C     C_2   0.072802 0.491271 0.506832 -0.029718
C19   C     C_2   0.927189 0.508648 0.493098 -0.029215
C20   C     C_R   0.475859 0.503482 0.698063 0.879831
C21   C     C_R   0.524142 0.496530 0.301939 0.882708
C22   C     C_R   0.537989 0.493550 0.191876 -0.073673
C23   C     C_R   0.462012 0.506488 0.808127 -0.072650
C24   C     C_R   0.335207 0.545896 0.954461 -0.015712
H1    H     H_    0.345078 0.549057 0.159803 0.208245
H2    H     H_    0.263777 0.775439 0.268220 0.364880
H3    H     H_    0.654940 0.451026 0.840206 0.208620
H4    H     H_    0.734710 0.437439 0.202694 0.180599
H5    H     H_    0.265281 0.562585 0.797306 0.180607
H6    H     H_    0.384342 0.898211 0.501322 0.226319
H7    H     H_    0.612068 0.102038 0.527525 0.230968
H8    H     H_    0.683882 0.899740 0.523518 0.179882
H9    H     H_    0.315598 0.100326 0.479522 0.180000
H10   H     H_    0.736506 0.226127 0.733091 0.364058
N1    N     N_2   0.162330 0.550370 0.457540 0.026179
N2    N     N_2   0.837670 0.449630 0.542460 0.027126
N3    N     N_1   0.117610 0.611703 0.023037 -0.122092
N4    N     N_1   0.882371 0.388319 0.976961 -0.122171
N5    N     N_1   0.831764 0.664129 0.365050 -0.118822
N6    N     N_1   0.168197 0.335499 0.634624 -0.119091
O1    O     O_R   0.567930 0.307680 0.508550 -0.557122
O2    O     O_2   0.940812 0.391838 0.726603 -0.323048
O3    O     O_3   0.714795 0.285917 0.679241 -0.518066
O4    O     O_2   0.059646 0.609112 0.273524 -0.323324
O5    O     O_2   0.082074 0.770803 0.412103 -0.319354
O6    O     O_3   0.285415 0.715087 0.321661 -0.512014
O7    O     O_R   0.432070 0.692320 0.491450 -0.556517
O8    O     O_R   0.351090 0.340020 0.481290 -0.644931
O9    O     O_R   0.648910 0.659980 0.518710 -0.645043
O10   O     O_R   0.590490 0.486480 0.665020 -0.559458
O11   O     O_R   0.409510 0.513520 0.334980 -0.559482
O12   O     O_R   0.373660 0.518820 0.637760 -0.661538
O13   O     O_R   0.626340 0.481180 0.362240 -0.660275
O14   O     O_2   0.917711 0.229334 0.588682 -0.319297
S1    S     S_3+6 0.858063 0.337968 0.635269 0.093631
S2    S     S_3+6 0.142047 0.662564 0.365187 0.094634
Zn1   Zn    Zn3+2 0.644780 0.478400 0.518200 1.055027
Zn2   Zn    Zn3+2 0.355220 0.521600 0.481800 1.054456

loop_
_geom_bond_atom_site_label_1
_geom_bond_atom_site_label_2
_ccdc_geom_bond_type
C2    C4    A    
C15   N4    T    
O8    Zn2   S    
C20   O10   A    
O2    S1    D    
C9    C11   D    
C18   N1    D    
O4    S2    D    
C3    C23   A    
C2    C7    A    
C5    C23   A    
C20   C23   S    
C12   O9    A    
O1    Zn1   S    
C7    C8    A    
C1    O8    A    
N2    S1    S    
C21   C22   S    
O7    Zn2   S    
C21   O13   A    
C2    C15   S    
C11   C13   S    
C3    H5    S    
C3    C24   A    
O12   Zn2   S    
C14   C24   S    
C9    H9    S    
N1    Zn2   S    
C10   C12   S    
O3    S1    S    
C4    H4    S    
O13   Zn1   S    
C17   C18   S    
C19   N2    D    
C12   O7    A    
C16   C19   S    
C6    H1    S    
H2    O6    S    
C16   N5    T    
C11   H7    S    
C6    C22   A    
C1    C9    S    
C10   H8    S    
C13   H6    S    
C21   O11   A    
O9    Zn1   S    
C20   O12   A    
N2    Zn1   S    
O11   Zn2   S    
C5    C7    A    
C4    C22   A    
O14   S1    D    
C18   C19   S    
C6    C8    A    
C8    C24   A    
N1    S2    S    
C5    H3    S    
O10   Zn1   S    
C17   N6    T    
H10   O3    S    
C1    O1    A    
O5    S2    D    
C14   N3    T    
C10   C13   D    
O6    S2    S    
