data_mof_unit_14890.cif
_audit_creation_date              2012-12-11T17:36:18-0500
_audit_creation_method            fapswitch 2.2
_symmetry_space_group_name_H-M    P1
_symmetry_Int_Tables_number       1
_space_group_crystal_system       triclinic
_cell_length_a                    25.808069
_cell_length_b                    6.90288
_cell_length_c                    21.741824
_cell_angle_alpha                 89.999659
_cell_angle_beta                  96.179124
_cell_angle_gamma                 90.001302
_cell_volume                      3850.8030701

loop_
_atom_site_label
_atom_site_type_symbol
_atom_type_description
_atom_site_fract_x
_atom_site_fract_y
_atom_site_fract_z
_atom_type_partial_charge
O1    O     O_R   0.208650 0.594520 0.175450 -0.538957
O2    O     O_R   0.791350 0.405480 0.824550 -0.533009
O3    O     O_R   0.291350 0.094520 0.324550 -0.538941
O4    O     O_R   0.708650 0.905480 0.675450 -0.532998
O5    O     O_R   0.192980 0.260780 0.300160 -0.505960
O6    O     O_R   0.807020 0.739220 0.699840 -0.507525
O7    O     O_R   0.307020 0.760780 0.199840 -0.505961
O8    O     O_R   0.692980 0.239220 0.800160 -0.507524
C1    C     C_R   0.178620 0.432431 0.318279 0.714873
C2    C     C_R   0.820924 0.567631 0.681193 0.717408
C3    C     C_R   0.321381 0.932435 0.181723 0.714872
C4    C     C_R   0.679077 0.067628 0.818809 0.717405
O9    O     O_R   0.202550 0.264660 0.174420 -0.537756
O10   O     O_R   0.797450 0.735340 0.825580 -0.541303
O11   O     O_R   0.297450 0.764660 0.325580 -0.537770
O12   O     O_R   0.702550 0.235340 0.674420 -0.541313
O13   O     O_R   0.300990 0.096480 0.197920 -0.546995
O14   O     O_R   0.699010 0.903520 0.802080 -0.547379
O15   O     O_R   0.199010 0.596480 0.302080 -0.546998
O16   O     O_R   0.800990 0.403520 0.697920 -0.547381
C5    C     C_R   0.191039 0.433488 0.151147 0.702060
C6    C     C_R   0.808841 0.566582 0.848940 0.705807
C7    C     C_R   0.308960 0.933492 0.348853 0.702061
C8    C     C_R   0.691158 0.066578 0.651061 0.705790
O17   O     O_3   0.282290 0.427760 0.257860 -0.360577
O18   O     O_3   0.717710 0.572240 0.742140 -0.365389
O19   O     O_3   0.217710 0.927760 0.242140 -0.360583
O20   O     O_3   0.782290 0.072240 0.757860 -0.365393
V1    V     V_3+5 0.244010 0.152080 0.248540 1.478536
V2    V     V_3+5 0.755990 0.847920 0.751460 1.467067
V3    V     V_3+5 0.255990 0.652080 0.251460 1.478524
V4    V     V_3+5 0.744010 0.347920 0.748540 1.467061
C9    C     C_R   0.658593 0.059866 0.590882 -0.046072
C10   C     C_R   0.341609 0.940509 0.408983 -0.046344
C11   C     C_R   0.841406 0.559905 0.909119 -0.046078
C12   C     C_R   0.158388 0.440470 0.091017 -0.046350
C13   C     C_R   0.647795 0.097544 0.479444 -0.169122
C14   C     C_R   0.352360 0.904867 0.520490 -0.169331
C15   C     C_R   0.852231 0.598148 0.020537 -0.169138
C16   C     C_R   0.147610 0.404250 0.979531 -0.169347
C17   C     C_R   0.680262 0.097509 0.535246 0.148214
C18   C     C_R   0.319791 0.907150 0.464775 0.154329
C19   C     C_R   0.819754 0.597909 0.964741 0.148256
C20   C     C_R   0.180189 0.406732 0.035237 0.154351
C21   C     C_R   0.604773 0.023720 0.589463 -0.262769
C22   C     C_R   0.395601 0.972666 0.410235 -0.257618
C23   C     C_R   0.895217 0.523566 0.910548 -0.262806
C24   C     C_R   0.104405 0.472830 0.089759 -0.257656
C25   C     C_R   0.571163 0.026131 0.533020 0.088479
C26   C     C_R   0.429208 0.970612 0.466686 0.086537
C27   C     C_R   0.928835 0.526167 0.966982 0.088481
C28   C     C_R   0.070789 0.470582 0.033315 0.086543
C29   C     C_R   0.594077 0.063418 0.477856 0.101346
C30   C     C_R   0.406223 0.935306 0.521929 0.100931
C31   C     C_R   0.905941 0.563857 0.022130 0.101341
C32   C     C_R   0.093755 0.434865 0.978088 0.100930
C33   C     C_R   0.515781 0.994802 0.529303 0.066734
C34   C     C_R   0.484626 0.001042 0.470368 0.066157
C35   C     C_R   0.984211 0.494673 0.970705 0.066745
C36   C     C_R   0.015378 0.501178 0.029628 0.066166
C37   C     C_R   0.509941 0.037859 0.417187 -0.180908
C38   C     C_R   0.490452 0.958383 0.582500 -0.183414
C39   C     C_R   0.990083 0.538420 0.082792 -0.180928
C40   C     C_R   0.009520 0.457828 0.917525 -0.183431
C41   C     C_R   0.563357 0.068080 0.421045 -0.191289
C42   C     C_R   0.436978 0.929765 0.578704 -0.191841
C43   C     C_R   0.936672 0.568777 0.078930 -0.191307
C44   C     C_R   0.062988 0.429068 0.921324 -0.191864
H1    H     H_    0.580853 0.096481 0.378778 0.124202
H2    H     H_    0.419440 0.902509 0.621017 0.123037
H3    H     H_    0.919194 0.597503 0.121182 0.124222
H4    H     H_    0.080509 0.401483 0.879026 0.123057
H5    H     H_    0.410027 0.996095 0.366148 0.106553
H6    H     H_    0.590462 0.997189 0.633439 0.100927
H7    H     H_    0.089993 0.496522 0.133834 0.106571
H8    H     H_    0.909514 0.496782 0.866583 0.100953
H9    H     H_    0.664686 0.126200 0.436755 0.121132
H10   H     H_    0.335382 0.878501 0.563264 0.121457
H11   H     H_    0.835355 0.627105 0.063212 0.121149
H12   H     H_    0.164573 0.377574 0.936770 0.121472
H13   H     H_    0.489550 0.045250 0.371393 0.125999
H14   H     H_    0.510832 0.951097 0.628300 0.122840
H15   H     H_    0.010486 0.546055 0.128572 0.126005
H16   H     H_    0.989127 0.450296 0.871738 0.122847
C45   C     C_R   0.435568 0.800742 0.089487 -0.226414
C46   C     C_R   0.584235 0.198727 0.936930 -0.226613
C47   C     C_R   0.064443 0.300716 0.410533 -0.226409
C48   C     C_R   0.915771 0.698725 0.563074 -0.226615
H17   H     H_    0.460525 0.678539 0.082060 0.105388
H18   H     H_    0.574399 0.320838 0.964790 0.105093
H19   H     H_    0.039491 0.178500 0.417969 0.105382
H20   H     H_    0.925607 0.820831 0.535212 0.105094
C49   C     C_R   0.396515 0.782822 0.130233 0.347958
C50   C     C_R   0.624081 0.217139 0.897297 0.350480
C51   C     C_R   0.103495 0.282796 0.369786 0.347967
C52   C     C_R   0.875925 0.717140 0.602706 0.350466
C53   C     C_R   0.363860 0.943179 0.139735 -0.085218
C54   C     C_R   0.636844 0.056901 0.860963 -0.084431
C55   C     C_R   0.136143 0.443171 0.360269 -0.085218
C56   C     C_R   0.863160 0.556906 0.639042 -0.084421
C57   C     C_R   0.371915 0.117613 0.108288 -0.240987
C58   C     C_R   0.609402 0.881904 0.865977 -0.251324
C59   C     C_R   0.128083 0.617620 0.391706 -0.241006
C60   C     C_R   0.890602 0.381913 0.634033 -0.251324
H21   H     H_    0.347811 0.243027 0.114259 0.166360
H22   H     H_    0.618037 0.756762 0.838834 0.168059
H23   H     H_    0.152182 0.743048 0.385725 0.166379
H24   H     H_    0.881967 0.256777 0.661179 0.168055
C61   C     C_R   0.410807 0.133282 0.068314 -0.151263
C62   C     C_R   0.570225 0.865600 0.905578 -0.149825
C63   C     C_R   0.089192 0.633290 0.431681 -0.151280
C64   C     C_R   0.929780 0.365608 0.594434 -0.149828
H25   H     H_    0.415866 0.269468 0.044900 0.122506
H26   H     H_    0.549931 0.728981 0.908361 0.122008
H27   H     H_    0.084128 0.769490 0.455085 0.122497
H28   H     H_    0.950075 0.228992 0.591655 0.122011
C65   C     C_R   0.442780 0.975117 0.058567 0.096518
C66   C     C_R   0.557374 0.023703 0.941225 0.097219
C67   C     C_R   0.057225 0.475109 0.441440 0.096530
C68   C     C_R   0.942632 0.523704 0.558783 0.097217
C69   C     C_1   0.483139 0.991939 0.017090 -0.041945
C70   C     C_1   0.516890 0.006244 0.982510 -0.042704
C71   C     C_1   0.016866 0.491932 0.482918 -0.041945
C72   C     C_1   0.983116 0.506240 0.517498 -0.042706
C73   C     C_3   0.262273 0.873538 0.467266 -0.791642
H29   H     H_    0.239134 0.885806 0.421469 0.199742
H30   H     H_    0.256069 0.726443 0.485832 0.209469
H31   H     H_    0.246935 0.982386 0.498290 0.208445
C74   C     C_3   0.737490 0.138302 0.532975 -0.764668
H32   H     H_    0.760431 0.134675 0.579069 0.223163
H33   H     H_    0.754191 0.028467 0.503407 0.212133
H34   H     H_    0.742317 0.284119 0.512768 0.203221
C75   C     C_3   0.237697 0.372896 0.032752 -0.791737
H35   H     H_    0.260850 0.385479 0.078530 0.199732
H36   H     H_    0.243864 0.225638 0.014308 0.209506
H37   H     H_    0.253044 0.481415 0.001635 0.208456
C76   C     C_3   0.762535 0.638901 0.967005 -0.764766
H38   H     H_    0.739579 0.634960 0.920925 0.223152
H39   H     H_    0.745829 0.529372 0.996666 0.212097
H40   H     H_    0.757742 0.784880 0.987095 0.203268
O21   O     O_3   0.390465 0.611705 0.161597 -0.646032
H41   H     H_    0.416874 0.516980 0.150687 0.279261
O22   O     O_3   0.651520 0.388161 0.894699 -0.652277
H42   H     H_    0.638747 0.482583 0.923953 0.277369
O23   O     O_3   0.109552 0.111659 0.338436 -0.646038
H43   H     H_    0.083147 0.016924 0.349354 0.279253
O24   O     O_3   0.848487 0.888160 0.605302 -0.652293
H44   H     H_    0.861263 0.982582 0.576049 0.277372

loop_
_geom_bond_atom_site_label_1
_geom_bond_atom_site_label_2
_ccdc_geom_bond_type
O17   V3    S    
C55   C59   A    
C48   C52   A    
O1    C5    A    
C47   H19   S    
O19   V1    S    
C9    C21   A    
O3    C7    A    
O24   H44   S    
C51   O23   S    
C56   C60   A    
C49   O21   S    
O15   V3    S    
C62   C66   A    
O23   H43   S    
C61   C65   A    
C71   C72   T    
C5    C12   S    
C42   H2    S    
O7    C3    A    
C6    C11   S    
C76   H39   S    
C35   C40   A    
C26   C30   A    
C36   C39   A    
C50   O22   S    
C40   C44   A    
O2    V4    S    
O9    V1    S    
C23   H8    S    
C14   C18   A    
O4    C8    A    
C51   C55   A    
C43   H3    S    
C50   C54   A    
C57   C61   A    
O22   H42   S    
C60   H24   S    
O1    V3    S    
O13   V1    S    
C59   C63   A    
C66   C70   S    
O3    V1    S    
C65   C69   S    
C40   H16   S    
C46   C50   A    
C18   C73   S    
C45   C49   A    
C1    O15   A    
C15   C31   A    
C48   H20   S    
C2    O16   A    
C16   C32   A    
C10   C18   A    
O2    C6    A    
C75   H37   S    
C16   H12   S    
C58   H22   S    
C10   C22   A    
C21   C25   A    
C48   C68   A    
C11   C19   A    
C62   H26   S    
C16   C20   A    
C4    C54   S    
C44   H4    S    
C74   H34   S    
C13   C29   A    
C34   C37   A    
O11   C7    A    
C38   H14   S    
C19   C76   S    
C11   C23   A    
C35   C36   A    
O12   C8    A    
C57   H21   S    
C24   H7    S    
C47   C67   A    
O10   V2    S    
O5    V1    S    
O17   V1    S    
C76   H40   S    
C39   C43   A    
O7    V3    S    
C38   C42   A    
O19   V3    S    
C26   C34   A    
C33   C38   A    
C46   H18   S    
C60   C64   A    
C45   H17   S    
O18   V4    S    
C15   C19   A    
C14   H10   S    
C32   C44   A    
C13   H9    S    
C39   H15   S    
C21   H6    S    
O8    V4    S    
C37   H13   S    
C2    C56   S    
O5    C1    A    
C1    C55   S    
C73   H31   S    
C63   H27   S    
C31   C43   A    
C14   C30   A    
O20   V4    S    
O8    C4    A    
C7    C10   S    
O9    C5    A    
C46   C66   A    
C45   C65   A    
C69   C70   T    
O14   V2    S    
C63   C67   A    
O6    V2    S    
O18   V2    S    
C67   C71   S    
C75   H35   S    
C58   C62   A    
C27   C35   A    
C49   C53   A    
C64   H28   S    
C29   C41   A    
C64   C68   A    
C74   H32   S    
O16   V4    S    
C20   C75   S    
C52   O24   S    
C47   C51   A    
C3    O13   A    
O6    C2    A    
C25   C33   A    
C23   C27   A    
O11   V3    S    
C30   C42   A    
C61   H25   S    
O12   V4    S    
C76   H38   S    
C22   C26   A    
C8    C9    S    
C3    C53   S    
C9    C17   A    
O10   C6    A    
O20   V2    S    
C54   C58   A    
O21   H41   S    
C17   C74   S    
C33   C34   A    
C73   H29   S    
C41   H1    S    
C52   C56   A    
C12   C24   A    
C27   C31   A    
C13   C17   A    
O4    V2    S    
C25   C29   A    
C12   C20   A    
C68   C72   S    
C37   C41   A    
C24   C28   A    
C28   C36   A    
C4    O14   A    
C73   H30   S    
C75   H36   S    
C59   H23   S    
C22   H5    S    
C53   C57   A    
C28   C32   A    
C15   H11   S    
C74   H33   S    
