data_mof_unit_39989.cif
_audit_creation_date              2012-12-10T17:51:34-0500
_audit_creation_method            fapswitch 2.2
_symmetry_space_group_name_H-M    P1
_symmetry_Int_Tables_number       1
_space_group_crystal_system       triclinic
_cell_length_a                    9.8816
_cell_length_b                    10.691081
_cell_length_c                    16.68106
_cell_angle_alpha                 91.501446
_cell_angle_beta                  85.382718
_cell_angle_gamma                 89.549126
_cell_volume                      1755.86001479

loop_
_atom_site_label
_atom_site_type_symbol
_atom_type_description
_atom_site_fract_x
_atom_site_fract_y
_atom_site_fract_z
_atom_type_partial_charge
C1    C     C_R   0.499238 0.740421 0.495104 0.861407
C2    C     C_R   0.529190 0.456744 0.262221 -0.027706
C3    C     C_R   0.245381 0.893645 0.477071 -0.166345
C4    C     C_R   0.481460 0.496444 0.653112 0.841763
C5    C     C_R   0.123027 0.955699 0.499507 -0.242415
C6    C     C_R   0.122567 0.065448 0.546005 -0.231636
C7    C     C_R   0.245228 0.119657 0.563854 0.561949
C8    C     C_R   0.370472 0.065277 0.530624 -0.034723
C9    C     C_R   0.370145 0.942532 0.499829 0.037259
C10   C     C_R   0.495299 0.875023 0.493676 -0.092894
C11   C     C_R   0.618231 0.936810 0.500512 -0.220573
C12   C     C_R   0.357510 0.497560 0.788089 -0.217770
C13   C     C_R   0.618618 0.063852 0.512231 -0.226804
C14   C     C_R   0.495560 0.129281 0.523522 -0.121748
C15   C     C_R   0.844559 0.665818 0.604546 -0.164319
C16   C     C_R   0.498636 0.261499 0.509957 0.919684
C17   C     C_R   0.907651 0.747726 0.655552 -0.206269
C18   C     C_R   0.047617 0.746987 0.655789 -0.189795
C19   C     C_R   0.125269 0.664612 0.604828 -0.149946
C20   C     C_R   0.064899 0.581432 0.551560 0.167024
C21   C     C_R   0.920120 0.581678 0.551468 0.163820
C22   C     C_R   0.935737 0.421547 0.451020 -0.134539
C23   C     C_R   0.438417 0.336463 0.154779 -0.160950
C24   C     C_R   0.079059 0.421602 0.451023 -0.094149
C25   C     C_R   0.518584 0.494246 0.346774 0.856800
C26   C     C_R   0.471005 0.462119 0.736731 -0.013341
C27   C     C_R   0.568192 0.379408 0.762524 -0.216738
C28   C     C_R   0.554016 0.334608 0.839765 -0.174001
C29   C     C_R   0.444572 0.375351 0.892954 0.202140
C30   C     C_R   0.344634 0.454481 0.866256 -0.185817
C31   C     C_3   0.279708 0.185377 0.690946 -0.330411
C32   C     C_R   0.426387 0.382512 0.233322 -0.204768
C33   C     C_R   0.646562 0.481001 0.212578 -0.207521
C34   C     C_R   0.657334 0.436933 0.133075 -0.171663
C35   C     C_R   0.551524 0.367598 0.103298 0.204320
C36   C     C_2   0.439868 0.348722 0.978606 -0.236352
C37   C     C_2   0.554342 0.342611 0.016598 -0.235699
H1    H     H_    0.653373 0.346695 0.722234 0.159118
H2    H     H_    0.847325 0.811793 0.695407 0.148543
H3    H     H_    0.337657 0.357855 0.271913 0.148134
H4    H     H_    0.096537 0.810644 0.695667 0.143219
H5    H     H_    0.231952 0.669350 0.608847 0.200394
H6    H     H_    0.139110 0.357564 0.411105 0.136972
H7    H     H_    0.728383 0.535313 0.234868 0.148362
H8    H     H_    0.652790 0.345112 0.982738 0.147254
H9    H     H_    0.259169 0.486146 0.906657 0.129104
H10   H     H_    0.358039 0.278660 0.134154 0.126684
H11   H     H_    0.279944 0.558754 0.767903 0.147967
H12   H     H_    0.745708 0.461019 0.094021 0.124338
H13   H     H_    0.342057 0.359839 0.012759 0.145458
H14   H     H_    0.629566 0.269610 0.857941 0.130159
H15   H     H_    0.390846 0.166632 0.687968 0.161488
H16   H     H_    0.222462 0.102122 0.713289 0.144759
H17   H     H_    0.256443 0.262651 0.735577 0.213367
H18   H     H_    0.714991 0.887576 0.495266 0.169539
H19   H     H_    0.240380 0.809908 0.439841 0.178736
H20   H     H_    0.028147 0.916131 0.483230 0.166490
H21   H     H_    0.026932 0.108862 0.568164 0.158123
H22   H     H_    0.715574 0.110881 0.510165 0.169387
H23   H     H_    0.887679 0.357534 0.411067 0.146862
H24   H     H_    0.736768 0.671341 0.608913 0.207307
N1    N     N_R   0.857140 0.501200 0.500750 -0.119595
N2    N     N_R   0.142740 0.501280 0.500770 -0.111328
O1    O     O_R   0.385310 0.683220 0.500000 -0.651307
O2    O     O_R   0.614640 0.683250 0.500010 -0.638954
O3    O     O_R   0.371780 0.500010 0.615800 -0.602550
O4    O     O_R   0.601110 0.500030 0.615800 -0.641327
O5    O     O_R   0.385360 0.316750 0.499990 -0.574318
O6    O     O_R   0.614690 0.316780 0.500000 -0.632109
O7    O     O_R   0.398890 0.499970 0.384200 -0.625208
O8    O     O_R   0.628220 0.499990 0.384200 -0.610676
O9    O     O_3   0.239914 0.222864 0.615824 -0.588093
Zn1   Zn    Zn3+2 0.346870 0.499980 0.499990 0.958450
Zn2   Zn    Zn3+2 0.653130 0.500020 0.500010 0.927977

loop_
_geom_bond_atom_site_label_1
_geom_bond_atom_site_label_2
_ccdc_geom_bond_type
C4    O4    A    
C4    C26   S    
O1    Zn1   S    
C6    C7    A    
C25   O8    A    
O8    Zn2   S    
C18   C19   A    
C9    C10   A    
C6    H21   S    
C1    O2    A    
C19   C20   A    
C7    O9    S    
C19   H5    S    
C5    H20   S    
C31   H15   S    
C12   H11   S    
C16   O5    A    
C12   C30   A    
C23   C32   A    
C20   N2    A    
O3    Zn1   S    
C33   C34   A    
C15   H24   S    
C36   H13   S    
C7    C8    A    
O4    Zn2   S    
C13   C14   A    
C31   H16   S    
C4    O3    A    
C3    C9    A    
C11   C13   A    
C29   C36   S    
C26   C27   A    
C29   C30   A    
O7    Zn1   S    
C13   H22   S    
C2    C33   A    
C2    C32   A    
C31   O9    S    
C35   C37   S    
C17   C18   A    
C2    C25   S    
C23   C35   A    
C32   H3    S    
C31   H17   S    
C22   H23   S    
C5    C6    A    
C28   H14   S    
C14   C16   S    
C24   N2    A    
C18   H4    S    
C22   N1    A    
C10   C11   A    
O2    Zn2   S    
C27   H1    S    
C37   H8    S    
C1    O1    A    
C15   C21   A    
C11   H18   S    
C20   C21   A    
C36   C37   D    
C34   C35   A    
C3    H19   S    
C22   C24   A    
C27   C28   A    
C15   C17   A    
C24   H6    S    
C17   H2    S    
O6    Zn2   S    
C28   C29   A    
C34   H12   S    
C8    C14   A    
C25   O7    A    
N2    Zn1   S    
C21   N1    A    
O5    Zn1   S    
C33   H7    S    
C1    C10   S    
C30   H9    S    
N1    Zn2   S    
C16   O6    A    
C12   C26   A    
C8    C9    A    
C3    C5    A    
C23   H10   S    
