data_mof_unit_34942.cif
_audit_creation_date              2012-12-11T15:21:37-0500
_audit_creation_method            fapswitch 2.2
_symmetry_space_group_name_H-M    P1
_symmetry_Int_Tables_number       1
_space_group_crystal_system       triclinic
_cell_length_a                    18.980838
_cell_length_b                    7.173531
_cell_length_c                    17.884565
_cell_angle_alpha                 90.004351
_cell_angle_beta                  108.708255
_cell_angle_gamma                 90.000228
_cell_volume                      2306.49203524

loop_
_atom_site_label
_atom_site_type_symbol
_atom_type_description
_atom_site_fract_x
_atom_site_fract_y
_atom_site_fract_z
_atom_type_partial_charge
O1    O     O_R   0.562310 0.505770 0.439670 -0.541262
O2    O     O_R   0.437690 0.005770 0.560330 -0.541325
O3    O     O_R   0.411650 0.169150 0.405330 -0.537173
O4    O     O_R   0.588350 0.669150 0.594670 -0.537145
C1    C     C_R   0.384548 0.345767 0.383424 0.757989
C2    C     C_R   0.615450 0.845777 0.616576 0.757887
O5    O     O_R   0.560140 0.175610 0.430010 -0.510790
O6    O     O_R   0.439860 0.675610 0.569990 -0.510685
O7    O     O_R   0.587240 0.012100 0.585200 -0.541494
O8    O     O_R   0.412760 0.512100 0.414800 -0.541463
C3    C     C_R   0.580616 0.344614 0.414821 0.763152
C4    C     C_R   0.419398 0.844623 0.585196 0.763088
O9    O     O_3   0.508720 0.341420 0.550890 -0.372844
O10   O     O_3   0.491280 0.841420 0.449110 -0.372904
V1    V     V_3+5 0.498380 0.063930 0.490560 1.558138
V2    V     V_3+5 0.501620 0.563930 0.509440 1.558313
C5    C     C_R   0.202895 0.835457 0.899130 0.379931
C6    C     C_R   0.797015 0.335952 0.100789 0.380068
C7    C     C_R   0.132212 0.918393 0.867584 -0.144864
C8    C     C_R   0.867796 0.418376 0.132425 -0.144844
C9    C     C_R   0.111447 0.995859 0.791498 -0.265678
C10   C     C_R   0.888689 0.495219 0.208636 -0.265773
C11   C     C_R   0.159377 0.985575 0.745739 0.106666
C12   C     C_R   0.840776 0.484882 0.254413 0.106718
C13   C     C_R   0.228606 0.893489 0.775831 0.023103
C14   C     C_R   0.771408 0.393465 0.224189 0.023051
C15   C     C_R   0.250351 0.817146 0.852677 0.008896
C16   C     C_R   0.749533 0.317749 0.147220 0.008924
C17   C     C_R   0.139144 0.065320 0.670159 -0.151239
C18   C     C_R   0.861166 0.563907 0.330144 -0.151194
C19   C     C_R   0.186909 0.054733 0.624773 -0.128481
C20   C     C_R   0.813414 0.553300 0.375544 -0.128308
C21   C     C_R   0.255524 0.962293 0.653653 0.096260
C22   C     C_R   0.744648 0.461572 0.346521 0.096318
C23   C     C_R   0.276536 0.879977 0.729295 0.023157
C24   C     C_R   0.723481 0.379952 0.270729 0.023090
C25   C     C_R   0.345445 0.785321 0.758616 0.029582
C26   C     C_R   0.654428 0.285966 0.241273 0.029625
C27   C     C_R   0.365635 0.708230 0.834873 -0.118789
C28   C     C_R   0.634088 0.209574 0.164877 -0.118707
C29   C     C_R   0.319243 0.725030 0.881230 -0.103828
C30   C     C_R   0.680490 0.226341 0.118530 -0.103660
C31   C     C_R   0.303322 0.951086 0.608045 -0.220094
C32   C     C_R   0.696850 0.450386 0.392133 -0.220040
C33   C     C_R   0.371189 0.854793 0.635786 -0.133041
C34   C     C_R   0.628834 0.354763 0.364244 -0.132993
C35   C     C_R   0.392460 0.771074 0.711252 0.337308
C36   C     C_R   0.607422 0.271677 0.288644 0.337279
H1    H     H_    0.086371 0.136719 0.646187 0.146604
H2    H     H_    0.914057 0.634747 0.354228 0.146654
H3    H     H_    0.169993 0.118427 0.566771 0.171144
H4    H     H_    0.830457 0.616420 0.433667 0.171031
H5    H     H_    0.287244 0.014969 0.550034 0.176045
H6    H     H_    0.713041 0.513751 0.450255 0.175951
H7    H     H_    0.417627 0.634655 0.859877 0.205314
H8    H     H_    0.581968 0.136587 0.139756 0.205366
H9    H     H_    0.337787 0.662782 0.939375 0.214368
H10   H     H_    0.661819 0.164654 0.060274 0.214309
C37   C     C_3   0.751265 0.789896 0.832669 0.643044
C38   C     C_3   0.248726 0.289761 0.167332 0.643020
C39   C     C_3   0.677595 0.778006 0.761485 -0.414193
C40   C     C_3   0.322383 0.277812 0.238529 -0.414072
H11   H     H_    0.631591 0.851263 0.775327 0.222501
H12   H     H_    0.368413 0.350930 0.224687 0.222828
H13   H     H_    0.745089 0.617990 0.664911 0.148543
H14   H     H_    0.254870 0.118113 0.335149 0.148520
C41   C     C_3   0.828724 0.805610 0.740997 -0.349976
C42   C     C_3   0.171268 0.305677 0.258999 -0.349957
C43   C     C_3   0.778316 0.102001 0.777810 0.243637
C44   C     C_3   0.221718 0.601974 0.222167 0.243701
C45   C     C_3   0.812518 0.909252 0.810609 -0.183393
C46   C     C_3   0.187488 0.409233 0.189382 -0.183403
C47   C     C_3   0.687450 0.865951 0.686775 -0.148367
C48   C     C_3   0.312550 0.365924 0.313221 -0.148441
C49   C     C_3   0.755386 0.770841 0.670971 0.269290
C50   C     C_3   0.244596 0.270964 0.329043 0.269326
C51   C     C_3   0.706688 0.076265 0.706637 -0.313128
C52   C     C_3   0.293356 0.576235 0.293322 -0.313079
H15   H     H_    0.712274 0.148368 0.653757 0.236357
H16   H     H_    0.287806 0.648470 0.346194 0.236374
H17   H     H_    0.869243 0.886550 0.720961 0.225900
H18   H     H_    0.130740 0.386644 0.279014 0.225866
O11   O     O_R   0.087220 0.271820 0.085230 -0.523697
O12   O     O_R   0.912780 0.771820 0.914770 -0.523680
O13   O     O_R   0.939860 0.595540 0.069990 -0.530479
O14   O     O_R   0.060140 0.095540 0.930010 -0.530514
C53   C     C_R   0.919352 0.426953 0.085269 0.775697
C54   C     C_R   0.080650 0.926955 0.914734 0.775722
O15   O     O_R   0.088340 0.601930 0.094680 -0.501266
O16   O     O_R   0.911660 0.101930 0.905320 -0.501294
O17   O     O_R   0.062310 0.765410 0.939660 -0.531615
O18   O     O_R   0.937690 0.265410 0.060340 -0.531631
C55   C     C_R   0.115826 0.431165 0.118082 0.771644
C56   C     C_R   0.884180 0.931162 0.881912 0.771625
O19   O     O_3   0.991270 0.429630 0.949130 -0.365921
O20   O     O_3   0.008730 0.929630 0.050870 -0.365904
V3    V     V_3+5 0.001620 0.707150 0.009440 1.688379
V4    V     V_3+5 0.998380 0.207150 0.990560 1.688270
Cl1   Cl    Cl    0.234135 0.772694 0.999489 -0.522010
Cl2   Cl    Cl    0.765754 0.273417 0.000397 -0.521920
Cl3   Cl    Cl    0.731049 0.882463 0.916076 -0.529319
Cl4   Cl    Cl    0.268996 0.382221 0.083950 -0.529249
H19   H     H_    0.658897 0.630916 0.748959 0.216783
H20   H     H_    0.341029 0.130699 0.251076 0.216733
H21   H     H_    0.856543 0.670007 0.761170 0.208635
H22   H     H_    0.143452 0.170057 0.238836 0.208601
Cl5   Cl    Cl    0.842003 0.248584 0.748324 -0.633317
Cl6   Cl    Cl    0.158059 0.748617 0.251676 -0.633183
H23   H     H_    0.763866 0.176878 0.825189 0.214910
H24   H     H_    0.236160 0.676805 0.174776 0.214891
H25   H     H_    0.659936 0.146128 0.720479 0.158102
H26   H     H_    0.340114 0.645966 0.279448 0.158076
H27   H     H_    0.057720 0.063307 0.767881 0.153937
H28   H     H_    0.942511 0.562189 0.232342 0.153841
Cl7   Cl    Cl    0.766195 0.847549 0.579760 -0.665728
Cl8   Cl    Cl    0.233789 0.347918 0.420226 -0.665785
Cl9   Cl    Cl    0.479514 0.656130 0.747081 -0.645474
Cl10  Cl    Cl    0.520236 0.157377 0.252701 -0.645703
Cl11  Cl    Cl    0.781753 0.556256 0.860646 -0.547889
Cl12  Cl    Cl    0.218198 0.056146 0.139321 -0.547875

loop_
_geom_bond_atom_site_label_1
_geom_bond_atom_site_label_2
_ccdc_geom_bond_type
C18   C20   A    
C44   C52   S    
C43   C51   S    
O1    C3    A    
O2    C4    A    
C30   H10   S    
C2    O7    A    
C43   Cl5   S    
O19   V4    S    
O18   V4    S    
C27   C29   A    
C45   C56   S    
C17   H1    S    
C50   Cl8   S    
O5    C3    A    
C48   C50   S    
O12   V3    S    
C11   C17   A    
C39   H19   S    
C12   C14   A    
O14   C54   A    
C38   C46   S    
O11   C55   A    
C8    C53   S    
C6    C8    A    
C38   C40   S    
C33   C35   A    
C1    C48   S    
C43   C45   S    
C20   H4    S    
C40   H12   S    
C44   H24   S    
C5    C7    A    
C43   H23   S    
C31   H5    S    
C27   H7    S    
C28   H8    S    
O11   V4    S    
C51   H25   S    
C19   C21   A    
C25   C35   A    
C26   C36   A    
O6    C4    A    
C28   C30   A    
C18   H2    S    
O6    V2    S    
C53   O18   A    
C47   C49   S    
C6    Cl2   S    
C42   H22   S    
C38   Cl4   S    
C32   C34   A    
O16   C56   A    
C40   H20   S    
C51   H15   S    
C34   C36   A    
C37   C39   S    
O13   C53   A    
C5    C15   A    
C6    C16   A    
C9    H27   S    
C7    C54   S    
O8    V2    S    
C41   H21   S    
C36   Cl10  S    
O5    V1    S    
C39   C47   S    
O15   V3    S    
C37   Cl3   S    
O4    V2    S    
C5    Cl1   S    
C15   C29   A    
C54   O17   A    
C35   Cl9   S    
C42   C46   S    
H14   C50   S    
O20   V3    S    
C39   H11   S    
C52   H16   S    
C22   C32   A    
O1    V2    S    
O12   C56   A    
O17   V3    S    
O2    V1    S    
C31   C33   A    
C13   C23   A    
C46   C55   S    
C14   C24   A    
C8    C10   A    
C41   H17   S    
C9    C11   A    
C13   C15   A    
C10   C12   A    
O4    C2    A    
C41   C49   S    
O3    V1    S    
C2    C47   S    
C37   Cl11  S    
C23   C25   A    
C19   H3    S    
C4    C33   S    
O3    C1    A    
C52   H26   S    
C42   C50   S    
C14   C16   A    
H13   C49   S    
C42   H18   S    
C24   C26   A    
O7    V1    S    
C29   H9    S    
C1    O8    A    
C17   C19   A    
C44   Cl6   S    
C26   C28   A    
C16   C30   A    
C21   C23   A    
C22   C24   A    
C38   Cl12  S    
C41   C45   S    
C11   C13   A    
O15   C55   A    
O14   V4    S    
C12   C18   A    
O13   V3    S    
C32   H6    S    
C10   H28   S    
C49   Cl7   S    
C25   C27   A    
C48   C52   S    
O9    V2    S    
C37   C45   S    
C47   C51   S    
O10   V1    S    
C40   C48   S    
C3    C34   S    
C44   C46   S    
C21   C31   A    
O16   V4    S    
C20   C22   A    
C7    C9    A    
