data_mof_unit_53116.cif
_audit_creation_date              2012-12-10T20:26:27-0500
_audit_creation_method            fapswitch 2.2
_symmetry_space_group_name_H-M    P1
_symmetry_Int_Tables_number       1
_space_group_crystal_system       triclinic
_cell_length_a                    10.617634
_cell_length_b                    10.674732
_cell_length_c                    9.859704
_cell_angle_alpha                 89.723966
_cell_angle_beta                  88.12346
_cell_angle_gamma                 90.203233
_cell_volume                      1116.88282637

loop_
_atom_site_label
_atom_site_type_symbol
_atom_type_description
_atom_site_fract_x
_atom_site_fract_y
_atom_site_fract_z
_atom_type_partial_charge
C1    C     C_R   0.503985 0.259967 0.500222 0.905779
C2    C     C_R   0.525517 0.128922 0.500931 -0.207537
C3    C     C_R   0.558658 0.066674 0.380158 -0.305189
C4    C     C_R   0.559651 0.937051 0.379026 0.606393
C5    C     C_R   0.526869 0.871609 0.499392 -0.248367
C6    C     C_R   0.519099 0.935457 0.622211 0.056344
C7    C     C_3   0.422983 0.926472 0.736189 -0.430667
C8    C     C_3   0.422387 0.068440 0.736931 -0.463499
C9    C     C_R   0.444698 0.403985 0.073633 0.208248
C10   C     C_R   0.564923 0.588130 0.069209 -0.098299
C11   C     C_R   0.564832 0.588236 0.925203 -0.141051
C12   C     C_R   0.262796 0.510815 0.502384 0.951457
C13   C     C_R   0.444135 0.404374 0.931117 0.215105
C14   C     C_3   0.308518 0.367417 0.931070 -0.527174
C15   C     C_3   0.309772 0.365180 0.085066 -0.485869
C16   C     C_R   0.505228 0.740101 0.499463 0.918418
C17   C     C_R   0.737734 0.495426 0.497403 0.800474
C18   C     C_2   0.930870 0.586107 0.428546 -0.412488
C19   C     C_2   0.871974 0.487047 0.486705 0.304032
C20   C     C_2   0.068394 0.586361 0.408739 0.542582
C21   C     C_2   0.131705 0.538497 0.511781 -0.335985
C22   C     C_R   0.518613 0.063154 0.623039 0.131752
H1    H     H_    0.877966 0.668549 0.399513 0.119699
H2    H     H_    0.461519 0.108819 0.830429 0.205351
H3    H     H_    0.615664 0.660389 0.121354 0.198858
H4    H     H_    0.615202 0.660837 0.868735 0.155762
H5    H     H_    0.247681 0.442145 0.889889 0.217088
H6    H     H_    0.294210 0.273334 0.886610 0.200713
H7    H     H_    0.248327 0.437233 0.133543 0.248927
H8    H     H_    0.298432 0.269466 0.128777 0.205970
H9    H     H_    0.084493 0.517981 0.609164 0.134458
H10   H     H_    0.575307 0.117124 0.285605 0.195116
H11   H     H_    0.332410 0.884726 0.704719 0.199633
H12   H     H_    0.462411 0.884886 0.829222 0.215277
H13   H     H_    0.331511 0.109264 0.705621 0.194973
N1    N     N_R   0.499170 0.499140 0.142800 -0.107506
N2    N     N_R   0.499170 0.499180 0.857150 -0.106339
O1    O     O_R   0.500020 0.316790 0.614690 -0.618869
O2    O     O_R   0.500000 0.316760 0.385350 -0.624504
O3    O     O_R   0.319080 0.500020 0.614640 -0.636933
O4    O     O_R   0.319070 0.499980 0.385300 -0.561327
O5    O     O_R   0.500000 0.683240 0.614650 -0.630025
O6    O     O_R   0.499980 0.683210 0.385310 -0.551023
O7    O     O_R   0.680930 0.500020 0.614700 -0.644975
O8    O     O_R   0.680920 0.499980 0.385360 -0.618368
Zn1   Zn    Zn3+2 0.500010 0.500020 0.653130 0.927979
Zn2   Zn    Zn3+2 0.499990 0.499980 0.346870 0.993171
O9    O     O_3   0.935879 0.373721 0.503132 -0.624798
C23   C     C_3   0.873539 0.292347 0.596863 0.115080
H14   H     H_    0.784649 0.256249 0.554578 0.142082
H15   H     H_    0.853332 0.340472 0.695150 0.149169
C24   C     C_3   0.958295 0.181106 0.624186 -0.830135
H16   H     H_    0.048035 0.213855 0.667102 0.249366
H17   H     H_    0.910352 0.116278 0.697804 0.209320
H18   H     H_    0.979425 0.129889 0.528368 0.262354
O10   O     O_3   0.134024 0.637211 0.295846 -0.600202
C25   C     C_3   0.055017 0.667720 0.188222 0.100688
H19   H     H_    0.990838 0.745842 0.217507 0.150823
H20   H     H_    0.999668 0.584412 0.157112 0.152401
C26   C     C_3   0.135881 0.712075 0.066839 -0.809949
H21   H     H_    0.202455 0.637587 0.033678 0.251680
H22   H     H_    0.074784 0.735909 0.981219 0.200567
H23   H     H_    0.190589 0.796608 0.094305 0.267446
F1    F     F_    0.583029 0.877550 0.259503 -0.683458

loop_
_geom_bond_atom_site_label_1
_geom_bond_atom_site_label_2
_ccdc_geom_bond_type
C2    C22   A    
C9    N1    A    
C8    C22   S    
C12   O3    A    
C6    C7    S    
C12   O4    A    
C14   H5    S    
C21   H9    S    
C4    F1    S    
C13   N2    A    
C24   H18   S    
C20   O10   S    
C23   C24   S    
C14   H6    S    
C23   H15   S    
C24   H16   S    
C2    C3    A    
O4    Zn2   S    
C17   O7    A    
C7    C8    S    
C13   C14   S    
C20   C21   D    
O3    Zn1   S    
C7    H11   S    
C16   O6    A    
C25   H19   S    
C5    C6    A    
C1    O1    A    
N1    Zn2   S    
C26   H23   S    
C1    C2    S    
C10   H3    S    
C26   H22   S    
O9    C23   S    
C8    H2    S    
C24   H17   S    
C15   H7    S    
C18   C20   S    
O8    Zn2   S    
C9    C15   S    
C3    H10   S    
C7    H12   S    
O1    Zn1   S    
C25   H20   S    
C10   C11   A    
C1    O2    A    
C17   O8    A    
C18   H1    S    
C6    C22   A    
C16   O5    A    
C4    C5    A    
O10   C25   S    
C15   H8    S    
O2    Zn2   S    
C23   H14   S    
O5    Zn1   S    
C11   N2    A    
C9    C13   A    
C19   O9    S    
C18   C19   D    
C25   C26   S    
C10   N1    A    
C11   H4    S    
C17   C19   S    
N2    Zn1   S    
C14   C15   S    
O6    Zn2   S    
C12   C21   S    
C3    C4    A    
O7    Zn1   S    
C26   H21   S    
C5    C16   S    
C8    H13   S    
