data_mof_unit_16379.cif
_audit_creation_date              2013-03-05T16:30:50-0500
_audit_creation_method            fapswitch 2.2
_symmetry_space_group_name_H-M    P1
_symmetry_Int_Tables_number       1
_space_group_crystal_system       triclinic
_cell_length_a                    11.055185
_cell_length_b                    10.818701
_cell_length_c                    9.54763
_cell_angle_alpha                 90.239199
_cell_angle_beta                  102.337565
_cell_angle_gamma                 90.280099
_cell_volume                      1115.52155419

loop_
_atom_site_label
_atom_site_type_symbol
_atom_site_description
_atom_site_fract_x
_atom_site_fract_y
_atom_site_fract_z
_atom_type_partial_charge
O1    O     O_R   0.500000 0.319640 0.618810 -0.588375
O2    O     O_R   0.500010 0.319680 0.381230 -0.555853
C1    C     C_R   0.494184 0.262440 0.498389 0.865558
O3    O     O_R   0.320680 0.500000 0.575130 -0.597583
O4    O     O_R   0.320690 0.500040 0.337550 -0.545954
C2    C     C_R   0.262931 0.498832 0.442198 0.904140
Cu1   Cu    Cu3+1 0.499990 0.499980 0.640670 0.961997
Cu2   Cu    Cu3+1 0.500010 0.500020 0.359330 1.021250
O5    O     O_R   0.499990 0.680320 0.618770 -0.579839
O6    O     O_R   0.500000 0.680360 0.381190 -0.541684
O7    O     O_R   0.679310 0.499960 0.662450 -0.590169
O8    O     O_R   0.679320 0.500000 0.424870 -0.592249
C3    C     C_R   0.495287 0.737554 0.498984 0.861280
C4    C     C_R   0.737103 0.499045 0.558075 0.843908
H1    H     H_    0.885140 0.470467 0.376900 0.172489
H2    H     H_    0.117334 0.497355 0.628848 0.186238
C5    C     C_2   0.128326 0.493697 0.410402 -0.279690
C6    C     C_2   0.067862 0.492189 0.517486 -0.150273
H3    H     H_    0.920913 0.510944 0.702313 0.156105
C7    C     C_2   0.871880 0.498634 0.591588 -0.338060
C8    C     C_2   0.933637 0.485395 0.486865 -0.137387
H4    H     H_    0.078401 0.489995 0.299203 0.162156
C9    C     C_R   0.511697 0.063982 0.622844 0.099048
C10   C     C_R   0.476957 0.129334 0.495465 -0.266597
C11   C     C_R   0.420108 0.064120 0.369320 0.241052
C12   C     C_R   0.422232 0.933566 0.369246 0.236319
C13   C     C_R   0.478505 0.870435 0.496095 -0.271846
C14   C     C_R   0.511700 0.937396 0.623441 0.115585
C15   C     C_3   0.625456 0.932168 0.740267 -0.437218
C16   C     C_3   0.625742 0.072632 0.738962 -0.411577
H5    H     H_    0.605671 0.893408 0.840676 0.219626
H6    H     H_    0.705670 0.890713 0.704412 0.188865
H7    H     H_    0.606953 0.114246 0.838786 0.223047
H8    H     H_    0.705757 0.113201 0.701374 0.191511
C17   C     C_R   0.562265 0.589859 0.089257 0.339318
N1    N     N_R   0.500780 0.500930 0.148120 -0.208954
C18   C     C_R   0.427598 0.420203 0.056042 -0.028352
H9    H     H_    0.370061 0.354929 0.097154 0.213115
C19   C     C_R   0.427969 0.419720 0.907299 -0.066535
H10   H     H_    0.371528 0.353054 0.837246 0.162704
N2    N     N_R   0.500790 0.500890 0.852210 -0.202438
C20   C     C_R   0.562293 0.589808 0.941896 0.280663
C21   C     C_3   0.697686 0.616456 0.969218 -0.509613
C22   C     C_3   0.697703 0.616553 0.127954 -0.504347
H11   H     H_    0.751819 0.538955 0.937210 0.222506
H12   H     H_    0.718442 0.708545 0.928932 0.201285
H13   H     H_    0.751196 0.538634 0.184506 0.205626
H14   H     H_    0.718428 0.708676 0.179744 0.216721
N3    N     N_R   0.355292 0.128908 0.245214 0.141890
O9    O     O_R   0.381395 0.109614 0.120363 -0.334437
O10   O     O_R   0.266261 0.204169 0.256156 -0.386261
N4    N     N_R   0.363726 0.866350 0.243029 0.172283
O11   O     O_R   0.266158 0.799002 0.244276 -0.351724
O12   O     O_R   0.417473 0.858501 0.134706 -0.329271

loop_
_geom_bond_atom_site_label_1
_geom_bond_atom_site_label_2
_geom_bond_distance
_ccdc_geom_bond_type
O4    Cu2   1.948602 S    
C21   C22   1.515506 S    
C18   H9    1.077952 S    
C12   N4    1.433297 S    
C2    C5    1.454529 S    
C6    C8    1.451249 S    
N2    C20   1.363398 A    
C5    H4    1.087398 S    
C22   H13   1.106394 S    
Cu2   O8    1.947054 S    
C9    C10   1.391649 A    
H3    C7    1.087387 S    
C5    C6    1.335832 D    
C12   C13   1.417518 A    
Cu1   Cu2   2.686180 S    
C15   H5    1.111218 S    
H2    C6    1.087856 S    
C9    C14   1.369528 A    
C7    C8    1.333358 D    
Cu1   O7    1.948604 S    
C17   C22   1.490058 S    
C21   H11   1.111522 S    
C1    C10   1.451014 S    
C15   C16   1.519728 S    
O3    Cu1   1.947053 S    
O3    C2    1.293094 A    
N1    C18   1.368541 A    
C21   H12   1.109892 S    
N4    O12   1.300872 A    
O2    C1    1.294246 A    
C15   H6    1.112227 S    
Cu1   N2    2.017816 S    
O4    C2    1.295704 A    
C18   C19   1.421023 A    
O7    C4    1.293616 A    
C11   N3    1.434499 S    
C20   C21   1.489919 S    
C16   H8    1.112245 S    
C19   H10   1.081704 S    
C9    C16   1.492686 S    
C4    C7    1.455605 S    
O8    C4    1.295620 A    
H1    C8    1.083056 S    
C10   C11   1.417178 A    
C19   N2    1.368867 A    
Cu2   O6    1.961314 S    
N3    O9    1.301265 A    
Cu2   N1    2.018455 S    
O2    Cu2   1.963085 S    
C13   C14   1.391815 A    
Cu1   O5    1.963086 S    
C17   C20   1.407018 A    
O5    C3    1.294182 A    
C14   C15   1.493540 S    
C16   H7    1.111814 S    
N3    O10   1.301427 A    
C11   C12   1.412738 A    
O1    Cu1   1.961313 S    
O6    C3    1.292278 A    
C3    C13   1.450049 S    
C22   H14   1.111553 S    
N4    O11   1.300900 A    
O1    C1    1.292692 A    
C17   N1    1.365601 A    
