data_mof_unit_7066.cif
_audit_creation_date              2012-12-11T16:37:22-0500
_audit_creation_method            fapswitch 2.2
_symmetry_space_group_name_H-M    P1
_symmetry_Int_Tables_number       1
_space_group_crystal_system       monoclinic
_cell_length_a                    19.485245
_cell_length_b                    6.943579
_cell_length_c                    17.690879
_cell_angle_alpha                 90.0
_cell_angle_beta                  108.966543
_cell_angle_gamma                 90.0
_cell_volume                      2263.58062442

loop_
_atom_site_label
_atom_site_type_symbol
_atom_type_description
_atom_site_fract_x
_atom_site_fract_y
_atom_site_fract_z
_atom_type_partial_charge
O1    O     O_R   0.561710 0.369960 0.440200 -0.536861
O2    O     O_R   0.061710 0.630040 0.940200 -0.536861
O3    O     O_R   0.412630 0.033330 0.406330 -0.542197
O4    O     O_R   0.912630 0.966670 0.906330 -0.542197
O5    O     O_R   0.438290 0.869790 0.559800 -0.541340
O6    O     O_R   0.938290 0.130210 0.059800 -0.541340
C1    C     C_R   0.385013 0.203129 0.382973 0.695055
C2    C     C_R   0.885013 0.796871 0.882973 0.695055
O7    O     O_R   0.559570 0.039810 0.430640 -0.543033
O8    O     O_R   0.059570 0.960190 0.930640 -0.543033
O9    O     O_R   0.586280 0.876320 0.584290 -0.538711
O10   O     O_R   0.086280 0.123680 0.084290 -0.538711
C3    C     C_R   0.580735 0.209074 0.415225 0.714487
C4    C     C_R   0.080735 0.790926 0.915225 0.714486
O11   O     O_R   0.413720 0.363440 0.415710 -0.538505
O12   O     O_R   0.913720 0.636560 0.915710 -0.538505
O13   O     O_3   0.508590 0.205630 0.550380 -0.369582
O14   O     O_3   0.008590 0.794370 0.050380 -0.369583
V1    V     V_3+5 0.498410 0.928130 0.490650 1.393652
V2    V     V_3+5 0.998410 0.071870 0.990650 1.393652
O15   O     O_R   0.587370 0.546990 0.593670 -0.539466
O16   O     O_R   0.087370 0.453010 0.093670 -0.539466
C5    C     C_R   0.614917 0.716842 0.617309 0.699370
C6    C     C_R   0.114917 0.283158 0.117309 0.699369
O17   O     O_R   0.440430 0.540520 0.569360 -0.540913
O18   O     O_R   0.940430 0.459480 0.069360 -0.540913
C7    C     C_R   0.419020 0.709215 0.584602 0.707928
C8    C     C_R   0.919020 0.290784 0.084602 0.707929
V3    V     V_3+5 0.501590 0.428960 0.509350 1.401388
V4    V     V_3+5 0.001590 0.571040 0.009350 1.401388
O19   O     O_3   0.491410 0.701330 0.449620 -0.370375
O20   O     O_3   0.991410 0.298670 0.949620 -0.370375
C9    C     C_R   0.279168 0.889457 0.675652 -0.234236
C10   C     C_R   0.779168 0.110542 0.175653 -0.234236
H1    H     H_    0.244702 0.014713 0.669963 0.160078
H2    H     H_    0.744703 0.985287 0.169964 0.160078
C11   C     C_R   0.326211 0.881343 0.630504 -0.167449
C12   C     C_R   0.826211 0.118656 0.130504 -0.167449
H3    H     H_    0.326994 0.000867 0.591445 0.135245
H4    H     H_    0.826994 0.999132 0.091445 0.135245
C13   C     C_R   0.370379 0.719388 0.634200 -0.083528
C14   C     C_R   0.870379 0.280611 0.134201 -0.083528
C15   C     C_R   0.367740 0.567548 0.685713 -0.273355
C16   C     C_R   0.867740 0.432452 0.185713 -0.273355
H5    H     H_    0.402579 0.443478 0.690305 0.119993
H6    H     H_    0.902579 0.556523 0.190305 0.119993
C17   C     C_R   0.321795 0.576418 0.733173 0.438273
C18   C     C_R   0.821794 0.423582 0.233173 0.438273
C19   C     C_R   0.275598 0.737199 0.726695 0.087375
C20   C     C_R   0.775598 0.262801 0.226695 0.087375
C21   C     C_R   0.176875 0.595695 0.774724 0.436487
C22   C     C_R   0.676875 0.404305 0.274724 0.436486
C23   C     C_R   0.130781 0.610690 0.821746 -0.270910
C24   C     C_R   0.630781 0.389309 0.321746 -0.270910
H7    H     H_    0.095369 0.491508 0.823297 0.120323
H8    H     H_    0.595369 0.508491 0.323297 0.120323
C25   C     C_R   0.128811 0.779205 0.865061 -0.085502
C26   C     C_R   0.628811 0.220795 0.365061 -0.085502
C27   C     C_R   0.173601 0.934219 0.860664 -0.168529
C28   C     C_R   0.673602 0.065781 0.360664 -0.168529
H9    H     H_    0.173241 0.066078 0.893253 0.137354
H10   H     H_    0.673241 0.933922 0.393253 0.137355
C29   C     C_R   0.220954 0.918973 0.815996 -0.225630
C30   C     C_R   0.720955 0.081027 0.315996 -0.225630
H11   H     H_    0.256073 0.039535 0.815456 0.168855
H12   H     H_    0.756073 0.960465 0.315456 0.168855
C31   C     C_R   0.224006 0.749604 0.773427 0.084563
C32   C     C_R   0.724005 0.250396 0.273427 0.084564
C33   C     C_R   0.804629 0.621758 0.761629 0.108032
C34   C     C_R   0.304629 0.378241 0.261629 0.108032
C35   C     C_R   0.818239 0.782790 0.812413 -0.110078
C36   C     C_R   0.318239 0.217210 0.312413 -0.110078
C37   C     C_R   0.765253 0.928503 0.794295 -0.180283
C38   C     C_R   0.265253 0.071497 0.294295 -0.180283
H13   H     H_    0.772906 0.054578 0.831888 0.132049
H14   H     H_    0.272906 0.945422 0.331888 0.132049
C39   C     C_R   0.699247 0.905764 0.731203 -0.173385
C40   C     C_R   0.199247 0.094235 0.231203 -0.173385
H15   H     H_    0.658660 0.017799 0.720985 0.130691
H16   H     H_    0.158660 0.982201 0.220985 0.130691
C41   C     C_R   0.683902 0.735754 0.684770 -0.109884
C42   C     C_R   0.183902 0.264246 0.184770 -0.109884
C43   C     C_R   0.739372 0.599132 0.699300 0.104167
C44   C     C_R   0.239372 0.400868 0.199300 0.104167
C45   C     C_3   0.737201 0.388533 0.714078 -0.425388
C46   C     C_3   0.237201 0.611467 0.214078 -0.425389
C47   C     C_3   0.808580 0.412723 0.781623 -0.387477
C48   C     C_3   0.308580 0.587277 0.281623 -0.387476
H17   H     H_    0.742271 0.301381 0.663453 0.178833
H18   H     H_    0.242271 0.698619 0.163453 0.178833
H19   H     H_    0.691222 0.348871 0.735168 0.171303
H20   H     H_    0.191222 0.651129 0.235168 0.171303
H21   H     H_    0.854955 0.340366 0.769794 0.174969
H22   H     H_    0.354955 0.659634 0.269794 0.174968
H23   H     H_    0.804105 0.385522 0.841779 0.169514
H24   H     H_    0.304105 0.614478 0.341779 0.169513
O21   O     O_3   0.322836 0.432866 0.787616 -0.637658
H25   H     H_    0.357283 0.330835 0.784096 0.279775
O22   O     O_3   0.822835 0.567134 0.287616 -0.637658
H26   H     H_    0.857283 0.669165 0.284096 0.279775
O23   O     O_3   0.175136 0.434916 0.728110 -0.637068
H27   H     H_    0.139944 0.340783 0.736341 0.281583
O24   O     O_3   0.675135 0.565084 0.228110 -0.637067
H28   H     H_    0.639944 0.659216 0.236340 0.281583

loop_
_geom_bond_atom_site_label_1
_geom_bond_atom_site_label_2
_ccdc_geom_bond_type
V4    O20   S    
C29   H11   S    
C22   O24   S    
O23   H27   S    
O13   V3    S    
O4    C2    A    
C34   C48   S    
C48   H24   S    
O21   H25   S    
C45   H19   S    
C17   C19   A    
O9    V1    S    
C38   H14   S    
C30   C32   A    
C44   C46   S    
C12   C14   A    
O3    C1    A    
V2    O20   S    
C46   C48   S    
C25   C27   A    
C9    C19   A    
C28   H10   S    
C8    C14   S    
C33   C35   A    
C7    C13   S    
O7    C3    A    
C1    O11   A    
O5    C7    A    
O7    V1    S    
O6    C8    A    
C16   H6    S    
C47   H23   S    
O3    V1    S    
O14   V4    S    
C6    C42   S    
C34   C44   A    
C10   H2    S    
C33   C47   S    
C39   H15   S    
V1    O19   S    
C2    O12   A    
C13   C15   A    
C14   C16   A    
C20   C32   S    
C41   C43   A    
C22   C24   A    
O11   V3    S    
C26   C28   A    
C48   H22   S    
C23   H7    S    
O17   V3    S    
C29   C31   A    
C10   C20   A    
C27   H9    S    
C45   C47   S    
C36   C38   A    
C46   H18   S    
O8    V2    S    
C1    C36   S    
C35   C37   A    
C23   C25   A    
O13   V1    S    
C3    C26   S    
O15   V3    S    
C9    C11   A    
C21   C23   A    
C30   H12   S    
C33   C43   A    
C40   C42   A    
O22   H26   S    
C39   C41   A    
O10   V2    S    
O1    V3    S    
C40   H16   S    
C21   C31   A    
C18   C20   A    
C15   H5    S    
C43   C45   S    
O18   V4    S    
C42   C44   A    
O15   C5    A    
O8    C4    A    
O16   C6    A    
O1    C3    A    
C37   H13   S    
C24   C26   A    
C18   O22   S    
C4    C25   S    
C2    C35   S    
C45   H17   S    
C5    C41   S    
C10   C12   A    
C27   C29   A    
C22   C32   A    
C34   C36   A    
C24   H8    S    
C19   C31   S    
O5    V1    S    
O17   C7    A    
O6    V2    S    
O10   C6    A    
O18   C8    A    
C17   O21   S    
O2    V4    S    
C28   C30   A    
V3    O19   S    
O16   V4    S    
C12   H4    S    
C15   C17   A    
C47   H21   S    
O9    C5    A    
C9    H1    S    
O14   V2    S    
C11   C13   A    
O2    C4    A    
O4    V2    S    
C11   H3    S    
C38   C40   A    
O24   H28   S    
C37   C39   A    
C46   H20   S    
O12   V4    S    
C21   O23   S    
C16   C18   A    
