data_mof_unit_9898.cif
_audit_creation_date              2012-12-10T16:51:15-0500
_audit_creation_method            fapswitch 2.2
_symmetry_space_group_name_H-M    P1
_symmetry_Int_Tables_number       1
_space_group_crystal_system       triclinic
_cell_length_a                    27.719925
_cell_length_b                    8.757757
_cell_length_c                    7.49858
_cell_angle_alpha                 102.967126
_cell_angle_beta                  93.468502
_cell_angle_gamma                 90.830396
_cell_volume                      1769.97938015

loop_
_atom_site_label
_atom_site_type_symbol
_atom_type_description
_atom_site_fract_x
_atom_site_fract_y
_atom_site_fract_z
_atom_type_partial_charge
C1    C     C_R   0.498655 0.200477 0.453925 0.788254
C2    C     C_R   0.501363 0.799523 0.546071 0.794594
C3    C     C_R   0.102612 0.502612 0.574286 -0.240234
C4    C     C_R   0.897931 0.487734 0.500601 -0.242155
C5    C     C_R   0.128319 0.364295 0.524400 -0.108787
C6    C     C_R   0.871272 0.621301 0.564891 -0.121004
C7    C     C_R   0.103521 0.219824 0.490889 0.504332
C8    C     C_R   0.895350 0.765562 0.628393 0.534479
C9    C     C_R   0.128554 0.646046 0.635613 -0.216999
C10   C     C_R   0.872963 0.347742 0.408229 -0.206389
C11   C     C_R   0.354660 0.512398 0.515255 -0.207243
C12   C     C_R   0.644991 0.484936 0.484231 -0.206962
C13   C     C_R   0.975197 0.356673 0.455312 -0.052349
C14   C     C_R   0.026006 0.638045 0.634608 -0.082483
C15   C     C_R   0.974193 0.638784 0.610055 -0.020629
C16   C     C_R   0.026021 0.353086 0.493691 0.000726
C17   C     C_R   0.949344 0.494597 0.523822 -0.076990
C18   C     C_R   0.051267 0.497725 0.567549 -0.099096
C19   C     C_R   0.949483 0.230071 0.336892 0.514489
C20   C     C_R   0.054369 0.769481 0.732079 0.528153
C21   C     C_R   0.899395 0.222134 0.319029 0.543850
C22   C     C_R   0.104093 0.777577 0.721502 0.583597
C23   C     C_R   0.407582 0.503364 0.504178 0.836638
C24   C     C_R   0.592320 0.496799 0.495603 0.840951
C25   C     C_R   0.052427 0.210021 0.468820 0.378894
C26   C     C_R   0.946110 0.778627 0.650840 0.308541
C27   C     C_2   0.498031 0.033360 0.427893 0.294988
C28   C     C_2   0.502012 0.966640 0.572099 0.290130
C29   C     C_R   0.178927 0.373864 0.518515 0.607532
C30   C     C_R   0.820456 0.609511 0.552162 0.590662
C31   C     C_R   0.178799 0.650988 0.619896 0.685101
C32   C     C_R   0.822099 0.340774 0.399893 0.691263
C33   C     C_R   0.285212 0.561077 0.700201 -0.216728
C34   C     C_R   0.722840 0.427575 0.616176 -0.214380
C35   C     C_R   0.335028 0.553168 0.687409 -0.268672
C36   C     C_R   0.673004 0.440101 0.625289 -0.279814
C37   C     C_R   0.323318 0.483495 0.355523 0.491957
C38   C     C_R   0.667679 0.514720 0.331873 0.495781
C39   C     C_R   0.273012 0.484904 0.368490 0.402155
C40   C     C_R   0.718043 0.507565 0.325946 0.394272
C41   C     C_R   0.253999 0.523137 0.541983 0.170956
C42   C     C_R   0.745533 0.462734 0.468209 0.175194
Cu1   Cu    Cu3+1 0.505380 0.517380 0.684380 1.059370
Cu2   Cu    Cu3+1 0.494620 0.482620 0.315620 1.095308
H1    H     H_    0.462679 0.380363 0.949624 0.258553
H2    H     H_    0.537306 0.619683 0.050386 0.277350
H3    H     H_    0.656392 0.414426 0.742754 0.235967
H4    H     H_    0.358142 0.579507 0.812770 0.234254
H5    H     H_    0.744122 0.394802 0.726940 0.198982
H6    H     H_    0.270752 0.593438 0.834009 0.207200
N1    N     N_R   0.202689 0.516283 0.558393 -0.454504
N2    N     N_R   0.797230 0.470329 0.473645 -0.456303
N3    N     N_2   0.486510 0.456430 0.038510 -0.176497
N4    N     N_2   0.513490 0.543570 0.961490 -0.172614
O1    O     O_R   0.503500 0.286120 0.619780 -0.562529
O2    O     O_R   0.496500 0.713880 0.380220 -0.561697
O3    O     O_R   0.494410 0.256780 0.308360 -0.525642
O4    O     O_R   0.505590 0.743220 0.691640 -0.525935
O5    O     O_R   0.434810 0.514700 0.655690 -0.609202
O6    O     O_R   0.565190 0.485300 0.344310 -0.537938
O7    O     O_R   0.425720 0.485350 0.344280 -0.518050
O8    O     O_R   0.574280 0.514650 0.655720 -0.581238
O9    O     O_2   0.204326 0.242331 0.471897 -0.511610
O10   O     O_2   0.794156 0.735757 0.618192 -0.509838
O11   O     O_2   0.797604 0.206255 0.320599 -0.481484
O12   O     O_2   0.203620 0.788847 0.663063 -0.478242
F1    F     F_    0.341176 0.453763 0.187071 -0.667513
F2    F     F_    0.641568 0.555727 0.191495 -0.658089
O13   O     O_3   0.242150 0.460039 0.211952 -0.595744
C43   C     C_3   0.240553 0.299464 0.121093 0.143210
H7    H     H_    0.203053 0.253333 0.122633 0.199909
H8    H     H_    0.265172 0.224080 0.185542 0.154119
C44   C     C_3   0.252420 0.283550 0.921924 -0.415252
H9    H     H_    0.227294 0.355651 0.857027 0.237210
H10   H     H_    0.290027 0.325815 0.915611 0.278242
C45   C     C_3   0.247133 0.114032 0.815394 -0.638087
H11   H     H_    0.268587 0.036250 0.886104 0.245206
H12   H     H_    0.260309 0.103091 0.676387 0.280421
H13   H     H_    0.208404 0.077240 0.802239 0.341950
O14   O     O_3   0.740248 0.537535 0.176734 -0.597947
C46   C     C_3   0.745575 0.701412 0.194603 0.108341
H14   H     H_    0.782231 0.740445 0.258143 0.199354
H15   H     H_    0.718321 0.771240 0.279852 0.159671
C47   C     C_3   0.740795 0.736351 0.004080 -0.363967
H16   H     H_    0.767390 0.666761 0.917319 0.250932
H17   H     H_    0.703800 0.701288 0.941367 0.255056
C48   C     C_3   0.749971 0.909848 0.011459 -0.676953
H18   H     H_    0.725450 0.982919 0.105196 0.254032
H19   H     H_    0.743186 0.932550 0.872427 0.274418
H20   H     H_    0.788149 0.943386 0.059117 0.320412
F3    F     F_    0.129380 0.089444 0.491324 -0.623794
F4    F     F_    0.869275 0.897073 0.647884 -0.640897
F5    F     F_    0.877253 0.092973 0.207959 -0.625791
F6    F     F_    0.128438 0.911073 0.811387 -0.592564
F7    F     F_    0.972582 0.123258 0.217667 -0.705243
F8    F     F_    0.036584 0.879811 0.863811 -0.678655
O15   O     O_3   0.027634 0.066055 0.451530 -0.535778
C49   C     C_3   0.048900 0.939349 0.330717 0.276708
H21   H     H_    0.074839 0.882602 0.411857 0.172305
H22   H     H_    0.067798 0.978072 0.220552 0.193572
C50   C     C_3   0.010738 0.813636 0.237237 -0.283388
H23   H     H_    0.985240 0.791988 0.336684 0.244806
H24   H     H_    0.989289 0.852775 0.127375 0.286014
C51   C     C_3   0.034133 0.659652 0.152543 -0.915041
H25   H     H_    0.061760 0.678293 0.058214 0.282352
H26   H     H_    0.006054 0.575163 0.075287 0.265694
H27   H     H_    0.052076 0.608545 0.260452 0.260261
O16   O     O_3   0.967294 0.927501 0.670339 -0.552742
C52   C     C_3   0.954120 0.034482 0.832103 0.301982
H28   H     H_    0.988083 0.090852 0.904052 0.257719
H29   H     H_    0.936321 0.975657 0.929177 0.174738
C53   C     C_3   0.921940 0.165634 0.790187 -0.278690
H30   H     H_    0.917461 0.154527 0.640775 0.249649
H31   H     H_    0.885513 0.154199 0.840920 0.271322
C54   C     C_3   0.942151 0.329500 0.881719 -0.932416
H32   H     H_    0.945532 0.345301 0.032529 0.265204
H33   H     H_    0.917263 0.418982 0.849340 0.264224
H34   H     H_    0.978247 0.348387 0.832710 0.271750
F9    F     F_    0.493311 0.947428 0.251678 -0.625761
F10   F     F_    0.506744 0.052572 0.748312 -0.626714

loop_
_geom_bond_atom_site_label_1
_geom_bond_atom_site_label_2
_ccdc_geom_bond_type
C31   O12   S    
C48   H18   S    
C29   O9    S    
C50   H23   S    
C30   O10   S    
C8    C26   A    
C44   H9    S    
C14   C18   A    
C34   C42   A    
C47   C48   S    
C53   H31   S    
O15   C49   S    
C39   C41   A    
N3    N4    D    
C23   O5    A    
C36   H3    S    
C19   C21   A    
C45   H12   S    
C1    O3    A    
C52   H29   S    
C9    C22   A    
C54   H32   S    
O16   C52   S    
C3    C18   A    
C11   C37   A    
C53   H30   S    
Cu1   O4    S    
Cu2   N3    S    
C32   N2    A    
C54   H33   S    
C40   O14   S    
C43   H7    S    
C8    F4    S    
C12   C36   A    
Cu1   O5    S    
C40   C42   A    
C20   F8    S    
H1    N3    S    
C50   H24   S    
C22   F6    S    
C35   H4    S    
C51   H26   S    
C51   H25   S    
C46   H15   S    
C46   H14   S    
C5    C29   A    
C10   C21   A    
C13   C19   A    
C14   C20   A    
C45   H11   S    
C4    C6    A    
C28   F10   S    
C52   C53   S    
C26   O16   S    
C5    C7    A    
C15   C26   A    
C6    C8    A    
C33   H6    S    
Cu1   Cu2   S    
C3    C9    A    
C31   N1    A    
Cu2   O2    S    
Cu1   N4    S    
C20   C22   A    
Cu2   O3    S    
C24   O6    A    
C54   H34   S    
C7    F3    S    
H2    N4    S    
C43   C44   S    
C39   O13   S    
C47   H16   S    
C4    C17   A    
C25   O15   S    
C6    C30   A    
C38   F2    S    
C50   C51   S    
C49   H22   S    
C48   H19   S    
C44   C45   S    
C48   H20   S    
C44   H10   S    
C4    C10   A    
C46   C47   S    
C19   F7    S    
C29   N1    A    
Cu1   O1    S    
C16   C25   A    
C15   C17   A    
C30   N2    A    
C34   H5    S    
C24   O8    A    
C47   H17   S    
O14   C46   S    
C3    C5    A    
C2    C28   S    
C2    O4    A    
C27   F9    S    
Cu2   O7    S    
C49   C50   S    
C12   C24   S    
C7    C25   A    
C13   C17   A    
C33   C41   A    
C11   C35   A    
C1    O1    A    
C37   C39   A    
C2    O2    A    
C52   H28   S    
C38   C40   A    
C21   F5    S    
Cu2   O6    S    
C37   F1    S    
C11   C23   S    
C33   C35   A    
C34   C36   A    
C53   C54   S    
C12   C38   A    
O13   C43   S    
C9    C31   A    
C10   C32   A    
C23   O7    A    
C45   H13   S    
C16   C18   A    
C49   H21   S    
C13   C16   A    
C27   C28   D    
C1    C27   S    
C14   C15   A    
C43   H8    S    
C41   N1    S    
C51   H27   S    
Cu1   O8    S    
C42   N2    S    
C32   O11   S    
