data_mof_unit_7285.cif
_audit_creation_date              2012-12-10T20:25:47-0500
_audit_creation_method            fapswitch 2.2
_symmetry_space_group_name_H-M    P1
_symmetry_Int_Tables_number       1
_space_group_crystal_system       triclinic
_cell_length_a                    8.613184
_cell_length_b                    10.67183
_cell_length_c                    9.874701
_cell_angle_alpha                 89.688885
_cell_angle_beta                  98.14089
_cell_angle_gamma                 90.303437
_cell_volume                      898.497726244

loop_
_atom_site_label
_atom_site_type_symbol
_atom_type_description
_atom_site_fract_x
_atom_site_fract_y
_atom_site_fract_z
_atom_type_partial_charge
Br1   Br    Br    0.670870 0.142390 0.243520 -0.549324
C1    C     C_R   0.511046 0.260230 0.501585 0.906888
C2    C     C_R   0.393538 0.429287 0.916274 0.198743
C3    C     C_3   0.219442 0.443135 0.891750 -0.138307
C4    C     C_R   0.201847 0.495131 0.464453 0.899392
C5    C     C_3   0.220325 0.439970 0.045791 -0.580444
C6    C     C_R   0.503246 0.739985 0.500121 0.885603
C7    C     C_R   0.798317 0.497762 0.534826 0.976271
C8    C     C_2   0.038572 0.474920 0.445503 -0.082687
C9    C     C_2   0.962524 0.502914 0.550216 -0.373756
C10   C     C_R   0.522284 0.063130 0.626205 0.001476
C11   C     C_R   0.542774 0.129051 0.507473 -0.182610
C12   C     C_R   0.584437 0.933911 0.396269 -0.246898
C13   C     C_R   0.593697 0.063867 0.397115 0.278119
C14   C     C_R   0.527088 0.871335 0.504036 -0.150552
C15   C     C_R   0.509222 0.935996 0.622164 0.045320
C16   C     C_3   0.384756 0.931813 0.714376 -0.097109
C17   C     C_3   0.402746 0.074016 0.722908 -0.097649
C18   C     C_R   0.394036 0.428748 0.058952 0.256780
C19   C     C_R   0.613398 0.561074 0.085562 -0.105486
C20   C     C_R   0.613451 0.561031 0.941667 -0.145951
H1    H     H_    0.702982 0.612735 0.898235 0.153055
H2    H     H_    0.979056 0.479019 0.239123 0.186113
H3    H     H_    0.020562 0.334473 0.306108 0.201374
H4    H     H_    0.021358 0.342868 0.823997 0.206225
H5    H     H_    0.178577 0.251953 0.872758 0.212062
H6    H     H_    0.228364 0.796327 0.635633 0.196991
H7    H     H_    0.209772 0.931760 0.546296 0.195402
H8    H     H_    0.573049 0.062454 0.893529 0.216659
H9    H     H_    0.511040 0.207456 0.851549 0.223369
H10   H     H_    0.181304 0.534349 0.844030 0.174453
H11   H     H_    0.182837 0.530139 0.086438 0.203521
H12   H     H_    0.165255 0.355128 0.084747 0.209690
H13   H     H_    0.020899 0.540691 0.645678 0.142038
H14   H     H_    0.615246 0.883015 0.309281 0.190226
H15   H     H_    0.420900 0.880250 0.811939 0.179760
H16   H     H_    0.296646 0.128417 0.681016 0.186515
H17   H     H_    0.702814 0.612918 0.150486 0.145656
N1    N     N_R   0.498950 0.499140 0.142680 -0.100308
N2    N     N_R   0.498950 0.499180 0.857030 -0.126293
N3    N     N_3   0.964106 0.418932 0.320233 -0.382227
N4    N     N_3   0.141698 0.334732 0.820901 -0.427157
N5    N     N_3   0.229816 0.893821 0.645200 -0.452803
N6    N     N_3   0.472782 0.115165 0.859486 -0.428822
O1    O     O_R   0.500020 0.316790 0.614690 -0.629577
O2    O     O_R   0.500000 0.316760 0.385350 -0.567156
O3    O     O_R   0.271760 0.500010 0.587850 -0.614881
O4    O     O_R   0.271740 0.499970 0.358500 -0.633395
O5    O     O_R   0.500000 0.683240 0.614650 -0.627066
O6    O     O_R   0.499980 0.683210 0.385310 -0.627007
O7    O     O_R   0.728260 0.500030 0.641500 -0.640979
O8    O     O_R   0.728240 0.499990 0.412150 -0.577818
Zn1   Zn    Zn3+2 0.500010 0.500020 0.653130 0.937116
Zn2   Zn    Zn3+2 0.499990 0.499980 0.346870 0.977444

loop_
_geom_bond_atom_site_label_1
_geom_bond_atom_site_label_2
_ccdc_geom_bond_type
H4    N4    S    
C5    H11   S    
C10   C11   A    
C16   N5    S    
C10   C17   S    
C2    C18   A    
H3    N3    S    
C16   H15   S    
C17   N6    S    
C19   H17   S    
C8    C9    D    
C7    O8    A    
H7    N5    S    
C8    N3    S    
H2    N3    S    
C5    H12   S    
O3    Zn1   S    
C1    C11   S    
O2    Zn2   S    
C6    C14   S    
C16   C17   S    
C6    O5    A    
O1    Zn1   S    
C9    H13   S    
C12   C13   A    
C1    O2    A    
O4    Zn2   S    
C5    C18   S    
C4    O3    A    
C7    O7    A    
H9    N6    S    
C4    C8    S    
O6    Zn2   S    
C20   N2    A    
C3    N4    S    
O5    Zn1   S    
C18   N1    A    
C3    C5    S    
C17   H16   S    
O8    Zn2   S    
C2    N2    A    
C12   H14   S    
C12   C14   A    
H8    N6    S    
C4    O4    A    
N1    Zn2   S    
C1    O1    A    
C2    C3    S    
C3    H10   S    
H6    N5    S    
C19   C20   A    
H5    N4    S    
C7    C9    S    
N2    Zn1   S    
C10   C15   A    
C19   N1    A    
Br1   C13   S    
C20   H1    S    
C14   C15   A    
C6    O6    A    
C11   C13   A    
C15   C16   S    
O7    Zn1   S    
