data_mof_unit_55253.cif
_audit_creation_date              2012-12-11T15:53:37-0500
_audit_creation_method            fapswitch 2.2
_symmetry_space_group_name_H-M    P1
_symmetry_Int_Tables_number       1
_space_group_crystal_system       triclinic
_cell_length_a                    6.928479
_cell_length_b                    14.508709
_cell_length_c                    15.996507
_cell_angle_alpha                 90.528452
_cell_angle_beta                  90.316289
_cell_angle_gamma                 90.061579
_cell_volume                      1607.92752831

loop_
_atom_site_label
_atom_site_type_symbol
_atom_type_description
_atom_site_fract_x
_atom_site_fract_y
_atom_site_fract_z
_atom_type_partial_charge
O1    O     O_R   0.361600 0.167310 0.164620 -0.544110
O2    O     O_R   0.638400 0.832690 0.835380 -0.544106
O3    O     O_R   0.691080 0.157570 0.338750 -0.502770
O4    O     O_R   0.308920 0.842430 0.661250 -0.502739
O5    O     O_R   0.861410 0.336420 0.339360 -0.524242
O6    O     O_R   0.138590 0.663580 0.660640 -0.524247
C1    C     C_R   0.522621 0.134532 0.366913 0.767826
C2    C     C_R   0.477378 0.865466 0.633085 0.767824
O7    O     O_R   0.691320 0.156280 0.165240 -0.549673
O8    O     O_R   0.308680 0.843720 0.834760 -0.549679
O9    O     O_R   0.861640 0.335130 0.164600 -0.545036
O10   O     O_R   0.138360 0.664870 0.835400 -0.545039
C3    C     C_R   0.521998 0.133688 0.136185 0.670656
C4    C     C_R   0.478002 0.866312 0.863815 0.670648
O11   O     O_R   0.361370 0.168600 0.339370 -0.544290
O12   O     O_R   0.638630 0.831400 0.660630 -0.544318
O13   O     O_3   0.527990 0.310540 0.251980 -0.375957
O14   O     O_3   0.472010 0.689460 0.748020 -0.375964
V1    V     V_3+5 0.802830 0.240980 0.251990 1.459669
V2    V     V_3+5 0.197170 0.759020 0.748010 1.459719
O15   O     O_R   0.191360 0.346160 0.165220 -0.547507
O16   O     O_R   0.808640 0.653840 0.834780 -0.547510
C5    C     C_R   0.022105 0.368301 0.136104 0.668658
C6    C     C_R   0.977895 0.631699 0.863896 0.668648
O17   O     O_R   0.191130 0.347440 0.338740 -0.549510
O18   O     O_R   0.808870 0.652560 0.661260 -0.549512
C7    C     C_R   0.022858 0.369881 0.367239 0.766837
C8    C     C_R   0.977141 0.630119 0.632761 0.766844
V3    V     V_3+5 0.302840 0.262750 0.251990 1.405244
V4    V     V_3+5 0.697160 0.737250 0.748010 1.405252
O19   O     O_3   0.027820 0.193180 0.251990 -0.367075
O20   O     O_3   0.972180 0.806820 0.748010 -0.367034
C9    C     C_3   0.910213 0.422937 0.520182 0.461427
C10   C     C_3   0.089785 0.577062 0.479818 0.461432
C11   C     C_3   0.082809 0.464545 0.568243 0.095272
C12   C     C_3   0.917190 0.535454 0.431757 0.095287
C13   C     C_3   0.985888 0.560289 0.563023 -0.147543
C14   C     C_3   0.014111 0.439711 0.436977 -0.147531
C15   C     C_3   0.810078 0.518379 0.515077 -0.325250
C16   C     C_3   0.189921 0.481621 0.484923 -0.325271
H1    H     H_    0.656519 0.534415 0.527953 0.129654
H2    H     H_    0.343481 0.465587 0.472047 0.129670
C17   C     C_R   0.820562 0.525378 0.967170 -0.159326
C18   C     C_R   0.179437 0.474622 0.032830 -0.159324
H3    H     H_    0.679730 0.543903 0.942992 0.116077
H4    H     H_    0.320270 0.456097 0.057008 0.116077
C19   C     C_R   0.831357 0.462435 0.032949 -0.153656
C20   C     C_R   0.168643 0.537565 0.967051 -0.153657
H5    H     H_    0.698395 0.434277 0.057216 0.117529
H6    H     H_    0.301605 0.565723 0.942784 0.117528
C21   C     C_R   0.010951 0.436136 0.066745 -0.042977
C22   C     C_R   0.989048 0.563864 0.933255 -0.042975
C23   C     C_R   0.671628 0.007352 0.453598 0.458133
C24   C     C_R   0.328358 0.992642 0.546398 0.458288
C25   C     C_R   0.657852 0.944507 0.519576 -0.321095
C26   C     C_R   0.342141 0.055490 0.480420 -0.321140
H7    H     H_    0.782058 0.902319 0.534345 0.188926
H8    H     H_    0.217935 0.097674 0.465643 0.188855
C27   C     C_R   0.486719 0.934993 0.565437 -0.210905
C28   C     C_R   0.513276 0.065004 0.434560 -0.210929
C29   C     C_R   0.679387 0.025425 0.033409 -0.160458
C30   C     C_R   0.320613 0.974574 0.966591 -0.160465
H9    H     H_    0.820121 0.043963 0.058109 0.113984
H10   H     H_    0.179879 0.956036 0.941891 0.113979
C31   C     C_R   0.668705 0.961527 0.967456 -0.153503
C32   C     C_R   0.331294 0.038472 0.032545 -0.153507
H11   H     H_    0.801616 0.932644 0.943479 0.116802
H12   H     H_    0.198383 0.067355 0.056522 0.116795
C33   C     C_R   0.489169 0.935193 0.933167 -0.041728
C34   C     C_R   0.510831 0.064806 0.066833 -0.041732
C35   C     C_3   0.173494 0.424273 0.646549 -0.785561
H13   H     H_    0.215910 0.351747 0.634195 0.219729
H14   H     H_    0.302908 0.465137 0.664589 0.204130
H15   H     H_    0.068538 0.426415 0.698638 0.192264
C36   C     C_3   0.826514 0.575729 0.353451 -0.785542
H16   H     H_    0.784101 0.648255 0.365806 0.219721
H17   H     H_    0.931477 0.573588 0.301364 0.192274
H18   H     H_    0.697100 0.534868 0.335407 0.204125
O21   O     O_3   0.827383 0.336103 0.536860 -0.554168
C37   C     C_3   0.685273 0.345051 0.598982 0.103108
H19   H     H_    0.559427 0.383876 0.574387 0.125347
H20   H     H_    0.743170 0.380436 0.655874 0.116097
C38   C     C_3   0.615989 0.249559 0.623439 -0.726866
H21   H     H_    0.739419 0.207912 0.646208 0.226446
H22   H     H_    0.507276 0.255239 0.673943 0.169016
H23   H     H_    0.549214 0.214232 0.568613 0.221116
O22   O     O_3   0.172605 0.663897 0.463133 -0.554145
C39   C     C_3   0.314750 0.654941 0.401027 0.103150
H24   H     H_    0.256919 0.619508 0.344147 0.116072
H25   H     H_    0.440619 0.616159 0.425655 0.125348
C40   C     C_3   0.383950 0.750433 0.376526 -0.726872
H26   H     H_    0.450618 0.785819 0.431345 0.221138
H27   H     H_    0.492728 0.744744 0.326049 0.168993
H28   H     H_    0.260493 0.792026 0.353704 0.226476
O23   O     O_3   0.842408 0.014890 0.409557 -0.537182
C41   C     C_3   0.871884 0.933893 0.361518 0.094486
H29   H     H_    0.736722 0.910407 0.329459 0.094157
H30   H     H_    0.927440 0.877670 0.401845 0.143139
C42   C     C_3   0.021057 0.953109 0.294445 -0.680077
H31   H     H_    0.158917 0.976068 0.323659 0.220419
H32   H     H_    0.047712 0.889521 0.257137 0.157877
H33   H     H_    0.967353 0.007539 0.251927 0.226308
O24   O     O_3   0.157566 0.985073 0.590429 -0.537174
C43   C     C_3   0.127736 0.066139 0.638327 0.094320
H34   H     H_    0.071621 0.122168 0.597922 0.143330
H35   H     H_    0.262859 0.089926 0.670239 0.094202
C44   C     C_3   0.978970 0.046848 0.705554 -0.679992
H36   H     H_    0.033201 0.992584 0.748125 0.226229
H37   H     H_    0.952067 0.110473 0.742775 0.157876
H38   H     H_    0.841129 0.023631 0.676491 0.220441

loop_
_geom_bond_atom_site_label_1
_geom_bond_atom_site_label_2
_ccdc_geom_bond_type
C29   C34   A    
C6    C22   S    
C32   H12   S    
O22   C39   S    
C25   C27   A    
C23   O23   S    
C10   C13   S    
O13   V3    S    
O23   C41   S    
O4    C2    A    
V1    O19   S    
C43   H35   S    
C19   H5    S    
O9    V1    S    
C9    C15   S    
C10   C16   S    
C11   C13   S    
O3    C1    A    
C2    C27   S    
C17   C22   A    
C3    C34   S    
C7    C14   S    
O12   V4    S    
C41   C42   S    
C29   H9    S    
O7    C3    A    
C30   H10   S    
C9    C11   S    
O5    C7    A    
O7    V1    S    
O6    C8    A    
C38   H21   S    
O8    V2    S    
C31   H11   S    
C41   H30   S    
C44   H36   S    
O3    V1    S    
O14   V4    S    
C16   H2    S    
C10   C12   S    
C20   H6    S    
C11   C35   S    
C2    O12   A    
C14   C16   S    
C44   H37   S    
C37   C38   S    
C43   H34   S    
C23   C28   A    
C18   H4    S    
O11   V3    S    
C24   C27   A    
C23   C25   A    
O17   V3    S    
C24   C26   A    
C30   C32   A    
C24   O24   S    
C37   H20   S    
O8    C4    A    
C40   H26   S    
C35   H14   S    
C9    O21   S    
C19   C21   A    
C1    O11   A    
O15   V3    S    
C26   C28   A    
C30   C33   A    
C36   H16   S    
C12   C36   S    
C40   H27   S    
C17   H3    S    
C5    C21   S    
C42   H31   S    
C39   C40   S    
C41   H29   S    
O10   V2    S    
O1    V3    S    
C38   H23   S    
C36   H17   S    
C18   C21   A    
C38   H22   S    
C39   H25   S    
O18   V4    S    
C25   H7    S    
C4    C33   S    
O16   C6    A    
O1    C3    A    
O13   V1    S    
C12   C14   S    
C1    C28   S    
V2    O20   S    
O16   V4    S    
C42   H32   S    
C12   C15   S    
C37   H19   S    
C35   H15   S    
O5    V1    S    
O17   C7    A    
O6    V2    S    
O10   C6    A    
O18   C8    A    
C9    C14   S    
O2    V4    S    
O15   C5    A    
C11   C16   S    
C35   H13   S    
V3    O19   S    
C40   H28   S    
V4    O20   S    
C32   C34   A    
C8    C13   S    
C31   C33   A    
O9    C5    A    
C44   H38   S    
C26   H8    S    
O14   V2    S    
C10   O22   S    
O2    C4    A    
C36   H18   S    
O21   C37   S    
O4    V2    S    
C29   C31   A    
C20   C22   A    
C42   H33   S    
C39   H24   S    
C15   H1    S    
C13   C15   S    
O24   C43   S    
C17   C19   A    
C43   C44   S    
C18   C20   A    
