data_mof_unit_7682.cif
_audit_creation_date              2012-12-11T16:17:44-0500
_audit_creation_method            fapswitch 2.2
_symmetry_space_group_name_H-M    P1
_symmetry_Int_Tables_number       1
_space_group_crystal_system       triclinic
_cell_length_a                    6.923155
_cell_length_b                    28.790588
_cell_length_c                    32.05378
_cell_angle_alpha                 101.161928
_cell_angle_beta                  89.716437
_cell_angle_gamma                 90.314513
_cell_volume                      6268.01584195

loop_
_atom_site_label
_atom_site_type_symbol
_atom_type_description
_atom_site_fract_x
_atom_site_fract_y
_atom_site_fract_z
_atom_type_partial_charge
O1    O     O_R   0.494350 0.453160 0.452490 -0.538953
O2    O     O_R   0.820990 0.455850 0.538220 -0.541259
O3    O     O_R   0.994300 0.546840 0.547510 -0.539157
C1    C     C_R   0.651802 0.445752 0.551791 0.710482
O4    O     O_R   0.823860 0.447580 0.452250 -0.539848
O5    O     O_R   0.997190 0.538510 0.460920 -0.538367
C2    C     C_R   0.655193 0.434699 0.436398 0.706824
O6    O     O_R   0.491450 0.461490 0.539080 -0.538520
O7    O     O_3   0.661790 0.529840 0.502950 -0.367822
V1    V     V_3+5 0.935470 0.494460 0.499450 1.408980
O8    O     O_R   0.327090 0.544150 0.461780 -0.539705
C3    C     C_R   0.158701 0.554341 0.448359 0.707326
O9    O     O_R   0.324210 0.552420 0.547750 -0.541051
C4    C     C_R   0.155086 0.565447 0.563566 0.693513
V2    V     V_3+5 0.435840 0.505540 0.500550 1.408435
O10   O     O_3   0.159650 0.470160 0.497050 -0.367003
C5    C     C_R   0.963848 0.619504 0.619961 -0.151891
H1    H     H_    0.830994 0.603588 0.606171 0.120800
C6    C     C_R   0.952236 0.655440 0.656232 -0.126358
H2    H     H_    0.810935 0.666044 0.669149 0.133483
C7    C     C_R   0.120288 0.677219 0.675580 0.019196
C8    C     C_R   0.300455 0.662071 0.657465 -0.123222
H3    H     H_    0.433078 0.677958 0.671393 0.139008
C9    C     C_R   0.312116 0.626079 0.621135 -0.153522
H4    H     H_    0.453293 0.615317 0.608227 0.118698
C10   C     C_R   0.143901 0.604224 0.601882 -0.052561
N1    N     N_R   0.269249 0.736371 0.733314 -0.271922
N2    N     N_R   0.257466 0.770338 0.768035 -0.276815
C11   C     C_R   0.083281 0.784846 0.785492 0.518896
N3    N     N_R   0.921384 0.763783 0.766571 -0.271639
N4    N     N_R   0.933167 0.729817 0.731850 -0.277025
C12   C     C_R   0.107351 0.715307 0.714394 0.518144
C13   C     C_R   0.890194 0.837924 0.842531 -0.121722
H5    H     H_    0.757602 0.821954 0.828662 0.139077
C14   C     C_R   0.878514 0.873869 0.878895 -0.148551
H6    H     H_    0.737357 0.884516 0.891885 0.118030
C15   C     C_R   0.046688 0.895816 0.898085 -0.051526
C16   C     C_R   0.226714 0.880700 0.879892 -0.153044
H7    H     H_    0.359526 0.896714 0.893616 0.118818
C17   C     C_R   0.238345 0.844805 0.843590 -0.123018
H8    H     H_    0.379622 0.834320 0.830589 0.133438
C18   C     C_R   0.070336 0.822916 0.824319 0.018785
C19   C     C_R   0.963777 0.671335 0.297445 0.635281
N5    N     N_R   0.117005 0.676294 0.325152 -0.569187
C20   C     C_R   0.258482 0.709489 0.323373 0.601233
C21   C     C_R   0.250995 0.738626 0.292850 0.002134
C22   C     C_R   0.093511 0.734447 0.264632 -0.096968
C23   C     C_R   0.946042 0.700921 0.267030 -0.070535
C24   C     C_R   0.397192 0.772058 0.290161 -0.130783
C25   C     C_R   0.387223 0.801147 0.260081 -0.152209
C26   C     C_R   0.230906 0.797550 0.231836 -0.015562
C27   C     C_R   0.084063 0.763991 0.234019 -0.023005
C28   C     C_R   0.928017 0.760053 0.205664 -0.072330
C29   C     C_R   0.779965 0.727338 0.208606 -0.244546
C30   C     C_R   0.786319 0.697918 0.239009 0.399273
C31   C     C_R   0.217723 0.826803 0.201414 0.579313
N6    N     N_R   0.067629 0.821573 0.172958 -0.567649
C32   C     C_R   0.923704 0.788970 0.174800 0.611876
O11   O     O_2   0.830749 0.637271 0.298855 -0.483721
O12   O     O_2   0.405374 0.714839 0.351437 -0.523671
H9    H     H_    0.520467 0.775807 0.311245 0.166555
H10   H     H_    0.503015 0.826332 0.258948 0.169332
O13   O     O_2   0.353885 0.860278 0.200384 -0.514841
O14   O     O_2   0.777482 0.784114 0.146589 -0.502324
H11   H     H_    0.657756 0.724609 0.187272 0.167353
C33   C     C_R   0.208721 0.851382 0.110628 0.417299
C34   C     C_R   0.200098 0.883146 0.082524 -0.189925
H12   H     H_    0.316406 0.883275 0.059795 0.153733
C35   C     C_R   0.040643 0.913085 0.082270 -0.138519
C36   C     C_R   0.889823 0.911527 0.111399 -0.189790
H13   H     H_    0.765422 0.934311 0.112022 0.144778
C37   C     C_R   0.900471 0.881605 0.140906 -0.088039
H14   H     H_    0.784867 0.882166 0.163882 0.179159
C38   C     C_R   0.058991 0.851297 0.141197 0.245263
C39   C     C_R   0.973799 0.643134 0.384449 -0.087819
H15   H     H_    0.844849 0.663922 0.383165 0.155513
C40   C     C_R   0.983052 0.613176 0.413998 -0.201829
H16   H     H_    0.860172 0.611334 0.434673 0.136621
C41   C     C_R   0.149896 0.586449 0.417239 -0.057940
C42   C     C_R   0.306805 0.590178 0.390005 -0.207870
H17   H     H_    0.436833 0.569822 0.391505 0.135371
C43   C     C_R   0.295577 0.619238 0.359698 -0.073008
H18   H     H_    0.416493 0.620487 0.338378 0.176963
C44   C     C_R   0.129090 0.646198 0.356605 0.343528
C45   C     C_R   0.633570 0.222897 0.837374 0.580808
N7    N     N_R   0.586653 0.175895 0.824474 -0.548980
C46   C     C_R   0.548730 0.157547 0.782445 0.581418
C47   C     C_R   0.553137 0.186760 0.751905 -0.032408
C48   C     C_R   0.600994 0.234970 0.764745 -0.016725
C49   C     C_R   0.643054 0.253243 0.807747 -0.032623
C50   C     C_R   0.510653 0.168908 0.708910 -0.136663
C51   C     C_R   0.514874 0.198557 0.679146 -0.138146
C52   C     C_R   0.562702 0.246758 0.691574 -0.030165
C53   C     C_R   0.606571 0.264980 0.734509 -0.015382
C54   C     C_R   0.655860 0.313141 0.747276 -0.029986
C55   C     C_R   0.698607 0.330959 0.790259 -0.137266
C56   C     C_R   0.691872 0.301414 0.820128 -0.137698
C57   C     C_R   0.568594 0.277255 0.662093 0.574898
N8    N     N_R   0.617371 0.324081 0.674930 -0.560883
C58   C     C_R   0.660812 0.342283 0.716645 0.574485
O15   O     O_2   0.668354 0.240472 0.878811 -0.519599
O16   O     O_2   0.508190 0.111036 0.770079 -0.516729
H19   H     H_    0.473235 0.131976 0.698109 0.174854
H20   H     H_    0.480769 0.183536 0.646354 0.174147
O17   O     O_2   0.527649 0.260113 0.620864 -0.517167
O18   O     O_2   0.707406 0.388498 0.728538 -0.517320
H21   H     H_    0.736957 0.367841 0.801010 0.174261
H22   H     H_    0.725100 0.316479 0.852956 0.174340
C59   C     C_R   0.803503 0.371358 0.631996 -0.084387
H23   H     H_    0.935773 0.361612 0.645936 0.118333
C60   C     C_R   0.812046 0.400657 0.601900 -0.192655
H24   H     H_    0.951966 0.413136 0.593445 0.128683
C61   C     C_R   0.642128 0.413952 0.583298 -0.058458
C62   C     C_R   0.463561 0.396945 0.595540 -0.195220
H25   H     H_    0.329962 0.406373 0.581925 0.130342
C63   C     C_R   0.455501 0.367377 0.625488 -0.083876
H26   H     H_    0.316912 0.354644 0.634474 0.117500
C64   C     C_R   0.625364 0.354487 0.644002 0.381138
C65   C     C_R   0.400236 0.121610 0.860615 -0.084832
H27   H     H_    0.275792 0.126624 0.841630 0.148602
C66   C     C_R   0.387352 0.089742 0.888488 0.315570
C67   C     C_R   0.548075 0.083683 0.914519 -0.167561
C68   C     C_R   0.720926 0.108088 0.909317 -0.210643
H28   H     H_    0.846839 0.104121 0.928214 0.180998
C69   C     C_R   0.733875 0.138198 0.879932 -0.070544
H29   H     H_    0.869458 0.155899 0.876170 0.148710
C70   C     C_R   0.573341 0.145441 0.855475 0.288105
C71   C     C_R   0.475322 0.370764 0.386607 -0.165845
H30   H     H_    0.347464 0.377840 0.406382 0.135023
C72   C     C_R   0.467646 0.335015 0.350172 -0.184512
H31   H     H_    0.334410 0.315226 0.343285 0.169913
C73   C     C_R   0.629281 0.324414 0.323223 0.004882
C74   C     C_R   0.801580 0.350999 0.333794 0.223506
C75   C     C_R   0.808854 0.386058 0.371231 -0.185580
H32   H     H_    0.940888 0.406168 0.379061 0.116328
C76   C     C_R   0.646382 0.396474 0.397777 -0.079295
N9    N     N_R   0.774542 0.264213 0.265496 -0.224981
N10   N     N_R   0.760735 0.229923 0.231105 -0.279745
C77   C     C_R   0.585810 0.215481 0.214177 0.503319
N11   N     N_R   0.425107 0.236816 0.233426 -0.267603
N12   N     N_R   0.439043 0.271147 0.267859 -0.268675
C78   C     C_R   0.614285 0.285861 0.284590 0.521745
C79   C     C_R   0.391168 0.162127 0.157569 -0.123584
H33   H     H_    0.258930 0.178071 0.171610 0.139788
C80   C     C_R   0.379013 0.126118 0.121236 -0.153773
H34   H     H_    0.237777 0.115357 0.108422 0.118562
C81   C     C_R   0.546913 0.104262 0.101847 -0.052230
C82   C     C_R   0.727039 0.119506 0.119795 -0.154157
H35   H     H_    0.859644 0.103590 0.105916 0.120405
C83   C     C_R   0.739133 0.155427 0.156031 -0.126976
H36   H     H_    0.880604 0.166007 0.168797 0.133856
C84   C     C_R   0.571515 0.177253 0.175508 0.023581
O19   O     O_R   0.699050 0.038480 0.960880 -0.532682
O20   O     O_R   0.366680 0.052470 0.047720 -0.540952
O21   O     O_R   0.193410 0.961530 0.039110 -0.539734
C85   C     C_R   0.535594 0.065504 0.063531 0.694102
O22   O     O_R   0.369510 0.044100 0.961740 -0.531418
O23   O     O_R   0.196260 0.953110 0.952520 -0.543736
C86   C     C_R   0.538211 0.053076 0.947201 0.713200
O24   O     O_R   0.696210 0.046900 0.047470 -0.540577
O25   O     O_3   0.528780 0.970170 0.997070 -0.369863
V3    V     V_3+5 0.255080 0.005530 0.000540 1.426736
O26   O     O_R   0.866350 0.947520 0.952280 -0.540813
C87   C     C_R   0.035477 0.934532 0.936442 0.693815
O27   O     O_R   0.863520 0.955880 0.038260 -0.537748
C88   C     C_R   0.031913 0.945673 0.051625 0.725511
V4    V     V_3+5 0.754720 0.994440 0.999470 1.425352
O28   O     O_3   0.030880 0.029830 0.002930 -0.362916
O29   O     O_3   0.637045 0.666560 0.241822 -0.601685
H37   H     H_    0.535786 0.669880 0.220832 0.291848
O30   O     O_3   0.363739 0.820864 0.106638 -0.609147
H38   H     H_    0.335582 0.795101 0.122231 0.319524
O31   O     O_3   0.217527 0.064510 0.888279 -0.641388
H39   H     H_    0.250257 0.031949 0.891473 0.291488
N13   N     N_3   0.966927 0.343481 0.306046 -0.622554
H40   H     H_    0.082546 0.364844 0.319117 0.221419
H41   H     H_    0.930134 0.354834 0.278059 0.241055

loop_
_geom_bond_atom_site_label_1
_geom_bond_atom_site_label_2
_ccdc_geom_bond_type
C23   C30   A    
N9    C78   A    
C20   O12   S    
C52   C53   A    
C11   C18   S    
O29   H37   S    
C72   C73   A    
C54   C55   A    
C1    O6    A    
C71   H30   S    
C62   H25   S    
C68   H28   S    
N13   H41   S    
C29   H11   S    
O31   H39   S    
N5    C20   A    
C21   C24   A    
C15   C16   A    
C57   O17   S    
C5    C10   A    
C7    C8    A    
N2    C11   A    
C6    C7    A    
C9    C10   A    
C71   C76   A    
O5    C3    A    
N3    N4    A    
C57   N8    A    
C39   C44   A    
C68   C69   A    
O21   C88   A    
C79   H33   S    
C33   C38   A    
C3    C41   S    
C77   C84   S    
C31   N6    A    
C26   C31   A    
O24   V4    S    
C48   C53   A    
C35   C88   S    
C5    C6    A    
C29   C30   A    
C56   H22   S    
O8    V2    S    
C66   O31   S    
C81   C82   A    
C63   C64   A    
C73   C74   A    
C67   C86   S    
C36   H13   S    
O1    V2    S    
C19   C23   A    
C49   C56   A    
O20   C85   A    
C19   O11   S    
C17   C18   A    
C33   C34   A    
N1    C12   A    
O22   C86   A    
O1    C2    A    
O9    C4    A    
O19   V4    S    
C32   O14   S    
C35   C36   A    
C8    H3    S    
C80   C81   A    
C59   C64   A    
O25   V3    S    
C65   C66   A    
O21   V3    S    
C73   C78   S    
C16   H7    S    
C77   N11   A    
C31   O13   S    
C24   H9    S    
C26   C27   A    
C22   C23   A    
C1    C61   S    
C85   O24   A    
C9    H4    S    
C42   C43   A    
C50   H19   S    
V4    O28   S    
O4    C2    A    
C51   H20   S    
C54   C58   A    
C37   H14   S    
C75   C76   A    
C25   C26   A    
C40   H16   S    
C4    C10   S    
C34   H12   S    
C34   C35   A    
C14   H6    S    
N6    C38   S    
O19   C86   A    
O2    C1    A    
C39   H15   S    
C11   N3    A    
C46   O16   S    
C39   C40   A    
C33   O30   S    
N13   H40   S    
C47   C50   A    
O26   V4    S    
C45   C49   A    
C55   C56   A    
C5    H1    S    
C66   C67   A    
C40   C41   A    
C60   C61   A    
N11   N12   A    
C65   H27   S    
C81   C85   S    
C74   N13   S    
O30   H38   S    
C45   N7    A    
O25   V4    S    
O3    C4    A    
C15   C87   S    
V3    O28   S    
C37   C38   A    
C17   H8    S    
C55   H21   S    
C43   H18   S    
O6    V2    S    
C43   C44   A    
O9    V2    S    
C19   N5    A    
C69   H29   S    
C25   H10   S    
C83   C84   A    
C13   C18   A    
O2    V1    S    
C80   H34   S    
C50   C51   A    
C45   O15   S    
C27   C28   A    
C61   C62   A    
O7    V1    S    
C79   C80   A    
C48   C49   A    
C21   C22   A    
C79   C84   A    
C60   H24   S    
C14   C15   A    
N7    C70   S    
N7    C46   A    
O20   V3    S    
N4    C12   A    
C82   C83   A    
C42   H17   S    
N5    C44   S    
C71   C72   A    
O5    V1    S    
C62   C63   A    
C28   C32   A    
C28   C29   A    
C22   C27   A    
O23   C87   A    
N9    N10   A    
C75   H32   S    
C58   O18   S    
N8    C58   A    
C6    H2    S    
C59   C60   A    
C72   H31   S    
O7    V2    S    
O4    V1    S    
O3    V1    S    
V1    O10   S    
N12   C78   A    
N8    C64   S    
C16   C17   A    
N6    C32   A    
C74   C75   A    
C52   C57   A    
C51   C52   A    
C13   C14   A    
C13   H5    S    
C63   H26   S    
C8    C9    A    
C82   H35   S    
C53   C54   A    
O26   C87   A    
N10   C77   A    
O23   V3    S    
C41   C42   A    
C7    C12   S    
C20   C21   A    
O27   C88   A    
C2    C76   S    
C47   C48   A    
C46   C47   A    
O27   V4    S    
C24   C25   A    
N1    N2    A    
C69   C70   A    
C83   H36   S    
C36   C37   A    
C67   C68   A    
C59   H23   S    
O22   V3    S    
C30   O29   S    
V2    O10   S    
O8    C3    A    
C65   C70   A    
