data_mof_unit_11301.cif
_audit_creation_date              2012-12-11T16:31:26-0500
_audit_creation_method            fapswitch 2.2
_symmetry_space_group_name_H-M    P1
_symmetry_Int_Tables_number       1
_space_group_crystal_system       triclinic
_cell_length_a                    6.941774
_cell_length_b                    18.33673
_cell_length_c                    20.137648
_cell_angle_alpha                 68.34813
_cell_angle_beta                  90.649971
_cell_angle_gamma                 90.797308
_cell_volume                      2382.16613759

loop_
_atom_site_label
_atom_site_type_symbol
_atom_type_description
_atom_site_fract_x
_atom_site_fract_y
_atom_site_fract_z
_atom_type_partial_charge
O1    O     O_R   0.488990 0.443920 0.942160 -0.537481
O2    O     O_R   0.823840 0.406530 0.087600 -0.538407
O3    O     O_R   0.999650 0.556080 0.057840 -0.536326
C1    C     C_R   0.655038 0.383422 0.115045 0.692609
O4    O     O_R   0.818390 0.434590 0.944530 -0.539613
O5    O     O_R   0.994160 0.584350 0.913750 -0.536348
C2    C     C_R   0.648694 0.420415 0.924123 0.723115
O6    O     O_R   0.494480 0.415650 0.086250 -0.537300
O7    O     O_3   0.662600 0.549100 0.990070 -0.366905
V1    V     V_3+5 0.935320 0.490890 0.001840 1.422461
O8    O     O_R   0.324240 0.593470 0.912400 -0.538578
C3    C     C_R   0.155255 0.616526 0.884947 0.693163
O9    O     O_R   0.329690 0.565410 0.055470 -0.538021
C4    C     C_R   0.162033 0.579855 0.075737 0.721863
V2    V     V_3+5 0.435990 0.509110 0.998160 1.423442
O10   O     O_3   0.158840 0.450900 0.009930 -0.367272
C5    C     C_3   0.929943 0.736714 0.211391 -0.327205
C6    C     C_3   0.212339 0.662237 0.281959 -0.333263
C7    C     C_3   0.202543 0.709980 0.331581 -0.333180
H1    H     H_    0.820910 0.755154 0.305849 0.138019
H2    H     H_    0.834871 0.683957 0.233028 0.146703
H3    H     H_    0.363776 0.644292 0.279622 0.165938
H4    H     H_    0.123295 0.607901 0.304926 0.143386
H5    H     H_    0.108183 0.678540 0.377926 0.139739
H6    H     H_    0.348887 0.714053 0.353208 0.137024
C8    C     C_1   0.110103 0.875979 0.377324 -0.193005
C9    C     C_3   0.139635 0.711377 0.205546 0.285636
C10   C     C_3   0.920840 0.784859 0.260840 -0.330499
C11   C     C_3   0.123972 0.793430 0.290391 0.292724
C12   C     C_3   0.258238 0.834447 0.225838 -0.326283
C13   C     C_3   0.267001 0.786573 0.176134 -0.328898
C14   C     C_1   0.115852 0.838984 0.338189 -0.102565
C15   C     C_1   0.148568 0.664938 0.158394 -0.090368
C16   C     C_1   0.155332 0.626461 0.120482 -0.188148
H7    H     H_    0.217455 0.823765 0.121492 0.140309
H8    H     H_    0.418987 0.770391 0.171732 0.140114
H9    H     H_    0.205130 0.894541 0.194807 0.138653
H10   H     H_    0.873751 0.772744 0.157392 0.136065
H11   H     H_    0.860979 0.843918 0.230313 0.133665
H12   H     H_    0.405990 0.840812 0.245226 0.137673
H13   H     H_    0.424727 0.546948 0.692259 0.107100
C17   C     C_R   0.994778 0.765061 0.876193 -0.134315
C18   C     C_R   0.915208 0.835367 0.873726 -0.122166
C19   C     C_R   0.902525 0.898686 0.809235 -0.093243
C20   C     C_R   0.969386 0.892194 0.746707 -0.130938
C21   C     C_R   0.049253 0.821290 0.747298 0.062394
C22   C     C_R   0.062169 0.756326 0.813463 0.069777
C23   C     C_R   0.119514 0.815034 0.683719 -0.184858
C24   C     C_R   0.202792 0.743737 0.686420 0.070128
C25   C     C_R   0.215800 0.678786 0.752585 0.068461
C26   C     C_R   0.145251 0.684987 0.816153 -0.184287
C27   C     C_R   0.270484 0.735063 0.623699 -0.131971
C28   C     C_R   0.350642 0.664857 0.626187 -0.124141
C29   C     C_R   0.363514 0.601562 0.690683 -0.126659
C30   C     C_R   0.296192 0.607967 0.753188 -0.141952
H14   H     H_    0.004345 0.718117 0.927946 0.104442
H15   H     H_    0.864370 0.840895 0.922261 0.111542
H16   H     H_    0.841790 0.953377 0.807679 0.120822
H17   H     H_    0.958917 0.943645 0.698217 0.114238
H18   H     H_    0.260808 0.781987 0.571938 0.102893
H19   H     H_    0.401789 0.659388 0.577665 0.107952
H20   H     H_    0.306798 0.556516 0.801668 0.110241
C31   C     C_R   0.764244 0.227044 0.126266 -0.137144
C32   C     C_R   0.817713 0.152716 0.129857 -0.121843
C33   C     C_R   0.807139 0.089088 0.194204 -0.126237
C34   C     C_R   0.742677 0.099274 0.255438 -0.143365
C35   C     C_R   0.689223 0.174216 0.253737 0.067141
C36   C     C_R   0.700555 0.239514 0.187751 0.072658
C37   C     C_R   0.621468 0.184389 0.315983 -0.172265
C38   C     C_R   0.565727 0.259906 0.312215 0.070468
C39   C     C_R   0.576784 0.325146 0.246289 0.017402
C40   C     C_R   0.644425 0.315074 0.183959 -0.172347
C41   C     C_R   0.502639 0.272255 0.373762 -0.179738
C42   C     C_R   0.448428 0.346322 0.370378 -0.158667
C43   C     C_R   0.457528 0.410484 0.305780 0.257898
C44   C     C_R   0.523079 0.399980 0.244634 -0.149527
H21   H     H_    0.772007 0.274221 0.074611 0.103685
H22   H     H_    0.866343 0.144374 0.082284 0.109883
H23   H     H_    0.847685 0.031346 0.196617 0.107543
H24   H     H_    0.733887 0.047538 0.303772 0.108414
H25   H     H_    0.495636 0.225096 0.425443 0.116873
H26   H     H_    0.399982 0.353570 0.418487 0.108357
H27   H     H_    0.532257 0.451521 0.196119 0.124051
O11   O     O_R   0.770890 0.084490 0.414040 -0.537001
O12   O     O_R   0.445980 0.065450 0.555510 -0.537259
O13   O     O_R   0.270670 0.915620 0.586180 -0.535097
C45   C     C_R   0.615438 0.079572 0.576127 0.724877
O14   O     O_R   0.441480 0.093500 0.412450 -0.538795
O15   O     O_R   0.266140 0.943870 0.442100 -0.537409
C46   C     C_R   0.610357 0.116201 0.384874 0.692242
O16   O     O_R   0.775410 0.056240 0.558120 -0.537643
O17   O     O_3   0.602660 0.950990 0.510100 -0.368611
V3    V     V_3+5 0.329740 0.009100 0.498130 1.428519
O18   O     O_R   0.936120 0.934420 0.444240 -0.541286
C47   C     C_R   0.103793 0.920741 0.423554 0.721923
O19   O     O_R   0.940610 0.906370 0.587310 -0.539366
C48   C     C_R   0.109526 0.883457 0.614918 0.696039
V4    V     V_3+5 0.829110 0.990690 0.501470 1.421844
O20   O     O_3   0.106080 0.049010 0.489880 -0.366102
C49   C     C_3   0.830161 0.243923 0.710494 -0.354310
C50   C     C_3   0.481617 0.275735 0.682262 -0.329529
C51   C     C_3   0.482256 0.323346 0.732198 -0.332595
H28   H     H_    0.875835 0.353517 0.729011 0.141355
H29   H     H_    0.871812 0.283037 0.655528 0.144851
H30   H     H_    0.333911 0.252548 0.679667 0.146537
H31   H     H_    0.519193 0.315507 0.627059 0.139141
H32   H     H_    0.517156 0.385950 0.700525 0.136540
H33   H     H_    0.335631 0.321455 0.754636 0.139656
C52   C     C_1   0.638320 0.374444 0.878991 -0.194587
C53   C     C_3   0.627802 0.207301 0.709072 0.240311
C54   C     C_3   0.832227 0.291761 0.760235 -0.332295
C55   C     C_3   0.631019 0.289820 0.793759 0.276813
C56   C     C_3   0.575794 0.202900 0.836656 -0.357083
C57   C     C_3   0.576901 0.153715 0.787598 -0.130311
C58   C     C_1   0.633629 0.336297 0.840819 -0.092725
C59   C     C_1   0.628145 0.162141 0.660742 -0.084373
C60   C     C_1   0.624957 0.124849 0.621844 -0.179340
H34   H     H_    0.689210 0.107857 0.807895 0.105991
H35   H     H_    0.680330 0.177326 0.881331 0.133556
H36   H     H_    0.939872 0.196887 0.729461 0.166502
H37   H     H_    0.941953 0.267104 0.803197 0.143769
H38   H     H_    0.432064 0.200491 0.861527 0.141638
N1    N     N_3   0.402892 0.487263 0.301270 -0.693905
H39   H     H_    0.362186 0.486100 0.351495 0.215838
H40   H     H_    0.280453 0.502680 0.268560 0.222632
C61   C     C_1   0.390939 0.112005 0.791912 0.282953
N2    N     N_1   0.245399 0.079311 0.795253 -0.385238

loop_
_geom_bond_atom_site_label_1
_geom_bond_atom_site_label_2
_ccdc_geom_bond_type
C49   C53   S    
C50   C51   S    
C33   H23   S    
C45   O16   A    
C54   H37   S    
C41   C42   A    
C51   C55   S    
C54   C55   S    
C1    O6    A    
O17   V4    S    
N1    H39   S    
C20   C21   A    
C9    C15   S    
C8    C14   T    
C23   C48   S    
C61   N2    T    
C43   N1    S    
C10   C11   S    
C45   C60   S    
C11   C14   S    
O5    C3    A    
C12   C13   S    
C57   C61   S    
N1    H40   S    
O18   V4    S    
V2    O10   S    
V4    O20   S    
C30   H20   S    
C49   H29   S    
C59   C60   T    
H28   C54   S    
C6    C7    S    
C21   C22   A    
O13   C48   A    
C27   H18   S    
C17   H14   S    
C29   C30   A    
O12   V3    S    
C56   H38   S    
C19   H16   S    
O19   V4    S    
C51   H33   S    
C38   C39   A    
C49   H36   S    
O7    V1    S    
V3    O20   S    
C5    H10   S    
C34   C35   A    
C56   H35   S    
O9    C4    A    
O18   C47   A    
O11   C46   A    
C42   H26   S    
C35   C36   A    
C44   H27   S    
C41   H25   S    
C55   C56   S    
C25   C26   A    
O12   C45   A    
C50   H30   S    
C21   C23   A    
C42   C43   A    
C6    C9    S    
C9    C13   S    
C6    H4    S    
C5    C9    S    
C50   H31   S    
O4    C2    A    
C18   H15   S    
C22   C26   A    
H1    C10   S    
C10   H11   S    
C50   C53   S    
C28   C29   A    
C5    H2    S    
C2    C52   S    
C12   H9    S    
C35   C37   A    
O15   C47   A    
O2    C1    A    
C43   C44   A    
O5    V1    S    
C11   C12   S    
O13   V3    S    
C36   C40   A    
C24   C27   A    
O19   C48   A    
C38   C41   A    
C15   C16   T    
C12   H12   S    
C51   H32   S    
C57   H34   S    
O3    C4    A    
O1    V2    S    
C23   C24   A    
O14   C46   A    
C33   C34   A    
O6    V2    S    
O8    V2    S    
O9    V2    S    
C18   C19   A    
C13   H7    S    
C17   C18   A    
C28   H19   S    
C37   C46   S    
O2    V1    S    
C53   C59   S    
C1    C40   S    
C3    C26   S    
C27   C28   A    
C56   C57   S    
C31   H21   S    
C8    C47   S    
C53   C57   S    
O14   V3    S    
C20   H17   S    
O1    C2    A    
C5    C10   S    
C32   H22   S    
C19   C20   A    
C4    C16   S    
O8    C3    A    
C34   H24   S    
C31   C36   A    
C25   C30   A    
O11   V4    S    
C32   C33   A    
C6    H3    S    
C7    H5    S    
O7    V2    S    
O4    V1    S    
O3    V1    S    
V1    O10   S    
C39   C44   A    
O17   V3    S    
C17   C22   A    
O16   V4    S    
O15   V3    S    
C37   C38   A    
C7    H6    S    
H13   C29   S    
C52   C58   T    
C31   C32   A    
C39   C40   A    
C49   C54   S    
C24   C25   A    
C13   H8    S    
C55   C58   S    
C7    C11   S    
