data_mof_unit_52654.cif
_audit_creation_date              2012-12-11T15:44:43-0500
_audit_creation_method            fapswitch 2.2
_symmetry_space_group_name_H-M    P1
_symmetry_Int_Tables_number       1
_space_group_crystal_system       triclinic
_cell_length_a                    19.15392
_cell_length_b                    10.895158
_cell_length_c                    18.725039
_cell_angle_alpha                 90.677514
_cell_angle_beta                  90.133831
_cell_angle_gamma                 90.091892
_cell_volume                      3907.34542445

loop_
_atom_site_label
_atom_site_type_symbol
_atom_type_description
_atom_site_fract_x
_atom_site_fract_y
_atom_site_fract_z
_atom_type_partial_charge
C1    C     C_R   0.760281 0.535287 0.646609 0.533804
C2    C     C_R   0.238350 0.532772 0.354072 0.535045
C3    C     C_R   0.260281 0.035287 0.646609 0.533804
C4    C     C_R   0.738350 0.032772 0.354072 0.535044
C5    C     C_R   0.720720 0.000640 0.549485 -0.163803
C6    C     C_R   0.163271 0.117420 0.480779 -0.168346
C7    C     C_R   0.220720 0.500640 0.549485 -0.163803
C8    C     C_R   0.663271 0.617420 0.480779 -0.168346
C9    C     C_R   0.709730 0.985179 0.476395 -0.111693
C10   C     C_R   0.174779 0.091379 0.552776 -0.162488
C11   C     C_R   0.209730 0.485179 0.476395 -0.111693
C12   C     C_R   0.674779 0.591379 0.552776 -0.162488
C13   C     C_3   0.794628 0.283491 0.437059 -0.295598
C14   C     C_3   0.367136 0.145154 0.531620 -0.251667
C15   C     C_3   0.294628 0.783491 0.437059 -0.295598
C16   C     C_3   0.867136 0.645154 0.531620 -0.251667
C17   C     C_3   0.803942 0.303220 0.516713 -0.255278
C18   C     C_3   0.354006 0.172069 0.453370 -0.263346
C19   C     C_3   0.303943 0.803220 0.516713 -0.255278
C20   C     C_3   0.854006 0.672069 0.453370 -0.263346
C21   C     C_R   0.762031 0.098307 0.572981 0.034813
C22   C     C_R   0.218171 0.160243 0.438348 0.000517
C23   C     C_R   0.262031 0.598307 0.572981 0.034813
C24   C     C_R   0.718171 0.660243 0.438348 0.000517
C25   C     C_R   0.002495 0.347577 0.428426 -0.047142
C26   C     C_R   0.009163 0.329795 0.578463 -0.048670
C27   C     C_R   0.502495 0.847577 0.428426 -0.047142
C28   C     C_R   0.509163 0.829795 0.578463 -0.048670
C29   C     C_R   0.965774 0.131020 0.420646 -0.089409
C30   C     C_R   0.990925 0.104763 0.566062 -0.079959
C31   C     C_R   0.465774 0.631020 0.420646 -0.089409
C32   C     C_R   0.490925 0.604763 0.566062 -0.079959
C33   C     C_R   0.957768 0.016906 0.452202 -0.118359
C34   C     C_R   0.971763 0.003193 0.524482 -0.127784
C35   C     C_R   0.457768 0.516906 0.452202 -0.118359
C36   C     C_R   0.471763 0.503193 0.524482 -0.127784
C37   C     C_R   0.996107 0.223050 0.535980 0.004985
C38   C     C_R   0.988316 0.234122 0.461136 -0.010550
C39   C     C_R   0.496107 0.723050 0.535980 0.004984
C40   C     C_R   0.488316 0.734122 0.461136 -0.010550
C41   C     C_R   0.029603 0.439029 0.545293 0.002331
C42   C     C_R   0.015469 0.454125 0.472338 0.007605
C43   C     C_R   0.529603 0.939029 0.545293 0.002332
C44   C     C_R   0.515469 0.954125 0.472338 0.007605
C45   C     C_R   0.773352 0.123783 0.646734 0.531439
C46   C     C_R   0.208580 0.172535 0.361201 0.562192
C47   C     C_R   0.273352 0.623783 0.646734 0.531439
C48   C     C_R   0.708580 0.672535 0.361201 0.562192
C49   C     C_R   0.058840 0.537544 0.585295 -0.083028
C50   C     C_R   0.015702 0.576388 0.446303 -0.073359
C51   C     C_R   0.558840 0.037544 0.585295 -0.083028
C52   C     C_R   0.515702 0.076388 0.446303 -0.073359
C53   C     C_R   0.066150 0.653425 0.555842 -0.120489
C54   C     C_R   0.042250 0.673776 0.487062 -0.131162
C55   C     C_R   0.566150 0.153425 0.555843 -0.120489
C56   C     C_R   0.542250 0.173776 0.487062 -0.131162
C57   C     C_R   0.747445 0.063131 0.073229 0.017891
C58   C     C_R   0.251181 0.074678 0.924197 0.013122
C59   C     C_R   0.247445 0.563130 0.073229 0.017891
C60   C     C_R   0.751181 0.574678 0.924197 0.013122
C61   C     C_R   0.778893 0.976057 0.028467 0.034714
C62   C     C_R   0.188398 0.046754 0.956939 0.023007
C63   C     C_R   0.278893 0.476057 0.028467 0.034714
C64   C     C_R   0.688398 0.546754 0.956939 0.023007
C65   C     C_R   0.779538 0.987242 0.955730 0.006570
C66   C     C_R   0.181795 0.057141 0.029677 0.017559
C67   C     C_R   0.279538 0.487241 0.955730 0.006570
C68   C     C_R   0.681795 0.557141 0.029677 0.017559
C69   C     C_R   0.713027 0.174467 0.967880 -0.154039
C70   C     C_R   0.303815 0.104754 0.040893 -0.169454
C71   C     C_R   0.213026 0.674467 0.967880 -0.154039
C72   C     C_R   0.803815 0.604754 0.040893 -0.169454
C73   C     C_R   0.710006 0.158787 0.041970 -0.181994
C74   C     C_R   0.309548 0.099975 0.966812 -0.165336
C75   C     C_R   0.210005 0.658786 0.041970 -0.181994
C76   C     C_R   0.809548 0.599975 0.966812 -0.165336
C77   C     C_3   0.850050 0.920618 0.030152 -0.253688
C78   C     C_3   0.119283 0.102632 0.942211 -0.276269
C79   C     C_3   0.350050 0.420619 0.030152 -0.253688
C80   C     C_3   0.619283 0.602632 0.942211 -0.276269
C81   C     C_3   0.848511 0.923689 0.949206 -0.280875
C82   C     C_3   0.112410 0.118575 0.021885 -0.249464
C83   C     C_3   0.348511 0.423689 0.949206 -0.280875
C84   C     C_3   0.612410 0.618575 0.021885 -0.249464
C85   C     C_R   0.752318 0.092442 0.924704 0.029290
C86   C     C_R   0.238841 0.090178 0.072826 0.019143
C87   C     C_R   0.252318 0.592442 0.924704 0.029289
C88   C     C_R   0.738841 0.590178 0.072825 0.019143
C89   C     C_R   0.973694 0.343958 0.648283 0.535367
C90   C     C_R   0.028749 0.347890 0.353871 0.519100
C91   C     C_R   0.473694 0.843958 0.648283 0.535367
C92   C     C_R   0.528749 0.847890 0.353871 0.519100
C93   C     C_R   0.986934 0.345673 0.082179 -0.005188
C94   C     C_R   0.946775 0.351735 0.937923 0.010578
C95   C     C_R   0.486934 0.845673 0.082179 -0.005187
C96   C     C_R   0.446775 0.851735 0.937923 0.010578
C97   C     C_R   0.978491 0.456787 0.046522 -0.007274
C98   C     C_R   0.958185 0.461327 0.976725 -0.001519
C99   C     C_R   0.478491 0.956788 0.046522 -0.007274
C100  C     C_R   0.458185 0.961328 0.976725 -0.001519
C101  C     C_R   0.942705 0.241589 0.976531 -0.157980
C102  C     C_R   0.962078 0.238485 0.048978 -0.168435
C103  C     C_R   0.442705 0.741589 0.976531 -0.157980
C104  C     C_R   0.462078 0.738485 0.048978 -0.168435
C105  C     C_3   0.023736 0.569499 0.043373 -0.115343
C106  C     C_3   0.000542 0.577984 0.965450 -0.131369
C107  C     C_3   0.523737 0.069499 0.043373 -0.115343
C108  C     C_3   0.500542 0.077984 0.965450 -0.131369
C109  C     C_R   0.760530 0.533213 0.851767 0.533688
C110  C     C_R   0.239413 0.531072 0.147500 0.543403
C111  C     C_R   0.260530 0.033213 0.851767 0.533688
C112  C     C_R   0.739413 0.031072 0.147500 0.543402
C113  C     C_R   0.773363 0.129297 0.853988 0.544764
C114  C     C_R   0.225803 0.127737 0.145863 0.551884
C115  C     C_R   0.273363 0.629297 0.853988 0.544764
C116  C     C_R   0.725803 0.627737 0.145863 0.551884
C117  C     C_R   0.936055 0.352888 0.860693 0.571555
C118  C     C_R   0.028112 0.347056 0.147439 0.530469
C119  C     C_R   0.436055 0.852888 0.860693 0.571555
C120  C     C_R   0.528111 0.847056 0.147439 0.530469
C121  C     C_R   0.742515 0.064256 0.427757 0.037216
C122  C     C_R   0.241883 0.105815 0.583101 0.001804
C123  C     C_R   0.242515 0.564256 0.427757 0.037216
C124  C     C_R   0.741883 0.605815 0.583101 0.001804
C125  C     C_R   0.791349 0.149081 0.451624 0.002114
C126  C     C_R   0.291646 0.170430 0.544044 0.011019
C127  C     C_R   0.291349 0.649081 0.451624 0.002114
C128  C     C_R   0.791646 0.670430 0.544044 0.011019
C129  C     C_R   0.799830 0.167348 0.523922 0.056051
C130  C     C_R   0.279909 0.196846 0.472784 0.031543
C131  C     C_R   0.299830 0.667348 0.523922 0.056051
C132  C     C_R   0.779909 0.696846 0.472784 0.031543
Cr1   Cr    Cr6+3 0.885860 0.491680 0.749630 0.997104
Cr2   Cr    Cr6+3 0.114140 0.491680 0.250370 1.012487
Cr3   Cr    Cr6+3 0.385860 0.991680 0.749630 0.997103
Cr4   Cr    Cr6+3 0.614140 0.991680 0.250370 1.012487
Cr5   Cr    Cr6+3 0.730490 0.332970 0.748720 0.980160
Cr6   Cr    Cr6+3 0.269510 0.332970 0.251280 0.983215
Cr7   Cr    Cr6+3 0.230490 0.832970 0.748720 0.980160
Cr8   Cr    Cr6+3 0.769510 0.832970 0.251280 0.983215
Cr9   Cr    Cr6+3 0.887570 0.179310 0.750150 0.993911
Cr10  Cr    Cr6+3 0.112430 0.179310 0.249850 0.987253
Cr11  Cr    Cr6+3 0.387570 0.679310 0.750150 0.993911
Cr12  Cr    Cr6+3 0.612430 0.679310 0.249850 0.987252
H1    H     H_    0.695624 0.940054 0.587043 0.104250
H2    H     H_    0.113286 0.094850 0.457118 0.156616
H3    H     H_    0.195624 0.440054 0.587043 0.104250
H4    H     H_    0.613286 0.594850 0.457118 0.156616
H5    H     H_    0.087879 0.728280 0.587317 0.114892
H6    H     H_    0.043793 0.765292 0.465254 0.107463
H7    H     H_    0.587879 0.228280 0.587317 0.114892
H8    H     H_    0.543793 0.265292 0.465254 0.107463
H9    H     H_    0.688920 0.255217 0.945423 0.148264
H10   H     H_    0.348762 0.126540 0.072404 0.120572
H11   H     H_    0.188920 0.755216 0.945423 0.148264
H12   H     H_    0.848762 0.626540 0.072404 0.120573
H13   H     H_    0.681352 0.223447 0.074873 0.129102
H14   H     H_    0.359102 0.115752 0.942215 0.129993
H15   H     H_    0.181351 0.723445 0.074873 0.129102
H16   H     H_    0.859102 0.615752 0.942215 0.129993
H17   H     H_    0.850474 0.827793 0.052494 0.162231
H18   H     H_    0.081828 0.034864 0.919079 0.138603
H19   H     H_    0.350474 0.327793 0.052495 0.162231
H20   H     H_    0.581828 0.534864 0.919079 0.138603
H21   H     H_    0.889471 0.983599 0.054079 0.136801
H22   H     H_    0.122986 0.190121 0.912991 0.131836
H23   H     H_    0.389472 0.483599 0.054079 0.136801
H24   H     H_    0.622985 0.690121 0.912991 0.131836
H25   H     H_    0.891200 0.978031 0.925947 0.147260
H26   H     H_    0.113656 0.216259 0.039620 0.148090
H27   H     H_    0.391200 0.478031 0.925947 0.147260
H28   H     H_    0.613656 0.716260 0.039620 0.148090
H29   H     H_    0.842639 0.831791 0.923903 0.133669
H30   H     H_    0.069005 0.063031 0.042488 0.126661
H31   H     H_    0.342639 0.331791 0.923903 0.133669
H32   H     H_    0.569005 0.563032 0.042488 0.126661
H33   H     H_    0.929917 0.157292 0.949451 0.132145
H34   H     H_    0.963756 0.151996 0.076601 0.112805
H35   H     H_    0.429917 0.657293 0.949451 0.132145
H36   H     H_    0.463755 0.651996 0.076601 0.112806
H37   H     H_    0.079986 0.547229 0.049666 0.149295
H38   H     H_    0.967566 0.660143 0.956677 0.101183
H39   H     H_    0.579986 0.047228 0.049666 0.149295
H40   H     H_    0.467566 0.160142 0.956677 0.101183
H41   H     H_    0.675880 0.911805 0.457634 0.121638
H42   H     H_    0.133337 0.047094 0.582035 0.137991
H43   H     H_    0.175880 0.411805 0.457634 0.121638
H44   H     H_    0.633337 0.547094 0.582035 0.137990
H45   H     H_    0.244549 0.820546 0.416262 0.152050
H46   H     H_    0.881724 0.548339 0.541430 0.157064
H47   H     H_    0.744549 0.320546 0.416262 0.152050
H48   H     H_    0.381724 0.048339 0.541430 0.157064
H49   H     H_    0.841598 0.308756 0.405719 0.135409
H50   H     H_    0.401120 0.214398 0.558486 0.143132
H51   H     H_    0.341598 0.808756 0.405719 0.135409
H52   H     H_    0.901120 0.714399 0.558486 0.143132
H53   H     H_    0.856207 0.339213 0.531703 0.138381
H54   H     H_    0.381167 0.255659 0.434735 0.132592
H55   H     H_    0.356207 0.839213 0.531703 0.138381
H56   H     H_    0.881168 0.755659 0.434735 0.132592
H57   H     H_    0.758914 0.350675 0.541832 0.157619
H58   H     H_    0.359650 0.089880 0.418047 0.137176
H59   H     H_    0.258914 0.850675 0.541832 0.157619
H60   H     H_    0.859650 0.589880 0.418047 0.137176
H61   H     H_    0.941683 0.938828 0.420042 0.105495
H62   H     H_    0.967704 0.913677 0.548535 0.102963
H63   H     H_    0.441683 0.438828 0.420042 0.105495
H64   H     H_    0.467704 0.413677 0.548535 0.102963
H65   H     H_    0.952817 0.138296 0.364587 0.125606
H66   H     H_    0.004470 0.088339 0.621180 0.129208
H67   H     H_    0.452817 0.638296 0.364587 0.125606
H68   H     H_    0.504470 0.588339 0.621180 0.129208
H69   H     H_    0.992809 0.600106 0.395562 0.135891
H70   H     H_    0.075648 0.524724 0.639864 0.113312
H71   H     H_    0.492809 0.100107 0.395562 0.135891
H72   H     H_    0.575648 0.024724 0.639864 0.113312
O1    O     O_R   0.957020 0.451640 0.669920 -0.516474
O2    O     O_R   0.042980 0.451640 0.330080 -0.527282
O3    O     O_R   0.457020 0.951640 0.669920 -0.516474
O4    O     O_R   0.542980 0.951640 0.330080 -0.527282
O5    O     O_R   0.736470 0.210100 0.823360 -0.506791
O6    O     O_R   0.263530 0.210100 0.176640 -0.506553
O7    O     O_R   0.236470 0.710100 0.823360 -0.506790
O8    O     O_R   0.763530 0.710100 0.176640 -0.506553
O9    O     O_R   0.831960 0.093290 0.830130 -0.539141
O10   O     O_R   0.168040 0.093290 0.169870 -0.521080
O11   O     O_R   0.331960 0.593290 0.830130 -0.539141
O12   O     O_R   0.668040 0.593290 0.169870 -0.521080
O13   O     O_R   0.945600 0.250580 0.824860 -0.510958
O14   O     O_R   0.054400 0.250580 0.175140 -0.513367
O15   O     O_R   0.445600 0.750580 0.824860 -0.510958
O16   O     O_R   0.554400 0.750580 0.175140 -0.513367
O17   O     O_3   0.834640 0.334650 0.749500 -0.260999
O18   O     O_3   0.165360 0.334650 0.250500 -0.262388
O19   O     O_3   0.334640 0.834650 0.749500 -0.260999
O20   O     O_3   0.665360 0.834650 0.250500 -0.262387
O21   O     O_R   0.821450 0.543440 0.674610 -0.496711
O22   O     O_R   0.178550 0.543440 0.325390 -0.498627
O23   O     O_R   0.321450 0.043440 0.674610 -0.496711
O24   O     O_R   0.678550 0.043440 0.325390 -0.498627
O25   O     O_R   0.715320 0.458650 0.668100 -0.532555
O26   O     O_R   0.284680 0.458650 0.331900 -0.531539
O27   O     O_R   0.215320 0.958650 0.668100 -0.532555
O28   O     O_R   0.784680 0.958650 0.331900 -0.531539
O29   O     O_R   0.737170 0.209590 0.674530 -0.513662
O30   O     O_R   0.262830 0.209590 0.325470 -0.509023
O31   O     O_R   0.237170 0.709590 0.674530 -0.513662
O32   O     O_R   0.762830 0.709590 0.325470 -0.509023
O33   O     O_R   0.832710 0.092740 0.669580 -0.509052
O34   O     O_R   0.167290 0.092740 0.330420 -0.517009
O35   O     O_R   0.332710 0.592740 0.669580 -0.509052
O36   O     O_R   0.667290 0.592740 0.330420 -0.517009
O37   O     O_R   0.946290 0.250060 0.676040 -0.500523
O38   O     O_R   0.053710 0.250060 0.323960 -0.519332
O39   O     O_R   0.446290 0.750060 0.676040 -0.500523
O40   O     O_R   0.553710 0.750060 0.323960 -0.519332
O41   O     O_R   0.956270 0.452200 0.830470 -0.507030
O42   O     O_R   0.043730 0.452200 0.169530 -0.519777
O43   O     O_R   0.456270 0.952200 0.830470 -0.507031
O44   O     O_R   0.543730 0.952200 0.169530 -0.519777
O45   O     O_R   0.820760 0.543950 0.823440 -0.528620
O46   O     O_R   0.179240 0.543950 0.176560 -0.500269
O47   O     O_R   0.320760 0.043950 0.823440 -0.528620
O48   O     O_R   0.679240 0.043950 0.176560 -0.500269
O49   O     O_R   0.714570 0.459210 0.828640 -0.517442
O50   O     O_R   0.285430 0.459210 0.171360 -0.518248
O51   O     O_R   0.214570 0.959210 0.828640 -0.517443
O52   O     O_R   0.785430 0.959210 0.171360 -0.518248
C133  C     C_R   0.000535 0.674018 0.093279 0.041733
C134  C     C_R   0.953833 0.654615 0.150625 -0.065969
C135  C     C_R   0.939279 0.747812 0.200120 -0.104745
C136  C     C_R   0.972666 0.860783 0.195055 -0.108863
C137  C     C_R   0.020069 0.880877 0.140076 -0.131539
C138  C     C_R   0.033029 0.789371 0.088470 -0.119424
H73   H     H_    0.928508 0.566958 0.158147 0.119002
H74   H     H_    0.903205 0.731352 0.243399 0.123794
H75   H     H_    0.962669 0.932204 0.234393 0.105447
H76   H     H_    0.047654 0.966942 0.139205 0.138105
H77   H     H_    0.069921 0.807183 0.046118 0.099520
C139  C     C_R   0.057432 0.563943 0.909625 0.054109
C140  C     C_R   0.099932 0.458570 0.906498 -0.072097
C141  C     C_R   0.137707 0.430645 0.844556 -0.107391
C142  C     C_R   0.134674 0.508550 0.785988 -0.069278
C143  C     C_R   0.095989 0.616997 0.790129 -0.049002
C144  C     C_R   0.058323 0.645573 0.851945 -0.063725
H78   H     H_    0.100903 0.395170 0.950479 0.096497
H79   H     H_    0.169333 0.348574 0.841735 0.097923
H80   H     H_    0.163749 0.486379 0.738074 0.092169
H81   H     H_    0.094622 0.678399 0.745128 0.090909
H82   H     H_    0.026124 0.727194 0.852800 0.071663
C145  C     C_R   0.500535 0.174018 0.093279 0.041733
C146  C     C_R   0.453834 0.154616 0.150625 -0.065969
C147  C     C_R   0.439280 0.247813 0.200120 -0.104745
C148  C     C_R   0.472668 0.360784 0.195055 -0.108864
C149  C     C_R   0.520071 0.380877 0.140076 -0.131539
C150  C     C_R   0.533030 0.289371 0.088470 -0.119424
H83   H     H_    0.428508 0.066959 0.158147 0.119002
H84   H     H_    0.403205 0.231354 0.243399 0.123793
H85   H     H_    0.462671 0.432205 0.234393 0.105447
H86   H     H_    0.547657 0.466941 0.139205 0.138107
H87   H     H_    0.569923 0.307182 0.046118 0.099520
C151  C     C_R   0.557432 0.063942 0.909625 0.054109
C152  C     C_R   0.599932 0.958570 0.906498 -0.072097
C153  C     C_R   0.637708 0.930644 0.844556 -0.107391
C154  C     C_R   0.634674 0.008549 0.785988 -0.069278
C155  C     C_R   0.595989 0.116996 0.790129 -0.049002
C156  C     C_R   0.558323 0.145572 0.851944 -0.063724
H88   H     H_    0.600903 0.895170 0.950479 0.096497
H89   H     H_    0.669334 0.848573 0.841736 0.097923
H90   H     H_    0.663750 0.986378 0.738074 0.092169
H91   H     H_    0.594623 0.178397 0.745128 0.090909
H92   H     H_    0.526125 0.227193 0.852800 0.071663

loop_
_geom_bond_atom_site_label_1
_geom_bond_atom_site_label_2
_ccdc_geom_bond_type
Cr9   O33   S    
C145  C146  A    
Cr7   O31   S    
C47   O31   A    
C2    C123  S    
C141  C142  A    
Cr11  O35   S    
C116  O12   A    
C143  C144  A    
C6    H2    S    
C94   C117  S    
C95   C99   A    
C154  H90   S    
C29   C33   A    
C139  C144  A    
C46   O34   A    
C82   H30   S    
C136  C137  A    
C83   H27   S    
C70   C74   A    
C9    C121  A    
C17   H53   S    
C81   H25   S    
C112  O52   A    
C87   C115  S    
C119  O15   A    
C97   C105  S    
C14   H50   S    
C15   C127  S    
C22   C130  A    
Cr9   O9    S    
Cr2   O22   S    
C146  H83   S    
C20   C132  S    
C41   C49   A    
C108  H40   S    
C23   C47   S    
C30   C34   A    
C120  O44   A    
C60   C76   A    
C52   H71   S    
Cr8   O28   S    
C48   O36   A    
C43   C44   A    
C115  O11   A    
C37   C38   A    
Cr6   O30   S    
C66   C82   S    
C78   C82   S    
C113  O9    A    
C152  C153  A    
C16   C20   S    
C19   H59   S    
C155  C156  A    
Cr4   O44   S    
C17   H57   S    
C113  O5    A    
C112  O48   A    
Cr4   O24   S    
Cr7   O19   S    
C18   C130  S    
Cr7   O7    S    
C140  H78   S    
Cr7   O51   S    
C142  H80   S    
Cr11  O11   S    
C10   C122  A    
C14   C126  S    
C57   C61   A    
C118  O42   A    
C59   C63   A    
C137  H76   S    
C98   C106  S    
C60   C64   A    
C1    C124  S    
C111  O51   A    
C48   O32   A    
C91   O39   A    
C49   C53   A    
C51   C55   A    
C127  C131  A    
C61   C65   A    
C5    C21   A    
Cr9   O17   S    
C126  C130  A    
C79   H23   S    
C80   H24   S    
C135  C136  A    
C51   H72   S    
C122  C126  A    
C72   H12   S    
C120  O16   A    
C97   C98   A    
C54   H6    S    
C53   C54   A    
Cr1   O45   S    
C33   H61   S    
C25   C90   S    
C133  C138  A    
C64   C68   A    
Cr10  O14   S    
Cr6   O6    S    
C77   H21   S    
C73   H13   S    
C156  H92   S    
C36   H64   S    
C57   C73   A    
C147  H84   S    
C20   H56   S    
C60   C109  S    
C45   O33   A    
C27   C44   A    
C61   C77   S    
C29   C38   A    
C107  C108  S    
Cr7   O27   S    
C47   O35   A    
C14   H48   S    
C44   C52   A    
C90   O38   A    
C141  H79   S    
Cr11  O39   S    
C53   H5    S    
Cr1   O21   S    
C137  C138  A    
C21   C45   S    
C135  H74   S    
C100  C108  S    
C5    H1    S    
C62   C66   A    
C138  H77   S    
C24   C48   S    
C139  C140  A    
C46   O30   A    
C109  O49   A    
C39   C40   A    
Cr8   O8    S    
C50   H69   S    
C1    O21   A    
C81   H29   S    
C121  C125  A    
C147  C148  A    
C125  C129  A    
C25   C38   A    
Cr5   O29   S    
C123  C127  A    
C27   C40   A    
C8    C12   A    
Cr2   O18   S    
C23   C131  A    
C2    O26   A    
C21   C129  A    
C42   C50   A    
C102  H34   S    
C93   C97   A    
C69   C85   A    
C58   C74   A    
Cr8   O32   S    
C134  H73   S    
C62   C78   S    
C84   H28   S    
C66   C86   A    
C29   H65   S    
C152  H88   S    
Cr3   O43   S    
C155  H91   S    
Cr10  O38   S    
C13   C17   S    
C85   C113  S    
Cr5   O25   S    
C148  H85   S    
C7    C23   A    
C96   C100  A    
C117  O13   A    
C8    C24   A    
C28   C91   S    
C90   O2    A    
C142  C143  A    
C105  H37   S    
C4    O28   A    
C58   C62   A    
C119  O43   A    
C55   C56   A    
C101  C102  A    
C41   C42   A    
C96   C119  S    
C35   C36   A    
C80   C84   S    
C15   C19   S    
Cr12  O40   S    
C5    C9    A    
C50   C54   A    
C115  O7    A    
C148  C149  A    
C94   C98   A    
Cr9   O13   S    
C6    C22   A    
Cr5   O5    S    
C31   C40   A    
C32   C39   A    
C80   H20   S    
C7    H3    S    
C18   H54   S    
Cr8   O52   S    
C69   C73   A    
C56   H8    S    
C124  C128  A    
C15   H51   S    
Cr1   O41   S    
C13   H49   S    
C133  C134  A    
C77   H17   S    
C64   C80   S    
C8    H4    S    
C25   C42   A    
Cr10  O10   S    
C105  C133  S    
C153  H89   S    
C78   H22   S    
C74   H14   S    
C58   C111  S    
C68   C84   S    
C20   H60   S    
C45   O29   A    
C149  C150  A    
Cr12  O20   S    
C28   C39   A    
Cr2   O2    S    
C151  C156  A    
C69   H9    S    
C30   C37   A    
C116  O8    A    
C16   H52   S    
C114  O10   A    
C24   C132  A    
C65   C81   S    
C77   C81   S    
C71   H11   S    
C4    O24   A    
C18   H58   S    
Cr1   O17   S    
C114  O6    A    
C16   H46   S    
C71   C87   A    
C92   O40   A    
C35   H63   S    
C22   C46   S    
C143  H81   S    
Cr3   O19   S    
Cr6   O18   S    
C109  O45   A    
C32   C36   A    
C110  O50   A    
C19   H55   S    
Cr12  O16   S    
C11   C123  A    
C93   C102  A    
C6    C10   A    
C26   C37   A    
C149  H86   S    
Cr4   O4    S    
C95   C120  S    
C99   C107  S    
C105  C106  S    
C28   C43   A    
Cr9   O37   S    
C145  C150  A    
C79   C83   S    
C43   C51   A    
C49   H70   S    
C4    C121  S    
C103  H35   S    
C101  H33   S    
C154  C155  A    
C96   C103  A    
C103  C104  A    
Cr8   O20   S    
C134  C135  A    
C84   H32   S    
C13   C125  S    
C3    O23   A    
C82   H26   S    
Cr3   O47   S    
C136  H75   S    
Cr10  O34   S    
C83   H31   S    
Cr4   O48   S    
C14   C18   S    
C72   C76   A    
C63   C79   S    
C34   H62   S    
C26   C89   S    
C7    C11   A    
C11   H43   S    
C146  C147  A    
C9    H41   S    
C32   H68   S    
C57   C112  S    
C12   H44   S    
Cr4   O20   S    
C59   C110  S    
Cr11  O19   S    
C92   O4    A    
C106  H38   S    
C10   H42   S    
Cr5   O49   S    
C94   C101  A    
Cr6   O26   S    
C3    C122  S    
Cr2   O42   S    
Cr12  O36   S    
Cr2   O46   S    
C89   O37   A    
C91   O3    A    
C128  C132  A    
C72   C88   A    
C107  C145  S    
C19   C131  S    
C150  H87   S    
C63   C67   A    
C17   C129  S    
C2    O22   A    
Cr6   O50   S    
C140  C141  A    
C144  H82   S    
Cr1   O1    S    
C107  H39   S    
C88   C116  S    
C117  O41   A    
C99   C100  A    
C12   C124  A    
Cr3   O3    S    
C33   C34   A    
C27   C92   S    
C3    O27   A    
C67   C83   S    
C16   C128  S    
C111  O47   A    
C1    O25   A    
C153  C154  A    
C78   H18   S    
C68   C88   A    
C106  C139  S    
C93   C118  S    
Cr5   O17   S    
C70   C86   A    
C59   C75   A    
C95   C104  A    
C75   H15   S    
C55   H7    S    
C151  C152  A    
C76   H16   S    
C70   H10   S    
C79   H19   S    
C30   H66   S    
C65   C85   A    
C67   C87   A    
C13   H47   S    
C86   C114  S    
Cr11  O15   S    
C71   C75   A    
C104  H36   S    
C118  O14   A    
Cr3   O23   S    
C31   C35   A    
C15   H45   S    
C110  O46   A    
C89   O1    A    
Cr10  O18   S    
C31   H67   S    
Cr12  O12   S    
C52   C56   A    
C26   C41   A    
C108  C151  S    
