data_mof_unit_6638.cif
_audit_creation_date              2012-12-11T15:54:35-0500
_audit_creation_method            fapswitch 2.2
_symmetry_space_group_name_H-M    P1
_symmetry_Int_Tables_number       1
_space_group_crystal_system       triclinic
_cell_length_a                    6.930908
_cell_length_b                    14.531131
_cell_length_c                    16.100078
_cell_angle_alpha                 89.940892
_cell_angle_beta                  89.884034
_cell_angle_gamma                 89.950974
_cell_volume                      1621.49738763

loop_
_atom_site_label
_atom_site_type_symbol
_atom_type_description
_atom_site_fract_x
_atom_site_fract_y
_atom_site_fract_z
_atom_type_partial_charge
O1    O     O_R   0.638180 0.333920 0.163320 -0.543635
O2    O     O_R   0.361820 0.666080 0.836680 -0.543635
O3    O     O_R   0.308470 0.344960 0.336080 -0.499042
O4    O     O_R   0.691530 0.655040 0.663920 -0.499042
O5    O     O_R   0.138140 0.166110 0.336680 -0.537960
O6    O     O_R   0.861860 0.833890 0.663320 -0.537960
C1    C     C_R   0.477116 0.367344 0.364929 0.781121
C2    C     C_R   0.522884 0.632656 0.635071 0.781122
O7    O     O_R   0.308460 0.344950 0.163930 -0.544427
O8    O     O_R   0.691540 0.655050 0.836070 -0.544427
O9    O     O_R   0.138140 0.166100 0.163310 -0.548118
O10   O     O_R   0.861860 0.833900 0.836690 -0.548118
C3    C     C_R   0.477572 0.367217 0.135000 0.679929
C4    C     C_R   0.522428 0.632783 0.865000 0.679928
O11   O     O_R   0.638180 0.333930 0.336700 -0.544840
O12   O     O_R   0.361820 0.666070 0.663300 -0.544840
O13   O     O_3   0.471670 0.191340 0.250000 -0.379009
O14   O     O_3   0.528330 0.808660 0.750000 -0.379009
V1    V     V_3+5 0.196830 0.260900 0.250000 1.479598
V2    V     V_3+5 0.803170 0.739100 0.750000 1.479598
O15   O     O_R   0.808420 0.155070 0.163920 -0.546572
O16   O     O_R   0.191580 0.844930 0.836080 -0.546572
C5    C     C_R   0.977613 0.132721 0.135047 0.663300
C6    C     C_R   0.022386 0.867279 0.864952 0.663300
O17   O     O_R   0.808420 0.155080 0.336070 -0.541970
O18   O     O_R   0.191580 0.844920 0.663930 -0.541970
C7    C     C_R   0.977221 0.133043 0.364623 0.696908
C8    C     C_R   0.022779 0.866957 0.635377 0.696908
V3    V     V_3+5 0.696830 0.239130 0.250000 1.428817
V4    V     V_3+5 0.303170 0.760870 0.750000 1.428816
O19   O     O_3   0.971850 0.308690 0.250010 -0.354094
O20   O     O_3   0.028150 0.691310 0.749990 -0.354094
H1    H     H_    0.289700 0.849177 0.267867 0.117774
H2    H     H_    0.710300 0.150823 0.732133 0.117774
C9    C     C_R   0.825705 0.173731 0.528388 -0.135114
C10   C     C_R   0.174294 0.826269 0.471612 -0.135114
C11   C     C_R   0.753020 0.195928 0.606562 -0.107009
C12   C     C_R   0.246980 0.804072 0.393438 -0.107009
C13   C     C_R   0.765616 0.132963 0.671313 -0.119541
C14   C     C_R   0.234384 0.867036 0.328687 -0.119541
C15   C     C_R   0.850941 0.047305 0.658388 -0.135595
C16   C     C_R   0.149059 0.952695 0.341612 -0.135595
C17   C     C_R   0.924101 0.022224 0.579394 0.068662
C18   C     C_R   0.075899 0.977776 0.420606 0.068662
C19   C     C_R   0.911279 0.086846 0.512955 0.066401
C20   C     C_R   0.088721 0.913154 0.487045 0.066401
C21   C     C_R   0.012746 0.935295 0.566500 -0.186002
C22   C     C_R   0.987254 0.064705 0.433500 -0.186002
H3    H     H_    0.815169 0.225873 0.480667 0.112505
H4    H     H_    0.184831 0.774127 0.519333 0.112505
H5    H     H_    0.687896 0.262682 0.617062 0.128995
H6    H     H_    0.312104 0.737318 0.382938 0.128995
H7    H     H_    0.860316 0.001626 0.711302 0.104844
H8    H     H_    0.139684 0.998374 0.288698 0.104844
C23   C     C_R   0.179580 0.973526 0.968288 -0.154108
C24   C     C_R   0.820420 0.026474 0.031712 -0.154108
H9    H     H_    0.320482 0.954103 0.945000 0.115477
H10   H     H_    0.679517 0.045897 0.054999 0.115477
C25   C     C_R   0.168575 0.036954 0.033596 -0.156528
C26   C     C_R   0.831425 0.963046 0.966404 -0.156528
H11   H     H_    0.301498 0.064591 0.058422 0.117001
H12   H     H_    0.698502 0.935409 0.941578 0.117001
C27   C     C_R   0.988836 0.064347 0.066247 -0.041901
C28   C     C_R   0.011164 0.935653 0.933753 -0.041901
C29   C     C_R   0.325279 0.488119 0.457777 0.650080
C30   C     C_R   0.674721 0.511881 0.542223 0.650080
C31   C     C_R   0.338419 0.551364 0.523043 -0.285349
C32   C     C_R   0.661581 0.448636 0.476957 -0.285349
H13   H     H_    0.211394 0.590966 0.539222 0.212855
H14   H     H_    0.788606 0.409034 0.460778 0.212855
C33   C     C_R   0.512636 0.564316 0.566227 -0.284196
C34   C     C_R   0.487364 0.435684 0.433773 -0.284196
C35   C     C_R   0.320496 0.474746 0.032590 -0.152097
C36   C     C_R   0.679504 0.525254 0.967410 -0.152097
H15   H     H_    0.179701 0.456321 0.056618 0.118457
H16   H     H_    0.820299 0.543678 0.943382 0.118457
C37   C     C_R   0.331571 0.538318 0.967349 -0.148282
C38   C     C_R   0.668428 0.461682 0.032651 -0.148282
H17   H     H_    0.198775 0.567082 0.943289 0.119742
H18   H     H_    0.801225 0.432918 0.056711 0.119742
C39   C     C_R   0.511229 0.564444 0.933825 -0.043466
C40   C     C_R   0.488770 0.435556 0.066175 -0.043466
F1    F     F_    0.154088 0.479655 0.417732 -0.673609
F2    F     F_    0.845912 0.520345 0.582268 -0.673609

loop_
_geom_bond_atom_site_label_1
_geom_bond_atom_site_label_2
_ccdc_geom_bond_type
C7    C22   S    
C30   C32   A    
C8    C21   S    
C23   C25   A    
O13   V3    S    
O4    C2    A    
V1    O19   S    
C13   C15   A    
O9    V1    S    
C36   H16   S    
C9    C11   A    
O3    C1    A    
C11   H5    S    
C38   H18   S    
C29   F1    S    
C12   H6    S    
O12   V4    S    
C26   H12   S    
O9    C5    A    
O7    C3    A    
O5    C7    A    
O7    V1    S    
O6    C8    A    
O8    V2    S    
C29   C31   A    
C9    H3    S    
O3    V1    S    
O14   V4    S    
V4    O20   S    
C31   C33   A    
C14   C16   A    
C2    O12   A    
V3    O19   S    
C15   C17   A    
C16   C18   A    
C18   C20   A    
O11   V3    S    
C37   H17   S    
O15   C5    A    
O17   V3    S    
C25   H11   S    
H1    C14   S    
H2    C13   S    
O8    C4    A    
C1    C34   S    
C1    O11   A    
O15   V3    S    
C3    C40   S    
C24   C26   A    
C31   H13   S    
C38   C40   A    
C30   C33   A    
C37   C39   A    
C32   C34   A    
C23   C28   A    
O10   V2    S    
O1    V3    S    
C24   C27   A    
C10   C20   A    
C17   C19   A    
C15   H7    S    
O18   V4    S    
C23   H9    S    
O16   C6    A    
O1    C3    A    
C35   H15   S    
C36   C39   A    
C9    C19   A    
C35   C40   A    
C10   H4    S    
V2    O20   S    
C19   C22   A    
C20   C21   A    
C2    C33   S    
O16   V4    S    
C25   C27   A    
O5    V1    S    
O17   C7    A    
C29   C34   A    
O6    V2    S    
O10   C6    A    
O18   C8    A    
O2    V4    S    
C26   C28   A    
C10   C12   A    
C11   C13   A    
C16   H8    S    
C12   C14   A    
C5    C27   S    
O13   V1    S    
C24   H10   S    
C6    C28   S    
O14   V2    S    
O2    C4    A    
C30   F2    S    
O4    V2    S    
C32   H14   S    
C36   C38   A    
C35   C37   A    
C4    C39   S    
C17   C21   A    
C18   C22   A    
