data_mof_unit_53384.cif
_audit_creation_date              2013-03-05T15:49:57-0500
_audit_creation_method            fapswitch 2.2
_symmetry_space_group_name_H-M    P1
_symmetry_Int_Tables_number       1
_space_group_crystal_system       triclinic
_cell_length_a                    13.579661
_cell_length_b                    13.57956
_cell_length_c                    27.649208
_cell_angle_alpha                 90.429088
_cell_angle_beta                  90.243554
_cell_angle_gamma                 120.077561
_cell_volume                      4411.81445586

loop_
_atom_site_label
_atom_site_type_symbol
_atom_site_description
_atom_site_fract_x
_atom_site_fract_y
_atom_site_fract_z
_atom_type_partial_charge
O1    O     O_R   0.302900 0.805360 0.446400 -0.500540
O2    O     O_R   0.522090 0.841370 0.450730 -0.492280
C1    C     C_R   0.619485 0.898182 0.431355 0.546503
O3    O     O_R   0.693280 0.995650 0.447220 -0.503147
O4    O     O_R   0.657260 0.178740 0.451050 -0.493527
C2    C     C_R   0.599674 0.218449 0.431302 0.547070
O5    O     O_R   0.502640 0.195380 0.446850 -0.499799
O6    O     O_R   0.319630 0.976590 0.450330 -0.493719
C3    C     C_R   0.279273 0.878661 0.430582 0.545262
O7    O     O_R   0.303680 0.807790 0.552740 -0.507829
O8    O     O_R   0.522820 0.843620 0.549310 -0.498057
C4    C     C_R   0.621374 0.900884 0.568886 0.546337
O9    O     O_R   0.694060 0.998080 0.553560 -0.518545
O10   O     O_R   0.657980 0.180990 0.549630 -0.505309
C5    C     C_R   0.600954 0.221559 0.569027 0.539675
O11   O     O_R   0.503420 0.197810 0.553190 -0.519134
O12   O     O_R   0.320350 0.978840 0.548910 -0.504752
C6    C     C_R   0.280340 0.882058 0.568295 0.539756
Cr1   Cr    Cr6+3 0.417720 0.831920 0.499820 1.042491
Cr2   Cr    Cr6+3 0.668190 0.085770 0.500360 1.030098
Cr3   Cr    Cr6+3 0.414060 0.082260 0.499840 1.036018
O13   O     O_3   0.499990 0.999990 0.500010 -0.252505
C7    C     C_1   0.630821 0.264104 0.383668 -0.003176
C8    C     C_R   0.770119 0.389579 0.271943 -0.071426
C9    C     C_R   0.785002 0.408351 0.221766 0.264458
C10   C     C_R   0.585813 0.262161 0.209420 -0.130142
C11   C     C_R   0.572833 0.245319 0.259170 -0.103279
C12   C     C_R   0.664407 0.309731 0.290535 0.003643
C13   C     C_R   0.690574 0.343424 0.190312 0.052275
C14   C     C_1   0.695838 0.363790 0.139047 0.039988
C15   C     C_1   0.649461 0.289770 0.341708 -0.047369
C16   C     C_1   0.701718 0.389573 0.097111 0.054817
H1    H     H_    0.840512 0.438304 0.296707 0.148625
H2    H     H_    0.513211 0.212695 0.185770 0.117674
H3    H     H_    0.490972 0.182223 0.273226 0.123365
C17   C     C_1   0.232339 0.862588 0.382715 -0.004492
C18   C     C_R   0.075593 0.810729 0.270869 -0.077564
C19   C     C_R   0.056977 0.802747 0.220838 -0.040278
C20   C     C_R   0.257192 0.870352 0.207438 -0.100945
C21   C     C_R   0.275883 0.878691 0.257453 -0.097720
C22   C     C_R   0.185030 0.848094 0.289274 0.042514
C23   C     C_R   0.147554 0.831795 0.189026 0.055042
C24   C     C_1   0.125301 0.815592 0.137802 -0.008416
C25   C     C_1   0.205726 0.854270 0.340600 -0.047509
C26   C     C_1   0.097573 0.795347 0.095818 0.031224
H4    H     H_    0.004765 0.786792 0.295070 0.119107
H5    H     H_    0.971631 0.772167 0.206956 0.172413
H6    H     H_    0.327676 0.892462 0.183250 0.108656
H7    H     H_    0.360975 0.907820 0.271339 0.109147
C27   C     C_1   0.634521 0.865749 0.383775 -0.002110
C28   C     C_R   0.657843 0.738326 0.273132 -0.090524
C29   C     C_R   0.666139 0.723871 0.223152 0.228054
C30   C     C_R   0.654450 0.894941 0.208872 -0.150142
C31   C     C_R   0.647118 0.908328 0.258554 -0.116208
C32   C     C_R   0.649629 0.830630 0.290750 -0.004217
C33   C     C_R   0.664416 0.803738 0.190799 0.021242
C34   C     C_1   0.676561 0.795819 0.139371 0.006582
C35   C     C_1   0.642755 0.846442 0.341853 -0.046538
C36   C     C_1   0.693302 0.787006 0.097212 0.031411
H8    H     H_    0.659681 0.678658 0.298417 0.150218
H9    H     H_    0.653313 0.956498 0.184493 0.119196
H10   H     H_    0.639979 0.979730 0.271903 0.123085
C37   C     C_R   0.634183 0.268985 0.617675 0.015747
C38   C     C_R   0.717520 0.255897 0.642258 -0.125080
C39   C     C_R   0.724842 0.263930 0.692144 -0.125855
C40   C     C_R   0.651924 0.289401 0.718133 0.027484
C41   C     C_R   0.574407 0.310887 0.693275 -0.085566
C42   C     C_R   0.565695 0.300997 0.643292 -0.108915
C43   C     C_R   0.564792 0.271223 0.799093 -0.103271
C44   C     C_R   0.577960 0.304608 0.847407 -0.107509
C45   C     C_R   0.781667 0.380247 0.841143 -0.121464
C46   C     C_R   0.769000 0.350197 0.792794 -0.111822
C47   C     C_R   0.661198 0.300167 0.770861 0.039571
C48   C     C_R   0.687274 0.364262 0.867844 0.024479
H11   H     H_    0.771150 0.230369 0.623481 0.134388
H12   H     H_    0.480167 0.228579 0.783245 0.111546
H13   H     H_    0.503956 0.289825 0.867836 0.152397
H14   H     H_    0.784734 0.245907 0.710327 0.108133
H15   H     H_    0.845072 0.374472 0.772042 0.106358
H16   H     H_    0.867132 0.425738 0.856148 0.134231
H17   H     H_    0.518923 0.333172 0.712439 0.172579
H18   H     H_    0.500810 0.311541 0.625101 0.158180
C49   C     C_R   0.230120 0.868605 0.615932 0.026396
C50   C     C_R   0.271402 0.965133 0.646097 -0.119908
C51   C     C_R   0.245422 0.953449 0.694814 -0.119155
C52   C     C_R   0.174775 0.845257 0.713966 0.035687
C53   C     C_R   0.126387 0.749400 0.682905 -0.107685
C54   C     C_R   0.155664 0.760811 0.634240 -0.119960
C55   C     C_R   0.149506 0.736609 0.789142 -0.137617
C56   C     C_R   0.123773 0.718562 0.837764 -0.166695
C57   C     C_R   0.130649 0.900792 0.844204 0.188274
C58   C     C_R   0.150411 0.915088 0.794478 -0.118896
C59   C     C_R   0.156942 0.831858 0.766492 -0.009643
C60   C     C_R   0.107740 0.796729 0.865230 0.007560
H19   H     H_    0.330834 0.049271 0.632891 0.138436
H20   H     H_    0.160076 0.673856 0.769020 0.119404
H21   H     H_    0.109338 0.639337 0.853013 0.136132
H22   H     H_    0.285883 0.028709 0.717710 0.107092
H23   H     H_    0.159428 0.990912 0.777729 0.142234
H24   H     H_    0.068804 0.665221 0.696489 0.113288
H25   H     H_    0.123077 0.685668 0.611336 0.127942
C61   C     C_R   0.649337 0.859534 0.612829 -0.021223
C62   C     C_R   0.581689 0.746584 0.627671 -0.111961
C63   C     C_R   0.602275 0.711086 0.672279 0.219957
C64   C     C_R   0.689680 0.792439 0.702982 0.014422
C65   C     C_R   0.760559 0.903372 0.686552 -0.164099
C66   C     C_R   0.741230 0.936333 0.641884 -0.136157
C67   C     C_R   0.806295 0.804334 0.774774 -0.109358
C68   C     C_R   0.817070 0.796054 0.824214 -0.123558
C69   C     C_R   0.611349 0.711734 0.833909 -0.003069
C70   C     C_R   0.603317 0.725120 0.783814 -0.042290
C71   C     C_R   0.699609 0.769996 0.754321 0.056009
C72   C     C_R   0.721753 0.751110 0.854297 0.021245
H26   H     H_    0.512862 0.686265 0.604544 0.163265
H27   H     H_    0.881718 0.839593 0.752544 0.123749
H28   H     H_    0.900738 0.824166 0.839224 0.142994
H29   H     H_    0.522756 0.702672 0.766963 0.128271
H30   H     H_    0.827337 0.966952 0.709551 0.126541
H31   H     H_    0.794916 0.024124 0.631345 0.141634
O14   O     O_R   0.819150 0.845650 0.033320 -0.499865
O15   O     O_R   0.006060 0.815720 0.028680 -0.484879
C73   C     C_R   0.049489 0.761355 0.048205 0.563478
O16   O     O_R   0.028100 0.664460 0.032550 -0.486023
O17   O     O_R   0.811290 0.477490 0.029660 -0.479248
C74   C     C_R   0.714218 0.435465 0.049603 0.561235
O18   O     O_R   0.638120 0.455970 0.034270 -0.494236
O19   O     O_R   0.667540 0.672320 0.030160 -0.478949
C75   C     C_R   0.723391 0.770977 0.049407 0.559050
O20   O     O_R   0.814460 0.840990 0.926980 -0.481202
O21   O     O_R   0.001710 0.811400 0.930110 -0.462785
C76   C     C_R   0.046572 0.757299 0.911163 0.547724
O22   O     O_R   0.023410 0.659800 0.926210 -0.536537
O23   O     O_R   0.806940 0.473170 0.931090 -0.512263
C77   C     C_R   0.707445 0.427405 0.912952 0.534597
O24   O     O_R   0.633420 0.451310 0.927930 -0.521487
O25   O     O_R   0.663190 0.668000 0.931580 -0.523200
C78   C     C_R   0.744896 0.744883 0.905969 0.536045
Cr4   Cr    Cr6+3 0.908000 0.821090 0.979770 1.105957
Cr5   Cr    Cr6+3 0.912420 0.571130 0.979880 1.042254
Cr6   Cr    Cr6+3 0.657970 0.566940 0.980940 1.039899
O26   O     O_3   0.826130 0.653050 0.980200 -0.279276
N1    N     N_R   0.675881 0.628349 0.206412 0.072824
O27   O     O_R   0.634746 0.536444 0.232135 -0.352463
O28   O     O_R   0.734245 0.635632 0.168061 -0.334892
N2    N     N_R   0.895221 0.492914 0.204152 0.079478
O29   O     O_R   0.985527 0.526808 0.231155 -0.347920
O30   O     O_R   0.906242 0.541777 0.162664 -0.315847
N3    N     N_R   0.132628 0.991226 0.872349 0.079639
O31   O     O_R   0.099735 0.057376 0.853206 -0.354224
O32   O     O_R   0.183680 0.018735 0.914318 -0.325564
N4    N     N_R   0.535051 0.593405 0.685664 0.060443
O33   O     O_R   0.434889 0.528955 0.666385 -0.365656
O34   O     O_R   0.578098 0.547046 0.713252 -0.365879
C79   C     C_3   0.505182 0.657946 0.865351 -0.241177
C80   C     C_3   0.391706 0.624424 0.839711 -0.324455
C81   C     C_3   0.292516 0.569606 0.874860 -0.435451
H32   H     H_    0.289999 0.495322 0.892666 0.172811
H33   H     H_    0.300607 0.632353 0.902885 0.163899
H34   H     H_    0.211321 0.539220 0.854745 0.145219
H35   H     H_    0.394502 0.701037 0.824135 0.166403
H36   H     H_    0.375851 0.561789 0.810280 0.190784
H37   H     H_    0.496447 0.578737 0.880860 0.185333
H38   H     H_    0.517424 0.718336 0.895274 0.166788

loop_
_geom_bond_atom_site_label_1
_geom_bond_atom_site_label_2
_geom_bond_distance
_ccdc_geom_bond_type
C16   C74   1.432044 S    
C53   C54   1.392287 A    
O11   Cr3   2.037670 S    
O17   Cr5   1.920742 S    
C70   C71   1.401422 A    
O25   Cr6   1.918938 S    
N2    O29   1.301707 A    
O4    Cr2   1.920057 S    
C30   C31   1.394791 A    
C80   H36   1.112023 S    
O22   Cr5   2.037223 S    
O18   Cr6   2.036473 S    
C10   C11   1.393528 A    
C13   C14   1.441413 S    
C67   H27   1.083639 S    
C81   H32   1.110914 S    
N3    O32   1.301467 A    
C19   C23   1.403642 A    
C46   H15   1.082387 S    
O4    C2    1.274326 A    
C34   C36   1.205078 T    
C65   C66   1.384874 A    
C5    O11   1.270750 A    
O16   Cr5   2.037657 S    
C67   C68   1.385555 A    
C43   H12   1.082969 S    
C69   C70   1.409184 A    
C63   C64   1.418789 A    
C51   H22   1.082432 S    
C68   H28   1.080627 S    
C6    C49   1.455896 S    
C31   C32   1.398836 A    
C30   H9    1.083816 S    
C50   C51   1.383880 A    
C10   H2    1.083947 S    
O20   Cr4   2.037445 S    
O6    C3    1.273981 A    
C44   C48   1.399933 A    
C3    C17   1.433346 S    
N4    O33   1.301474 A    
C43   C47   1.405418 A    
C56   H21   1.081557 S    
C28   C32   1.397246 A    
C68   C72   1.401658 A    
C49   C54   1.397572 A    
O2    Cr1   1.924618 S    
Cr3   O13   1.979022 S    
C65   H30   1.083614 S    
C44   H13   1.083311 S    
C18   C22   1.399576 A    
C61   C62   1.401854 A    
C66   H31   1.083283 S    
C45   H16   1.083581 S    
N2    O30   1.300714 A    
C1    C27   1.431802 S    
C8    H1    1.083541 S    
C56   C60   1.404223 A    
C20   C23   1.399346 A    
C81   H34   1.109336 S    
C9    C13   1.422600 A    
O24   Cr6   2.039999 S    
O1    Cr1   2.037545 S    
O15   C73   1.274337 A    
C41   C42   1.386319 A    
C27   C35   1.204467 T    
O10   Cr2   1.924035 S    
C79   H38   1.112062 S    
Cr1   O13   1.975126 S    
O1    C3    1.269044 A    
N3    O31   1.301483 A    
C55   C56   1.382953 A    
C20   C21   1.398374 A    
C52   C53   1.408864 A    
O25   C78   1.295827 A    
C31   H10   1.083939 S    
C11   H3    1.083930 S    
C36   C75   1.432069 S    
C51   C52   1.400894 A    
C40   C47   1.462695 S    
O12   Cr3   1.919461 S    
C1    O3    1.267509 A    
C67   C71   1.395737 A    
C50   H19   1.083792 S    
C7    C15   1.204836 T    
O15   Cr4   1.921151 S    
C4    C61   1.468229 S    
C18   C19   1.398768 A    
C69   C79   1.527223 S    
C52   C59   1.470954 S    
O21   C76   1.277050 A    
C49   C50   1.403997 A    
O7    Cr1   2.040678 S    
O8    Cr1   1.920274 S    
C62   H26   1.083089 S    
O12   C6    1.267690 A    
C79   C80   1.538559 S    
C61   C66   1.401671 A    
C8    C9    1.409472 A    
C24   C26   1.205256 T    
C69   C72   1.426951 A    
C19   H5    1.083704 S    
C2    O5    1.269770 A    
C21   C22   1.403475 A    
C64   C71   1.473780 S    
Cr2   O13   1.976575 S    
C41   H17   1.081472 S    
C74   O18   1.269500 A    
C22   C25   1.439149 S    
N1    O28   1.300959 A    
C17   C25   1.205351 T    
O14   Cr4   2.042146 S    
O19   Cr6   1.923443 S    
O19   C75   1.273070 A    
O21   Cr4   1.924053 S    
C57   C58   1.398190 A    
C63   N4    1.439996 S    
C53   H24   1.082678 S    
C30   C33   1.400445 A    
C33   C34   1.441572 S    
C37   C42   1.400655 A    
C39   H14   1.082607 S    
O9    Cr2   2.036224 S    
C80   H35   1.112001 S    
N1    O27   1.301281 A    
C79   H37   1.111018 S    
C12   C15   1.438632 S    
C54   H25   1.083255 S    
C8    C12   1.398265 A    
C46   C47   1.400622 A    
Cr4   O26   1.975069 S    
O6    Cr3   1.920584 S    
C45   C48   1.402425 A    
C57   N3    1.437648 S    
O8    C4    1.277954 A    
O14   C75   1.267689 A    
O23   Cr5   1.920390 S    
C77   O24   1.271224 A    
C26   C73   1.433161 S    
C64   C65   1.400962 A    
C60   C76   1.470691 S    
C70   H29   1.079854 S    
C42   H18   1.083333 S    
C38   C39   1.382017 A    
C55   H20   1.082823 S    
C81   H33   1.110901 S    
O2    C1    1.273135 A    
C73   O16   1.269001 A    
C28   C29   1.407230 A    
O5    Cr3   2.037106 S    
C57   C60   1.415946 A    
C14   C16   1.205069 T    
Cr5   O26   1.979198 S    
C21   H7    1.083935 S    
O23   C77   1.269312 A    
O7    C6    1.271853 A    
Cr6   O26   1.976522 S    
C2    C7    1.432464 S    
C48   C77   1.453049 S    
C58   C59   1.404259 A    
C38   H11   1.083356 S    
C40   C41   1.403668 A    
C72   C78   1.473666 S    
N4    O34   1.300813 A    
C55   C59   1.398969 A    
C43   C44   1.389121 A    
C29   N1    1.441470 S    
C37   C38   1.403986 A    
O3    Cr2   2.041520 S    
C29   C33   1.420152 A    
C45   C46   1.379379 A    
O20   C78   1.296676 A    
C4    O9    1.265705 A    
C10   C13   1.400806 A    
C39   C40   1.400745 A    
C23   C24   1.439004 S    
C32   C35   1.438034 S    
C62   C63   1.404560 A    
C5    C37   1.455414 S    
O10   C5    1.271822 A    
C20   H6    1.083489 S    
C9    N2    1.444943 S    
C28   H8    1.083758 S    
C18   H4    1.083441 S    
C80   C81   1.526384 S    
C76   O22   1.271587 A    
C58   H23   1.082069 S    
O17   C74   1.274462 A    
C11   C12   1.397401 A    
