data_mof_unit_13190.cif
_audit_creation_date              2012-12-10T17:30:27-0500
_audit_creation_method            fapswitch 2.2
_symmetry_space_group_name_H-M    P1
_symmetry_Int_Tables_number       1
_space_group_crystal_system       triclinic
_cell_length_a                    11.972006
_cell_length_b                    12.79504
_cell_length_c                    14.95379
_cell_angle_alpha                 89.589617
_cell_angle_beta                  86.35299
_cell_angle_gamma                 93.360636
_cell_volume                      2281.94946392

loop_
_atom_site_label
_atom_site_type_symbol
_atom_type_description
_atom_site_fract_x
_atom_site_fract_y
_atom_site_fract_z
_atom_type_partial_charge
C1    C     C_R   0.521868 0.700749 0.492525 0.941589
C2    C     C_R   0.384203 0.149051 0.438330 -0.331742
C3    C     C_R   0.448551 0.870021 0.443249 -0.053408
C4    C     C_R   0.549617 0.124465 0.521968 -0.043767
C5    C     C_R   0.462714 0.980078 0.442129 0.111672
C6    C     C_R   0.557700 0.026306 0.482318 -0.009077
C7    C     C_R   0.953539 0.393696 0.425111 -0.284186
C8    C     C_R   0.046414 0.606358 0.574718 -0.291284
C9    C     C_R   0.837405 0.404879 0.431268 0.085382
C10   C     C_R   0.162498 0.594988 0.568816 0.075382
C11   C     C_R   0.858928 0.547505 0.530415 -0.032741
C12   C     C_R   0.478072 0.299192 0.503787 1.009607
C13   C     C_R   0.141196 0.452784 0.469178 -0.026474
C14   C     C_R   0.976133 0.539109 0.526564 0.081036
C15   C     C_R   0.023922 0.461054 0.473122 0.073909
C16   C     C_R   0.499789 0.499261 0.673032 1.040103
C17   C     C_R   0.500126 0.502772 0.326964 1.006600
C18   C     C_R   0.459908 0.414661 0.189639 0.385523
C19   C     C_R   0.517034 0.593834 0.811200 0.362527
C20   C     C_R   0.498833 0.505788 0.231261 -0.189058
C21   C     C_R   0.496262 0.498424 0.768955 -0.186951
C22   C     C_R   0.531462 0.598283 0.182366 -0.151609
C23   C     C_R   0.521122 0.693644 0.947655 -0.142394
C24   C     C_R   0.458130 0.406752 0.817150 -0.143632
C25   C     C_R   0.508567 0.603234 0.091122 -0.057225
C26   C     C_R   0.440053 0.411418 0.911272 -0.050564
C27   C     C_R   0.474332 0.509048 0.048110 0.034371
C28   C     C_R   0.472501 0.506169 0.954473 0.039254
C29   C     C_R   0.445787 0.416571 0.098204 -0.008219
C30   C     C_R   0.504894 0.597991 0.904292 -0.012991
C31   C     C_R   0.518540 0.698363 0.040742 -0.059576
C32   C     C_R   0.391400 0.325694 0.964606 -0.054451
C33   C     C_3   0.542647 0.274499 0.248906 0.031126
C34   C     C_R   0.400038 0.328002 0.056917 -0.155017
C35   C     C_3   0.543503 0.170553 0.199047 -0.329910
C36   C     C_3   0.639739 0.105952 0.225285 -0.829773
C37   C     C_3   0.657534 0.705357 0.748985 0.048374
C38   C     C_3   0.681578 0.820900 0.724226 -0.320513
C39   C     C_3   0.805623 0.845426 0.697932 -0.964298
C40   C     C_2   0.605399 0.681416 0.221318 0.364520
C41   C     C_2   0.449539 0.305191 0.769894 0.420624
C42   C     C_2   0.513689 0.803202 0.082897 0.403781
C43   C     C_2   0.320440 0.238438 0.928810 0.381845
C44   C     C_2   0.616349 0.150121 0.601511 0.501112
C45   C     C_R   0.465402 0.187635 0.494633 -0.074248
C46   C     C_2   0.339508 0.816138 0.423622 0.508177
C47   C     C_2   0.769923 0.018669 0.488168 0.364854
C48   C     C_2   0.306865 0.017538 0.338166 0.446293
C49   C     C_R   0.536767 0.812180 0.473192 -0.083330
C50   C     C_R   0.654702 0.969236 0.486354 -0.049150
C51   C     C_R   0.382536 0.046110 0.410119 0.022472
C52   C     C_R   0.642264 0.861423 0.483706 -0.260192
H1    H     H_    0.987809 0.332869 0.383477 0.160931
H2    H     H_    0.783100 0.352592 0.394584 0.142021
H3    H     H_    0.548986 0.259216 0.321330 0.173055
H4    H     H_    0.619593 0.323880 0.226309 0.128031
H5    H     H_    0.462988 0.124747 0.214498 0.267715
H6    H     H_    0.552547 0.186134 0.125700 0.232218
H7    H     H_    0.721480 0.149577 0.208725 0.256325
H8    H     H_    0.637803 0.031203 0.187987 0.289562
H9    H     H_    0.631562 0.087614 0.298152 0.273781
H10   H     H_    0.691710 0.656557 0.693848 0.166266
H11   H     H_    0.701467 0.688942 0.810788 0.138786
H12   H     H_    0.012069 0.667139 0.616379 0.152374
H13   H     H_    0.631298 0.841514 0.667535 0.230723
H14   H     H_    0.656131 0.869794 0.782322 0.236463
H15   H     H_    0.857452 0.825641 0.754004 0.280023
H16   H     H_    0.820192 0.930220 0.682069 0.267886
H17   H     H_    0.831827 0.800250 0.637804 0.249387
H18   H     H_    0.670979 0.722521 0.178955 0.090809
H19   H     H_    0.487753 0.237791 0.796682 0.100001
H20   H     H_    0.477093 0.810752 0.150613 0.120065
H21   H     H_    0.273890 0.250532 0.870108 0.104183
H22   H     H_    0.660225 0.089309 0.632979 0.045080
H23   H     H_    0.533443 0.765708 0.908895 0.220650
H24   H     H_    0.337627 0.750670 0.377833 0.101122
H25   H     H_    0.838001 0.972681 0.507556 0.085385
H26   H     H_    0.228938 0.056100 0.334015 0.083566
H27   H     H_    0.366517 0.261373 0.097347 0.222664
H28   H     H_    0.326158 0.201463 0.411588 0.173898
H29   H     H_    0.713951 0.816018 0.494665 0.167065
H30   H     H_    0.179635 0.393739 0.428025 0.133437
H31   H     H_    0.820713 0.606943 0.571096 0.106194
H32   H     H_    0.216718 0.647127 0.605671 0.155603
N1    N     N_R   0.207800 0.519350 0.516680 -0.117281
N2    N     N_R   0.792200 0.480650 0.483320 -0.106614
O1    O     O_R   0.421700 0.658830 0.504450 -0.657700
O2    O     O_3   0.540170 0.684785 0.760695 -0.655718
O3    O     O_2   0.593036 0.706551 0.299498 -0.598561
O4    O     O_2   0.395641 0.294665 0.703654 -0.564365
O5    O     O_2   0.548370 0.882655 0.041829 -0.559032
O6    O     O_2   0.311003 0.152678 0.965841 -0.538654
O7    O     O_2   0.621339 0.236696 0.634958 -0.566979
O8    O     O_2   0.251912 0.842138 0.460991 -0.589520
O9    O     O_2   0.791020 0.109540 0.464252 -0.577242
O10   O     O_2   0.333872 0.955989 0.279750 -0.590673
O11   O     O_R   0.578300 0.341170 0.495550 -0.602047
O12   O     O_R   0.609310 0.646410 0.493750 -0.610233
O13   O     O_R   0.390690 0.353590 0.506250 -0.609340
O14   O     O_R   0.406180 0.506230 0.637500 -0.590280
O15   O     O_R   0.593820 0.493770 0.362500 -0.632940
O16   O     O_R   0.593800 0.493820 0.626800 -0.628081
O17   O     O_R   0.406200 0.506180 0.373200 -0.627390
O18   O     O_3   0.439879 0.321961 0.238309 -0.668619
Zn1   Zn    Zn3+2 0.374730 0.508290 0.507150 0.995878
Zn2   Zn    Zn3+2 0.625270 0.491710 0.492850 0.995770

loop_
_geom_bond_atom_site_label_1
_geom_bond_atom_site_label_2
_ccdc_geom_bond_type
C25   C31   A    
C10   N1    A    
C26   C32   A    
C16   C21   S    
C31   C42   S    
C27   C29   A    
C33   O18   S    
C39   H16   S    
C37   O2    S    
C35   C36   S    
C36   H7    S    
C46   H24   S    
C37   H10   S    
C3    C49   A    
O14   Zn1   S    
C40   H18   S    
C35   H6    S    
C19   C21   A    
C24   C26   A    
C38   C39   S    
C9    N2    A    
C11   C14   A    
C7    H1    S    
C11   N2    A    
C17   C20   S    
C42   O5    D    
C48   H26   S    
C1    O1    A    
C17   O15   A    
C12   O13   A    
C44   O7    D    
C43   H21   S    
C48   C51   S    
C38   H14   S    
C22   C25   A    
O1    Zn1   S    
C50   C52   A    
C40   O3    D    
C41   H19   S    
C33   H4    S    
C7    C15   A    
C41   O4    D    
C24   C41   S    
N2    Zn2   S    
N1    Zn1   S    
C37   H11   S    
C47   C50   S    
C4    C45   A    
C2    C45   A    
O13   Zn1   S    
C23   C30   A    
C4    C6    A    
C19   O2    S    
C16   O14   A    
C4    C44   S    
C3    C5    A    
C13   H30   S    
C32   C34   A    
C37   C38   S    
C34   H27   S    
C46   O8    D    
C38   H13   S    
C49   C52   A    
C22   C40   S    
C42   H20   S    
C39   H17   S    
C33   H3    S    
O17   Zn1   S    
C18   C29   A    
C18   O18   S    
C6    C50   A    
C44   H22   S    
C12   O11   A    
C8    H12   S    
O11   Zn2   S    
C16   O16   A    
C20   C22   A    
C13   C15   A    
C47   H25   S    
C36   H9    S    
O15   Zn2   S    
C7    C9    A    
C8    C14   A    
C48   O10   D    
C39   H15   S    
C23   H23   S    
C12   C45   S    
C36   H8    S    
C1    O12   A    
C25   C27   A    
C3    C46   S    
C26   C28   A    
C43   O6    D    
O12   Zn2   S    
C35   H5    S    
C11   H31   S    
C28   C30   A    
C17   O17   A    
C5    C6    A    
C29   C34   A    
C10   H32   S    
C33   C35   S    
C32   C43   S    
O16   Zn2   S    
C18   C20   A    
C52   H29   S    
C2    H28   S    
C2    C51   A    
C8    C10   A    
C21   C24   A    
C13   N1    A    
C27   C28   A    
C47   O9    D    
C14   C15   A    
C5    C51   A    
C9    H2    S    
C19   C30   A    
C1    C49   S    
C23   C31   A    
