data_mof_unit_54832.cif
_audit_creation_date              2012-12-10T17:47:13-0500
_audit_creation_method            fapswitch 2.2
_symmetry_space_group_name_H-M    P1
_symmetry_Int_Tables_number       1
_space_group_crystal_system       triclinic
_cell_length_a                    11.68414
_cell_length_b                    14.813249
_cell_length_c                    14.928999
_cell_angle_alpha                 64.489792
_cell_angle_beta                  104.610585
_cell_angle_gamma                 102.553032
_cell_volume                      2239.04192345

loop_
_atom_site_label
_atom_site_type_symbol
_atom_type_description
_atom_site_fract_x
_atom_site_fract_y
_atom_site_fract_z
_atom_type_partial_charge
C1    C     C_R   0.482502 0.119593 0.313144 0.828585
C2    C     C_R   0.517500 0.880409 0.686854 0.828637
C3    C     C_R   0.347790 0.344643 0.045297 0.123723
C4    C     C_R   0.652217 0.655298 0.954603 0.123712
C5    C     C_R   0.533255 0.458796 0.031616 0.071662
C6    C     C_R   0.466758 0.541162 0.968295 0.071650
C7    C     C_R   0.342360 0.523587 0.959778 -0.156465
C8    C     C_R   0.657645 0.476354 0.040127 -0.156492
C9    C     C_R   0.283563 0.426351 0.987806 -0.159020
C10   C     C_R   0.716440 0.573582 0.012073 -0.159017
C11   C     C_R   0.730103 0.301200 0.633248 0.290054
C12   C     C_R   0.269899 0.698797 0.366753 0.290033
C13   C     C_R   0.681878 0.210937 0.622731 -0.024009
C14   C     C_R   0.318116 0.789058 0.377273 -0.024009
C15   C     C_R   0.507831 0.282727 0.515026 0.498099
C16   C     C_R   0.492167 0.717271 0.484982 0.498059
C17   C     C_R   0.544695 0.371523 0.534971 -0.133577
C18   C     C_R   0.455300 0.628472 0.465038 -0.133583
C19   C     C_R   0.663811 0.383832 0.584883 0.011212
C20   C     C_R   0.336192 0.616166 0.415119 0.011216
C21   C     C_R   0.472858 0.451809 0.500501 0.114041
C22   C     C_R   0.527131 0.548183 0.499514 0.114003
C23   C     C_R   0.284339 0.000153 0.499780 0.830923
C24   C     C_R   0.715661 0.999847 0.500221 0.830885
C25   C     C_R   0.651871 0.561848 0.528771 -0.149265
C26   C     C_R   0.348111 0.438141 0.471257 -0.149311
C27   C     C_R   0.716895 0.480245 0.578195 -0.089053
C28   C     C_R   0.283109 0.519751 0.421812 -0.089058
C29   C     C_1   0.162551 0.000148 0.499850 -0.121710
C30   C     C_1   0.837449 0.999851 0.500151 -0.121740
C31   C     C_1   0.059956 0.000065 0.499941 0.035037
C32   C     C_1   0.940044 0.999934 0.500061 0.035025
C33   C     C_R   0.454938 0.188121 0.207355 -0.068749
C34   C     C_R   0.545067 0.811878 0.792629 -0.068693
C35   C     C_R   0.286437 0.247451 0.076613 -0.159800
C36   C     C_R   0.713561 0.752481 0.923295 -0.159806
C37   C     C_R   0.341534 0.168703 0.154947 -0.202145
C38   C     C_R   0.658473 0.831256 0.844999 -0.202215
C39   C     C_R   0.524614 0.282964 0.168802 0.088771
C40   C     C_R   0.475372 0.717049 0.831177 0.088781
C41   C     C_R   0.472228 0.361275 0.080400 0.050621
C42   C     C_R   0.527779 0.638691 0.919529 0.050690
Cu1   Cu    Cu3+1 0.469550 0.918260 0.475690 1.025533
Cu2   Cu    Cu3+1 0.530450 0.081740 0.524310 1.025537
H1    H     H_    0.186962 0.415312 0.971136 0.166666
H2    H     H_    0.813025 0.584609 0.028726 0.166663
H3    H     H_    0.701639 0.635768 0.512832 0.194219
H4    H     H_    0.298337 0.364226 0.487186 0.194227
H5    H     H_    0.711382 0.904025 0.815949 0.162160
H6    H     H_    0.288614 0.095926 0.183996 0.162156
H7    H     H_    0.192912 0.233784 0.045969 0.162634
H8    H     H_    0.807066 0.766123 0.953914 0.162661
H9    H     H_    0.289350 0.584456 0.932168 0.178639
H10   H     H_    0.710637 0.415466 0.067782 0.178604
H11   H     H_    0.811115 0.494716 0.605625 0.208353
H12   H     H_    0.188901 0.505286 0.394365 0.208363
H13   H     H_    0.266865 0.852179 0.342153 0.173990
H14   H     H_    0.733121 0.147812 0.657855 0.173994
N1    N     N_R   0.576230 0.204580 0.560790 -0.230568
N2    N     N_R   0.423770 0.795420 0.439210 -0.230569
O1    O     O_R   0.459870 0.022090 0.338120 -0.603006
O2    O     O_R   0.540130 0.977910 0.661880 -0.603010
O3    O     O_R   0.511290 0.160150 0.379180 -0.494219
O4    O     O_R   0.488710 0.839850 0.620820 -0.494222
O5    O     O_R   0.311490 0.930960 0.479480 -0.579957
O6    O     O_R   0.688510 0.069040 0.520520 -0.579969
O7    O     O_R   0.362910 0.069020 0.520540 -0.529945
O8    O     O_R   0.637090 0.930980 0.479460 -0.529949
I1    I     I_    0.306794 0.692109 0.736822 -0.313564
I2    I     I_    0.693066 0.308073 0.263199 -0.313409
Cl1   Cl    Cl    0.607703 0.717918 0.587382 -0.594863
Cl2   Cl    Cl    0.392289 0.282079 0.412640 -0.594850
Cl3   Cl    Cl    0.874430 0.307827 0.705020 -0.605020
Cl4   Cl    Cl    0.125551 0.692155 0.295008 -0.604982

loop_
_geom_bond_atom_site_label_1
_geom_bond_atom_site_label_2
_ccdc_geom_bond_type
C21   C26   A    
C4    C36   A    
C9    H1    S    
C12   Cl4   S    
Cu2   O6    S    
C28   H12   S    
C1    C33   S    
C39   C41   A    
C38   H5    S    
C15   Cl2   S    
C11   C19   A    
C33   C39   A    
C34   C40   A    
C23   C29   S    
C35   C37   A    
C5    C6    A    
C27   H11   S    
Cu2   N1    S    
C15   C17   A    
C16   N2    A    
C23   O7    A    
Cu1   O8    S    
C22   C25   A    
C10   H2    S    
C19   C27   A    
C25   H3    S    
C36   H8    S    
C24   O6    A    
C2    C34   S    
C40   C42   A    
C34   C38   A    
C21   C22   A    
C16   Cl1   S    
C1    O3    A    
C2    O4    A    
Cu1   O4    S    
Cu2   O3    S    
C40   I1    S    
C11   Cl3   S    
C8    H10   S    
C13   H14   S    
C20   C28   A    
Cu2   O2    S    
C33   C37   A    
Cu1   Cu2   S    
C3    C9    A    
C31   C32   S    
C3    C35   A    
Cu1   O5    S    
C12   C20   A    
Cu1   N2    S    
C16   C18   A    
C12   C14   A    
C35   H7    S    
C7    H9    S    
C4    C10   A    
Cu1   O1    S    
C7    C9    A    
C14   H13   S    
C5    C41   A    
C3    C41   A    
C18   C22   A    
C15   N1    A    
C1    O1    A    
C5    C8    A    
C6    C7    A    
C13   N1    A    
C26   H4    S    
C25   C27   A    
C14   N2    A    
C26   C28   A    
C23   O5    A    
C36   C38   A    
C29   C31   T    
C30   C32   T    
C37   H6    S    
C11   C13   A    
C4    C42   A    
C17   C19   A    
C39   I2    S    
C18   C20   A    
C24   C30   S    
C24   O8    A    
C8    C10   A    
C6    C42   A    
Cu2   O7    S    
C2    O2    A    
C17   C21   A    
