data_mof_unit_21039.cif
_audit_creation_date              2012-12-11T17:11:39-0500
_audit_creation_method            fapswitch 2.2
_symmetry_space_group_name_H-M    P1
_symmetry_Int_Tables_number       1
_space_group_crystal_system       triclinic
_cell_length_a                    14.938636
_cell_length_b                    6.941554
_cell_length_c                    13.663453
_cell_angle_alpha                 89.708059
_cell_angle_beta                  100.76354
_cell_angle_gamma                 90.596272
_cell_volume                      1391.85341839

loop_
_atom_site_label
_atom_site_type_symbol
_atom_type_description
_atom_site_fract_x
_atom_site_fract_y
_atom_site_fract_z
_atom_type_partial_charge
O1    O     O_R   0.398250 0.605080 0.401520 -0.538268
O2    O     O_R   0.898250 0.394920 0.901520 -0.536283
O3    O     O_R   0.584130 0.932110 0.405450 -0.513261
O4    O     O_R   0.084130 0.067890 0.905450 -0.517254
O5    O     O_R   0.601750 0.105090 0.598480 -0.530739
O6    O     O_R   0.101750 0.894910 0.098480 -0.532039
C1    C     C_R   0.612894 0.765197 0.384747 0.763258
C2    C     C_R   0.109345 0.237563 0.880312 0.755487
O7    O     O_R   0.397870 0.934620 0.389680 -0.540502
O8    O     O_R   0.897870 0.065380 0.889680 -0.550125
O9    O     O_R   0.414160 0.107620 0.582600 -0.553249
O10   O     O_R   0.914160 0.892380 0.082600 -0.554800
C3    C     C_R   0.363965 0.765433 0.362715 0.720669
C4    C     C_R   0.864151 0.234039 0.862444 0.710259
O11   O     O_R   0.585840 0.602550 0.417400 -0.541495
O12   O     O_R   0.085840 0.397450 0.917400 -0.540427
O13   O     O_3   0.505560 0.772440 0.563310 -0.377532
O14   O     O_3   0.005560 0.227560 0.063310 -0.374563
V1    V     V_3+5 0.498970 0.046250 0.488250 1.451981
V2    V     V_3+5 0.998970 0.953750 0.988250 1.417002
O15   O     O_R   0.415870 0.437500 0.594550 -0.549745
O16   O     O_R   0.915870 0.562500 0.094550 -0.537669
C5    C     C_R   0.388679 0.268310 0.617776 0.651585
C6    C     C_R   0.885219 0.728061 0.113517 0.647974
O17   O     O_R   0.602130 0.434980 0.610320 -0.541533
O18   O     O_R   0.102130 0.565020 0.110320 -0.535786
C7    C     C_R   0.636075 0.266204 0.637221 0.744772
C8    C     C_R   0.135962 0.734380 0.137318 0.751517
V3    V     V_3+5 0.501030 0.546580 0.511750 1.415394
V4    V     V_3+5 0.001030 0.453420 0.011750 1.420119
O19   O     O_3   0.494440 0.270520 0.436690 -0.362026
O20   O     O_3   0.994440 0.729480 0.936690 -0.374317
C9    C     C_1   0.716548 0.255584 0.716657 -0.198441
C10   C     C_1   0.216293 0.745170 0.216914 -0.192989
C11   C     C_1   0.783893 0.244689 0.782749 -0.184599
C12   C     C_1   0.283608 0.754640 0.283151 -0.187353
C13   C     C_2   0.256085 0.133275 0.678702 -0.300557
C14   C     C_2   0.788860 0.884810 0.217135 -0.342249
C15   C     C_2   0.326897 0.259501 0.692172 0.219584
C16   C     C_2   0.817445 0.721137 0.181058 0.253312
H1    H     H_    0.246515 0.042269 0.613166 0.083404
H2    H     H_    0.811721 0.019700 0.190187 0.087479
C17   C     C_2   0.192445 0.103435 0.750947 0.484218
C18   C     C_2   0.735954 0.893912 0.300901 0.454043
C19   C     C_2   0.167436 0.253224 0.803285 -0.341022
C20   C     C_2   0.671134 0.759359 0.309058 -0.312197
H3    H     H_    0.186208 0.398066 0.784894 0.110169
H4    H     H_    0.656164 0.642365 0.256636 0.134271
O21   O     O_3   0.352411 0.348440 0.784448 -0.573267
C21   C     C_3   0.354942 0.551950 0.776533 0.093798
H5    H     H_    0.308755 0.611182 0.823644 0.155697
H6    H     H_    0.329980 0.609821 0.700149 0.113269
C22   C     C_3   0.451290 0.625254 0.818519 -0.319659
H7    H     H_    0.471052 0.576102 0.897028 0.198311
H8    H     H_    0.500096 0.565043 0.774824 0.202254
C23   C     C_3   0.456936 0.844568 0.816237 -0.769500
H9    H     H_    0.439503 0.896633 0.738384 0.247960
H10   H     H_    0.527370 0.892804 0.848332 0.218090
H11   H     H_    0.409294 0.908085 0.860382 0.244495
O22   O     O_3   0.793969 0.545865 0.220064 -0.578646
C24   C     C_3   0.755759 0.408126 0.146712 0.065604
H12   H     H_    0.718209 0.301637 0.185071 0.156717
H13   H     H_    0.810146 0.325710 0.121117 0.143489
C25   C     C_3   0.687307 0.486092 0.056743 -0.364665
H14   H     H_    0.632709 0.567828 0.082729 0.190988
H15   H     H_    0.722264 0.583400 0.010866 0.178215
C26   C     C_3   0.644400 0.320142 0.990510 -0.809038
H16   H     H_    0.698100 0.228577 0.969061 0.219116
H17   H     H_    0.602127 0.377665 0.921432 0.229542
H18   H     H_    0.600665 0.230105 0.030310 0.232489
O23   O     O_3   0.163812 0.917421 0.768596 -0.566064
C27   C     C_3   0.099908 0.847213 0.686118 0.049138
H19   H     H_    0.104156 0.687519 0.687793 0.136382
H20   H     H_    0.114452 0.893211 0.612560 0.088530
C28   C     C_3   0.002620 0.904458 0.694044 -0.300658
H21   H     H_    0.990567 0.872497 0.769720 0.245843
H22   H     H_    0.993819 0.061425 0.680518 0.167229
C29   C     C_3   0.931231 0.793300 0.620937 -0.835283
H23   H     H_    0.945367 0.803876 0.544184 0.234511
H24   H     H_    0.862579 0.851613 0.622125 0.232677
H25   H     H_    0.930768 0.640231 0.644039 0.227861
O24   O     O_3   0.748788 0.046621 0.368746 -0.568626
C30   C     C_3   0.839955 0.115284 0.386294 0.079114
H26   H     H_    0.852074 0.207738 0.323430 0.148160
H27   H     H_    0.888911 0.993385 0.396309 0.112088
C31   C     C_3   0.858396 0.238424 0.480297 -0.256194
H28   H     H_    0.814261 0.367703 0.469718 0.203637
H29   H     H_    0.841823 0.154585 0.544000 0.192442
C32   C     C_3   0.958371 0.302124 0.503852 -0.869418
H30   H     H_    0.004103 0.176894 0.503954 0.227440
H31   H     H_    0.974131 0.367953 0.578771 0.218702
H32   H     H_    0.972549 0.409133 0.447818 0.241754

loop_
_geom_bond_atom_site_label_1
_geom_bond_atom_site_label_2
_ccdc_geom_bond_type
C14   C16   D    
C16   O22   S    
O13   V3    S    
O4    C2    A    
V1    O19   S    
C22   H7    S    
C7    C9    S    
O9    V1    S    
C14   H2    S    
O3    C1    A    
C18   O24   S    
C9    C11   T    
C29   H24   S    
O12   V4    S    
C23   H9    S    
C24   H13   S    
O7    C3    A    
C2    C19   S    
O13   V1    S    
O5    C7    A    
O7    V1    S    
O6    C8    A    
O8    V2    S    
C21   H6    S    
O3    V1    S    
O14   V4    S    
C32   H31   S    
O14   V2    S    
C19   H3    S    
C8    C10   S    
C2    O12   A    
C27   C28   S    
C18   C20   D    
O11   V3    S    
C22   H8    S    
O17   V3    S    
C20   H4    S    
C21   C22   S    
C26   H16   S    
C1    C20   S    
C3    C12   S    
C27   H20   S    
O8    C4    A    
C4    C11   S    
C29   H23   S    
C1    O11   A    
O15   V3    S    
O22   C24   S    
C26   H17   S    
C25   H15   S    
C13   C17   S    
C24   C25   S    
C28   H21   S    
C25   C26   S    
C14   C18   S    
C28   H22   S    
C30   H26   S    
O10   V2    S    
O1    V3    S    
C21   H5    S    
C32   H32   S    
C17   C19   D    
C30   H27   S    
O18   V4    S    
O15   C5    A    
O21   C21   S    
O16   C6    A    
O1    C3    A    
V2    O20   S    
C22   C23   S    
C17   O23   S    
O16   V4    S    
C15   O21   S    
C31   H28   S    
C27   H19   S    
C31   C32   S    
O5    V1    S    
O17   C7    A    
O6    V2    S    
O10   C6    A    
O18   C8    A    
C23   H11   S    
O2    V4    S    
C26   H18   S    
C25   H14   S    
O23   C27   S    
V3    O19   S    
V4    O20   S    
C29   H25   S    
C5    C15   S    
O9    C5    A    
C6    C16   S    
C10   C12   T    
C23   H10   S    
C31   H29   S    
C13   H1    S    
C24   H12   S    
O2    C4    A    
C28   C29   S    
O4    V2    S    
C30   C31   S    
C13   C15   D    
O24   C30   S    
C32   H30   S    
