data_mof_unit_38520.cif
_audit_creation_date              2012-12-11T14:49:25-0500
_audit_creation_method            fapswitch 2.2
_symmetry_space_group_name_H-M    P1
_symmetry_Int_Tables_number       1
_space_group_crystal_system       triclinic
_cell_length_a                    16.863919
_cell_length_b                    16.780411
_cell_length_c                    19.720486
_cell_angle_alpha                 116.783228
_cell_angle_beta                  63.298399
_cell_angle_gamma                 100.356455
_cell_volume                      4448.79787913

loop_
_atom_site_label
_atom_site_type_symbol
_atom_type_description
_atom_site_fract_x
_atom_site_fract_y
_atom_site_fract_z
_atom_type_partial_charge
C1    C     C_R   0.011629 0.759075 0.037994 -0.136065
C2    C     C_R   0.744386 0.523721 0.252525 0.040022
C3    C     C_R   0.742023 0.457163 0.932966 -0.100377
C4    C     C_R   0.056048 0.735673 0.238591 -0.069650
C5    C     C_R   0.260164 0.515624 0.960461 -0.094082
C6    C     C_R   0.972068 0.248282 0.825925 0.576349
C7    C     C_R   0.157943 0.510394 0.760689 0.581267
C8    C     C_R   0.027503 0.314356 0.076358 -0.286352
C9    C     C_R   0.945838 0.246735 0.006934 0.661774
C10   C     C_R   0.236416 0.579120 0.836927 -0.213722
C11   C     C_R   0.194294 0.434886 0.034164 -0.131092
C12   C     C_R   0.749006 0.473459 0.172212 0.616794
C13   C     C_R   0.044109 0.329540 0.753800 -0.293639
C14   C     C_R   0.274642 0.446279 0.973890 0.108330
C15   C     C_R   0.030907 0.244262 0.747394 -0.081324
C16   C     C_R   0.233103 0.559463 0.763119 -0.070337
C17   C     C_R   0.987582 0.234485 0.048154 -0.034473
C18   C     C_R   0.099891 0.098794 0.637475 -0.255765
C19   C     C_R   0.044247 0.171046 0.669387 0.144361
C20   C     C_R   0.995412 0.173920 0.629391 -0.300128
C21   C     C_R   0.998640 0.102026 0.557533 0.144336
C22   C     C_R   0.053450 0.027306 0.524548 0.026065
C23   C     C_R   0.816960 0.506756 0.910444 0.595400
C24   C     C_R   0.105264 0.025936 0.563942 0.124242
C25   C     C_R   0.946137 0.103035 0.519668 -0.213548
C26   C     C_R   0.946753 0.029021 0.449094 -0.200277
C27   C     C_R   0.000569 0.954585 0.416097 0.141664
C28   C     C_R   0.054964 0.953553 0.453126 0.025711
C29   C     C_R   0.109760 0.878332 0.419256 0.132870
C30   C     C_R   0.162126 0.877766 0.457630 -0.203301
C31   C     C_R   0.159581 0.951321 0.530096 -0.199442
C32   C     C_R   0.000901 0.880845 0.346380 -0.279382
C33   C     C_R   0.057221 0.808463 0.311743 0.129848
C34   C     C_R   0.009328 0.660271 0.239899 -0.207062
C35   C     C_R   0.110646 0.805260 0.347586 -0.253147
C36   C     C_R   0.356527 0.478622 0.636718 -0.307381
C37   C     C_R   0.310818 0.559662 0.692884 0.109673
C38   C     C_R   0.342534 0.639002 0.685209 -0.194549
C39   C     C_R   0.419141 0.636297 0.615202 -0.069247
C40   C     C_R   0.462576 0.552711 0.554689 0.061646
C41   C     C_R   0.432304 0.474319 0.567328 0.196676
C42   C     C_R   0.451757 0.714305 0.603165 0.597766
C43   C     C_R   0.527168 0.708303 0.530676 -0.295117
C44   C     C_R   0.566431 0.624739 0.467797 -0.112492
C45   C     C_R   0.750561 0.430070 0.986122 -0.192702
C46   C     C_R   0.534334 0.546586 0.480405 -0.095839
C47   C     C_R   0.572820 0.461689 0.418272 -0.049613
C48   C     C_R   0.547683 0.386304 0.435788 -0.135256
C49   C     C_R   0.476993 0.392468 0.509794 -0.242753
C50   C     C_R   0.636985 0.617459 0.392214 0.544704
C51   C     C_R   0.669426 0.532057 0.328749 -0.255775
C52   C     C_R   0.635226 0.453884 0.339544 0.516447
C53   C     C_R   0.672007 0.431418 0.901515 -0.028329
C54   C     C_R   0.360173 0.398638 0.935400 -0.101450
C55   C     C_R   0.453807 0.322133 0.953346 0.659526
C56   C     C_R   0.077507 0.738651 0.163181 0.566017
C57   C     C_R   0.369693 0.341731 0.966000 -0.443462
C58   C     C_R   0.436483 0.420002 0.876891 0.567392
C59   C     C_R   0.518413 0.414869 0.876093 -0.094927
C60   C     C_R   0.528348 0.364711 0.913439 -0.259458
C61   C     C_R   0.610566 0.364547 0.915500 0.601710
C62   C     C_R   0.660707 0.479660 0.863803 -0.274026
C63   C     C_R   0.587796 0.466617 0.845812 -0.127572
C64   C     C_R   0.768535 0.173070 0.219534 0.064465
C65   C     C_R   0.888772 0.853786 0.063885 -0.034233
C66   C     C_R   0.743939 0.926650 0.129721 -0.345538
C67   C     C_R   0.829430 0.538622 0.247467 -0.167729
C68   C     C_R   0.796602 0.847869 0.084772 0.616102
C69   C     C_R   0.926450 0.938097 0.087922 -0.305725
C70   C     C_R   0.873942 0.016451 0.131375 0.144617
C71   C     C_R   0.781925 0.010896 0.151416 -0.065757
C72   C     C_R   0.729630 0.090124 0.194041 0.556163
C73   C     C_R   0.858864 0.178262 0.201076 -0.260928
C74   C     C_R   0.911757 0.100478 0.156428 -0.195312
C75   C     C_R   0.933933 0.690095 0.961458 -0.029073
C76   C     C_R   0.945590 0.772189 0.019651 0.050612
H1    H     H_    0.054580 0.332812 0.121606 0.138817
H2    H     H_    0.283392 0.621636 0.859893 0.156129
H3    H     H_    0.182404 0.388254 0.061016 0.104274
H4    H     H_    0.952089 0.231179 0.656539 0.125786
H5    H     H_    0.204305 0.820350 0.432019 0.127202
H6    H     H_    0.199564 0.949763 0.559824 0.128241
H7    H     H_    0.331522 0.418609 0.646591 0.112285
H8    H     H_    0.306303 0.701323 0.732516 0.175136
H9    H     H_    0.581820 0.322257 0.392319 0.167089
H10   H     H_    0.312153 0.316224 0.003750 0.170313
H11   H     H_    0.988539 0.635282 0.287066 0.134178
H12   H     H_    0.887900 0.242936 0.221178 0.159044
H13   H     H_    0.981962 0.105993 0.142159 0.137273
H14   H     H_    0.712690 0.380541 0.006845 0.235843
H15   H     H_    0.849281 0.571142 0.298566 0.145005
H16   H     H_    0.306703 0.547084 0.921850 0.171080
N1    N     N_R   0.036080 0.671900 0.995420 -0.043213
N2    N     N_R   0.954660 0.334720 0.880230 -0.112976
N3    N     N_R   0.116260 0.502360 0.832930 -0.090443
N4    N     N_R   0.012950 0.371090 0.051890 -0.064863
N5    N     N_R   0.963920 0.328100 0.004580 -0.124784
N6    N     N_R   0.165290 0.545350 0.880240 -0.074414
N7    N     N_R   0.132570 0.490700 0.051900 -0.041505
N8    N     N_R   0.996640 0.382750 0.832930 -0.074747
N9    N     N_R   0.834710 0.454650 0.119760 -0.121167
N10   N     N_R   0.867430 0.509300 0.948100 -0.095251
N11   N     N_R   0.003360 0.617250 0.167070 -0.064338
N12   N     N_R   0.825450 0.461270 0.995400 -0.090527
N13   N     N_R   0.045340 0.665280 0.119770 -0.089956
N14   N     N_R   0.883740 0.497640 0.167070 -0.079183
N15   N     N_R   0.987050 0.628910 0.948110 -0.051276
N16   N     N_R   0.174550 0.538730 0.004600 -0.047024
Ni1   Ni    Ni4+2 0.104370 0.604370 0.000010 0.257040
Ni2   Ni    Ni4+2 0.895630 0.395630 0.999990 0.204491
Ni3   Ni    Ni4+2 0.991920 0.505780 0.891500 0.252689
Ni4   Ni    Ni4+2 0.008080 0.494220 0.108500 0.191015
H17   H     H_    0.034276 0.808393 0.083431 0.131686
O1    O     O_3   0.936664 0.177329 0.846535 -0.600958
C77   C     C_3   0.889600 0.121545 0.799128 -0.174956
H18   H     H_    0.932994 0.064650 0.743980 0.157065
H19   H     H_    0.860775 0.157041 0.779029 0.085028
H20   H     H_    0.833576 0.093187 0.838327 0.167395
O2    O     O_3   0.111475 0.509006 0.717363 -0.629444
C78   C     C_3   0.164805 0.474419 0.630589 -0.312634
H21   H     H_    0.203738 0.413457 0.607669 0.129911
H22   H     H_    0.208507 0.526482 0.613408 0.173473
H23   H     H_    0.120581 0.454519 0.597947 0.172840
O3    O     O_3   0.878171 0.191578 0.992422 -0.595657
C79   C     C_3   0.800083 0.242003 0.028437 -0.158921
H24   H     H_    0.781382 0.284515 0.096106 0.152826
H25   H     H_    0.806777 0.281897 0.994339 0.154046
H26   H     H_    0.745412 0.195433 0.022694 0.142796
H27   H     H_    0.080597 0.349820 0.703419 0.175938
H28   H     H_    0.136933 0.099040 0.670493 0.136137
H29   H     H_    0.903941 0.160457 0.545239 0.129597
O4    O     O_3   0.679894 0.433432 0.150316 -0.644273
C80   C     C_3   0.615304 0.498474 0.180545 -0.339552
H30   H     H_    0.645246 0.554285 0.161958 0.153578
H31   H     H_    0.576381 0.523835 0.249257 0.140578
H32   H     H_    0.567823 0.466688 0.151836 0.179849
H33   H     H_    0.905305 0.029854 0.420397 0.134093
H34   H     H_    0.958422 0.879801 0.317810 0.125694
H35   H     H_    0.152475 0.746734 0.319511 0.130969
O5    O     O_3   0.412661 0.796865 0.664047 -0.607791
C81   C     C_3   0.361052 0.824348 0.638109 -0.274921
H36   H     H_    0.309794 0.774743 0.626374 0.130757
H37   H     H_    0.403359 0.836824 0.581567 0.134626
H38   H     H_    0.325774 0.888115 0.688985 0.184725
H39   H     H_    0.552804 0.769078 0.522917 0.191545
O6    O     O_3   0.677528 0.693437 0.382304 -0.601477
C82   C     C_3   0.641396 0.717257 0.341646 -0.250640
H40   H     H_    0.567520 0.714765 0.368027 0.111948
H41   H     H_    0.670771 0.674385 0.273471 0.145567
H42   H     H_    0.659275 0.786993 0.350140 0.180822
O7    O     O_3   0.847346 0.532236 0.845504 -0.657577
C83   C     C_3   0.883037 0.457338 0.768080 -0.240449
H43   H     H_    0.845383 0.395181 0.766379 0.110865
H44   H     H_    0.953177 0.445908 0.751322 0.203585
H45   H     H_    0.881874 0.472224 0.719146 0.170809
O8    O     O_3   0.666155 0.370691 0.273354 -0.620421
C84   C     C_3   0.597577 0.326945 0.247748 -0.157255
H46   H     H_    0.543615 0.372546 0.266329 0.117873
H47   H     H_    0.568152 0.275319 0.271861 0.142556
H48   H     H_    0.626501 0.291744 0.178676 0.168302
H49   H     H_    0.455869 0.332934 0.521075 0.130817
O9    O     O_3   0.627438 0.303458 0.936639 -0.610208
C85   C     C_3   0.679550 0.232613 0.862252 -0.217643
H50   H     H_    0.643207 0.197394 0.821984 0.151563
H51   H     H_    0.694063 0.183686 0.878909 0.164711
H52   H     H_    0.744032 0.256396 0.827012 0.104859
H53   H     H_    0.705075 0.531223 0.851512 0.200482
O10   O     O_3   0.461701 0.266944 0.985291 -0.575055
C86   C     C_3   0.431872 0.314137 0.072877 -0.140421
H54   H     H_    0.358355 0.322765 0.104352 0.099235
H55   H     H_    0.463419 0.380205 0.090714 0.108254
H56   H     H_    0.450700 0.274644 0.096131 0.158668
H57   H     H_    0.581179 0.506157 0.817688 0.181331
O11   O     O_3   0.431481 0.456614 0.828549 -0.642735
C87   C     C_3   0.411939 0.388303 0.763525 -0.282131
H58   H     H_    0.343382 0.364438 0.788219 0.147636
H59   H     H_    0.461112 0.331496 0.726190 0.142043
H60   H     H_    0.415966 0.415883 0.720581 0.186552
O12   O     O_3   0.639557 0.087671 0.215047 -0.623875
C88   C     C_3   0.626910 0.081955 0.146996 -0.282881
H61   H     H_    0.651987 0.016650 0.092174 0.149309
H62   H     H_    0.659222 0.137255 0.128534 0.132444
H63   H     H_    0.554701 0.087389 0.166043 0.172471
H64   H     H_    0.672817 0.921807 0.149543 0.186329
O13   O     O_3   0.757381 0.765208 0.070532 -0.633284
C89   C     C_3   0.709834 0.749830 0.022503 -0.292135
H65   H     H_    0.748104 0.768266 0.968819 0.139599
H66   H     H_    0.644218 0.785478 0.062215 0.152722
H67   H     H_    0.697113 0.677399 0.996086 0.185899
H68   H     H_    0.996953 0.942633 0.072581 0.146341
O14   O     O_3   0.150867 0.778942 0.122592 -0.623100
C90   C     C_3   0.147297 0.872027 0.169807 -0.276696
H69   H     H_    0.171641 0.888989 0.218349 0.171256
H70   H     H_    0.080012 0.901963 0.197467 0.115355
H71   H     H_    0.192910 0.902843 0.127294 0.177084
H72   H     H_    0.887292 0.676223 0.934373 0.172247

loop_
_geom_bond_atom_site_label_1
_geom_bond_atom_site_label_2
_ccdc_geom_bond_type
C66   C68   A    
C75   N15   A    
C84   H46   S    
C73   C74   A    
C3    C23   A    
C85   H50   S    
C8    N4    A    
C43   C44   A    
C26   H33   S    
C2    C12   A    
O1    C77   S    
C10   H2    S    
N3    N6    A    
C87   H59   S    
N14   Ni4   S    
N16   Ni1   S    
C15   C19   S    
N7    N16   A    
N4    Ni4   S    
C26   C27   A    
C37   C38   A    
C65   C76   S    
C18   C24   A    
C74   H13   S    
C28   C29   A    
C82   H41   S    
O6    C82   S    
C81   H37   S    
C38   C39   A    
N10   N12   A    
C11   C14   A    
C23   N10   A    
C36   H7    S    
C77   H18   S    
N9    N14   A    
C9    O3    S    
C57   H10   S    
C11   N7    A    
C18   C19   A    
C86   H54   S    
C10   N6    A    
O11   C87   S    
C6    O1    S    
C66   H64   S    
C35   H35   S    
C6    C15   A    
C4    C33   S    
C53   C61   A    
C89   H67   S    
C82   H40   S    
C44   C46   A    
O4    C80   S    
C6    N2    A    
C70   C74   A    
C79   H26   S    
O7    C83   S    
C70   C71   A    
C87   H60   S    
C8    H1    S    
C49   H49   S    
C88   H63   S    
C16   C37   S    
C75   H72   S    
C50   O6    S    
C62   H53   S    
C56   O14   S    
C59   C60   A    
C84   H47   S    
N6    Ni1   S    
C22   C28   A    
C21   C22   A    
C4    C56   A    
C86   H55   S    
C36   C41   A    
C58   O11   S    
C1    H17   S    
C55   O10   S    
C41   C49   A    
C78   H22   S    
C63   H57   S    
C39   C42   A    
C4    C34   A    
C20   H4    S    
C42   O5    S    
C51   C52   A    
C90   H71   S    
C7    O2    S    
C82   H42   S    
O5    C81   S    
C2    C67   A    
C81   H38   S    
C39   C40   A    
C10   C16   A    
C77   H19   S    
C25   C26   A    
C3    C45   A    
C61   O9    S    
N11   Ni4   S    
C90   H70   S    
C40   C46   A    
C75   C76   A    
C73   H12   S    
C32   H34   S    
C29   C30   A    
C43   H39   S    
C45   N12   A    
C80   H32   S    
C80   H30   S    
C53   C62   A    
C47   C48   A    
C83   H45   S    
N2    N8    A    
C64   C73   A    
C77   H20   S    
N4    N5    A    
C85   H52   S    
C62   C63   A    
C67   H15   S    
C50   C51   A    
N11   N13   A    
C20   C21   A    
N10   Ni3   S    
C45   H14   S    
C31   H6    S    
C5    C14   A    
C11   H3    S    
C66   C71   A    
C9    C17   A    
O10   C86   S    
C14   C54   S    
C83   H44   S    
C68   O13   S    
C84   H48   S    
C13   C15   A    
C79   H24   S    
C86   H56   S    
C22   C24   A    
C18   H28   S    
C42   C43   A    
C65   C68   A    
C89   H66   S    
C25   H29   S    
C78   H21   S    
C79   H25   S    
O9    C85   S    
C54   C58   A    
C44   C50   A    
O14   C90   S    
C21   C25   A    
C46   C47   A    
C36   C37   A    
C9    N5    A    
C12   O4    S    
C38   H8    S    
C27   C32   A    
C1    C76   A    
N15   Ni3   S    
C7    C16   A    
C34   N11   A    
C69   H68   S    
O2    C78   S    
C78   H23   S    
C67   N14   A    
C47   C52   A    
C52   O8    S    
C7    N3    A    
C29   C35   A    
C59   C63   A    
C8    C17   A    
C90   H69   S    
C19   C20   A    
C55   C57   A    
N9    Ni2   S    
C24   C31   A    
C12   N9    A    
C87   H58   S    
N3    Ni3   S    
C81   H36   S    
C32   C33   A    
C88   H62   S    
N12   Ni2   S    
N5    Ni2   S    
C3    C53   S    
O13   C89   S    
C30   C31   A    
N13   Ni1   S    
C13   N8    A    
C65   C69   A    
N7    Ni4   S    
C33   C35   A    
N2    Ni2   S    
C34   H11   S    
C64   C72   A    
C69   C70   A    
C58   C59   A    
C56   N13   A    
C5    H16   S    
C2    C51   S    
C23   O7    S    
O12   C88   S    
C71   C72   A    
O8    C84   S    
C83   H43   S    
N8    Ni3   S    
C1    N1    A    
C48   C49   A    
C27   C28   A    
C80   H31   S    
C13   H27   S    
C48   H9    S    
C60   C61   A    
C85   H51   S    
C40   C41   A    
C72   O12   S    
C89   H65   S    
C55   C60   A    
C5    N16   A    
C30   H5    S    
N1    N15   A    
C88   H61   S    
N1    Ni1   S    
O3    C79   S    
C54   C57   A    
