data_mof_unit_58140.cif
_audit_creation_date              2012-12-11T17:06:36-0500
_audit_creation_method            fapswitch 2.2
_symmetry_space_group_name_H-M    P1
_symmetry_Int_Tables_number       1
_space_group_crystal_system       triclinic
_cell_length_a                    6.944031
_cell_length_b                    14.644834
_cell_length_c                    15.885992
_cell_angle_alpha                 90.663777
_cell_angle_beta                  89.744115
_cell_angle_gamma                 89.856416
_cell_volume                      1615.38314421

loop_
_atom_site_label
_atom_site_type_symbol
_atom_type_description
_atom_site_fract_x
_atom_site_fract_y
_atom_site_fract_z
_atom_type_partial_charge
O1    O     O_R   0.494400 0.415450 0.412630 -0.535286
O2    O     O_R   0.823940 0.405730 0.586760 -0.549733
O3    O     O_R   0.994240 0.584550 0.587370 -0.538045
C1    C     C_R   0.655219 0.383819 0.615594 0.683306
O4    O     O_R   0.824110 0.404430 0.413240 -0.546434
O5    O     O_R   0.994420 0.583240 0.412620 -0.537215
C2    C     C_R   0.655782 0.383500 0.383222 0.693919
O6    O     O_R   0.494230 0.416760 0.587380 -0.539015
O7    O     O_3   0.660800 0.558670 0.500000 -0.365072
V1    V     V_3+5 0.935650 0.489120 0.500000 1.367986
O8    O     O_R   0.324140 0.594270 0.413240 -0.538542
C3    C     C_R   0.155133 0.615984 0.384056 0.700287
O9    O     O_R   0.323960 0.595570 0.586760 -0.540192
C4    C     C_R   0.154724 0.615416 0.617395 0.680320
V2    V     V_3+5 0.435660 0.510880 0.500000 1.388503
O10   O     O_3   0.160640 0.441330 0.500000 -0.379538
C5    C     C_3   0.954447 0.716130 0.731805 -0.116380
C6    C     C_3   0.049753 0.706543 0.819299 -0.143318
H1    H     H_    0.980908 0.676345 0.875657 0.098046
H2    H     H_    0.806918 0.693157 0.715350 0.110034
C7    C     C_3   0.123544 0.805315 0.812994 -0.001241
C8    C     C_3   0.028090 0.815497 0.726444 -0.133567
C9    C     C_3   0.216281 0.780871 0.683746 -0.143373
C10   C     C_3   0.311604 0.771254 0.771061 -0.119886
C11   C     C_3   0.237741 0.671778 0.776286 -0.142849
C12   C     C_3   0.142528 0.682581 0.689613 -0.009144
H3    H     H_    0.937404 0.874477 0.708352 0.095962
H4    H     H_    0.289282 0.806913 0.626869 0.114847
H5    H     H_    0.459158 0.794405 0.787258 0.107342
H6    H     H_    0.324249 0.612042 0.796245 0.096735
C13   C     C_R   0.271708 0.815346 0.240207 0.102604
C14   C     C_R   0.118316 0.815130 0.183085 -0.113678
C15   C     C_R   0.967463 0.753134 0.198189 -0.179888
H7    H     H_    0.845626 0.750391 0.156202 0.131527
C16   C     C_R   0.978620 0.689525 0.264092 -0.176978
H8    H     H_    0.864436 0.640067 0.270946 0.126639
C17   C     C_R   0.141293 0.685609 0.316860 -0.114339
C18   C     C_R   0.283176 0.752179 0.305158 0.101462
C19   C     C_3   0.494930 0.740914 0.293660 -0.409114
C20   C     C_3   0.482574 0.810081 0.223298 -0.398117
H9    H     H_    0.533332 0.671074 0.271119 0.165883
H10   H     H_    0.577185 0.766069 0.349096 0.175599
H11   H     H_    0.514673 0.780633 0.159967 0.170339
H12   H     H_    0.556887 0.875398 0.238234 0.167842
C21   C     C_R   0.504003 0.245755 0.682243 0.049743
C22   C     C_R   0.648317 0.312254 0.680783 -0.123120
C23   C     C_R   0.796414 0.303931 0.740826 -0.184434
H13   H     H_    0.915374 0.351482 0.740958 0.116832
C24   C     C_R   0.785358 0.238101 0.805091 -0.184468
H14   H     H_    0.896448 0.236978 0.852639 0.124046
C25   C     C_R   0.626138 0.178564 0.810990 -0.122144
C26   C     C_R   0.493946 0.180703 0.744877 0.041285
C27   C     C_3   0.279105 0.175282 0.740718 -0.103634
C28   C     C_3   0.289816 0.250267 0.672840 -0.096624
H15   H     H_    0.212734 0.202058 0.799860 0.109681
H16   H     H_    0.235183 0.316668 0.698083 0.101134
C29   C     C_R   0.517478 0.326035 0.245694 0.104608
C30   C     C_R   0.649407 0.317971 0.311749 -0.102921
C31   C     C_R   0.786815 0.247150 0.304025 -0.194472
H17   H     H_    0.897011 0.239607 0.351073 0.127994
C32   C     C_R   0.775632 0.181658 0.238225 -0.183341
H18   H     H_    0.879834 0.126500 0.236288 0.124726
C33   C     C_R   0.624842 0.184502 0.178812 -0.109828
C34   C     C_R   0.504334 0.261045 0.182429 0.100691
C35   C     C_3   0.295029 0.277937 0.169344 -0.406549
C36   C     C_3   0.310140 0.351794 0.238062 -0.415284
H19   H     H_    0.204913 0.218881 0.188189 0.183204
H20   H     H_    0.264472 0.305879 0.106033 0.165443
H21   H     H_    0.223418 0.337004 0.294799 0.182865
H22   H     H_    0.291903 0.422043 0.213499 0.160643
O11   O     O_R   0.771650 0.079500 0.908680 -0.540936
O12   O     O_R   0.441690 0.091800 0.082800 -0.539648
O13   O     O_R   0.271460 0.912980 0.083410 -0.536014
C37   C     C_R   0.610479 0.114153 0.111671 0.699223
O14   O     O_R   0.441930 0.090510 0.909280 -0.543434
O15   O     O_R   0.271690 0.911670 0.908660 -0.541471
C38   C     C_R   0.611323 0.112188 0.880354 0.699613
O16   O     O_R   0.771410 0.080810 0.083440 -0.538480
O17   O     O_3   0.605100 0.937580 0.996050 -0.369864
V3    V     V_3+5 0.330220 0.007110 0.996030 1.388075
O18   O     O_R   0.941980 0.900620 0.909250 -0.541366
C39   C     C_R   0.111614 0.877031 0.881584 0.666278
O19   O     O_R   0.941740 0.901920 0.082770 -0.543763
C40   C     C_R   0.110487 0.880111 0.111864 0.692973
V4    V     V_3+5 0.830220 0.985300 0.996000 1.385035
O20   O     O_3   0.105210 0.054870 0.996020 -0.370105
C41   C     C_3   0.198855 0.079263 0.717366 -0.278387
C42   C     C_3   0.326090 0.018323 0.658974 -0.270855
C43   C     C_3   0.218701 0.983048 0.581205 -0.802950
H23   H     H_    0.088388 0.944618 0.599246 0.222018
H24   H     H_    0.172558 0.039178 0.540433 0.237943
H25   H     H_    0.315136 0.937923 0.543331 0.210915
H26   H     H_    0.458410 0.053129 0.637826 0.187066
H27   H     H_    0.376905 0.958668 0.695320 0.170643
H28   H     H_    0.180130 0.042238 0.777500 0.147114
H29   H     H_    0.050098 0.086304 0.692890 0.166319
C44   C     C_3   0.208814 0.230262 0.583644 -0.268685
C45   C     C_3   0.359199 0.207413 0.514709 -0.286276
C46   C     C_3   0.264124 0.197049 0.429045 -0.802242
H30   H     H_    0.157268 0.140875 0.429008 0.214895
H31   H     H_    0.190134 0.261708 0.413940 0.232865
H32   H     H_    0.374758 0.182147 0.380100 0.231439
H33   H     H_    0.466465 0.262872 0.510286 0.194676
H34   H     H_    0.438303 0.143909 0.528737 0.193248
H35   H     H_    0.094182 0.178294 0.585336 0.165464
H36   H     H_    0.131493 0.292555 0.564257 0.194366

loop_
_geom_bond_atom_site_label_1
_geom_bond_atom_site_label_2
_ccdc_geom_bond_type
C41   C42   S    
C6    C7    S    
C16   H8    S    
O17   V4    S    
C29   C36   S    
C1    O6    A    
O18   C39   A    
C23   C24   A    
C1    C22   S    
C21   C22   A    
C5    C12   S    
C16   C17   A    
O5    C3    A    
C18   C19   S    
C36   H21   S    
V2    O10   S    
C44   C45   S    
C5    H2    S    
C13   C20   S    
C6    H1    S    
C9    C12   S    
C3    C17   S    
C32   C33   A    
C10   H5    S    
V3    O20   S    
O11   V4    S    
O8    V2    S    
C20   H11   S    
C23   H13   S    
C35   H19   S    
C41   H28   S    
C9    C10   S    
C28   C44   S    
O1    V2    S    
C43   H24   S    
O14   V3    S    
O13   C40   A    
C44   H35   S    
C42   C43   S    
C31   H17   S    
C7    C8    S    
C6    C11   S    
C15   H7    S    
C19   H10   S    
C42   H27   S    
C27   H15   S    
C14   C40   S    
C28   H16   S    
C31   C32   A    
C25   C26   A    
C10   C11   S    
C19   H9    S    
O15   C39   A    
C19   C20   S    
O4    C2    A    
C42   H26   S    
C21   C26   A    
C24   C25   A    
C30   C31   A    
V4    O20   S    
O17   V3    S    
O2    C1    A    
C25   C38   S    
C17   C18   A    
O19   C40   A    
C35   H20   S    
C41   H29   S    
C5    C6    S    
C27   C41   S    
C9    H4    S    
C4    C12   S    
C43   H25   S    
O14   C38   A    
O3    C4    A    
C44   H36   S    
O16   V4    S    
O12   C37   A    
O19   V4    S    
C21   C28   S    
C45   C46   S    
O6    V2    S    
C8    H3    S    
O9    V2    S    
O2    V1    S    
O11   C38   A    
C26   C27   S    
C29   C34   A    
O7    V1    S    
C11   H6    S    
C22   C23   A    
C2    C30   S    
C46   H31   S    
O1    C2    A    
C13   C14   A    
O15   V3    S    
O5    V1    S    
O8    C3    A    
C13   C18   A    
C27   C28   S    
C33   C37   S    
C5    C8    S    
C46   H30   S    
C14   C15   A    
C11   C12   S    
O4    V1    S    
O12   V3    S    
O3    V1    S    
V1    O10   S    
C34   C35   S    
C29   C30   A    
C36   H22   S    
C45   H34   S    
C15   C16   A    
O13   V3    S    
C35   C36   S    
O7    V2    S    
C32   H18   S    
C33   C34   A    
C20   H12   S    
C46   H32   S    
C7    C39   S    
C24   H14   S    
C37   O16   A    
C7    C10   S    
C8    C9    S    
C43   H23   S    
O9    C4    A    
O18   V4    S    
C45   H33   S    
