data_mof_unit_47913.cif
_audit_creation_date              2013-03-05T16:19:21-0500
_audit_creation_method            fapswitch 2.2
_symmetry_space_group_name_H-M    P1
_symmetry_Int_Tables_number       1
_space_group_crystal_system       triclinic
_cell_length_a                    10.745799
_cell_length_b                    9.876181
_cell_length_c                    23.469081
_cell_angle_alpha                 90.426372
_cell_angle_beta                  92.369198
_cell_angle_gamma                 89.003874
_cell_volume                      2488.15235557

loop_
_atom_site_label
_atom_site_type_symbol
_atom_site_description
_atom_site_fract_x
_atom_site_fract_y
_atom_site_fract_z
_atom_type_partial_charge
O1    O     O_R   0.314910 0.616040 0.499990 -0.480321
O2    O     O_R   0.314910 0.383960 0.499990 -0.539737
C1    C     C_R   0.258266 0.500793 0.500599 0.966565
O3    O     O_R   0.500080 0.616070 0.416130 -0.538966
O4    O     O_R   0.500080 0.383930 0.416130 -0.531198
C2    C     C_R   0.499594 0.499437 0.389544 0.925794
Zn1   Zn    Zn3+2 0.500150 0.654960 0.499970 1.158476
Zn2   Zn    Zn3+2 0.500150 0.345040 0.499970 1.111419
O5    O     O_R   0.685320 0.616040 0.499970 -0.568600
O6    O     O_R   0.685320 0.383960 0.499970 -0.608076
O7    O     O_R   0.500150 0.616010 0.583820 -0.541343
O8    O     O_R   0.500150 0.383990 0.583820 -0.606387
C3    C     C_R   0.742213 0.498982 0.504369 0.956551
C4    C     C_R   0.494719 0.500628 0.610161 0.845389
C5    C     C_R   0.566112 0.483761 0.881479 0.558722
N1    N     N_R   0.456185 0.501568 0.851051 -0.333813
C6    C     C_R   0.344852 0.511205 0.877161 0.524571
C7    C     C_R   0.340267 0.496668 0.936934 -0.046615
C8    C     C_R   0.454749 0.495078 0.968812 -0.050082
C9    C     C_R   0.568441 0.489974 0.940712 -0.096900
C10   C     C_R   0.226648 0.488151 0.965711 0.171713
C11   C     C_R   0.228379 0.497423 0.026037 0.108617
C12   C     C_R   0.344218 0.491701 0.057659 -0.051989
C13   C     C_R   0.456744 0.496580 0.028752 -0.121618
C14   C     C_R   0.572214 0.505157 0.059793 -0.158727
C15   C     C_R   0.684388 0.503602 0.030913 0.672329
C16   C     C_R   0.682119 0.492671 0.972017 -0.246934
C17   C     C_R   0.352977 0.477334 0.117513 0.612282
N2    N     N_R   0.464666 0.493096 0.146618 -0.343526
C18   C     C_R   0.572036 0.513953 0.119130 0.579181
O9    O     O_2   0.673099 0.462937 0.854208 -0.553712
O10   O     O_2   0.240585 0.540202 0.845322 -0.552029
O11   O     O_2   0.252631 0.443114 0.146581 -0.502433
O12   O     O_2   0.678247 0.540709 0.149556 -0.439382
H1    H     H_    0.770019 0.489619 0.950967 0.205121
C19   C     C_R   0.544545 0.389680 0.236796 0.126930
C20   C     C_R   0.565534 0.402603 0.296244 0.052163
C21   C     C_R   0.492334 0.497321 0.326990 -0.099092
C22   C     C_R   0.407634 0.586012 0.297211 -0.114851
C23   C     C_R   0.404321 0.586180 0.237852 0.681492
C24   C     C_R   0.469797 0.487798 0.207668 0.111954
C25   C     C_R   0.393507 0.413383 0.757248 -0.158863
H2    H     H_    0.337508 0.339716 0.778101 0.181323
C26   C     C_R   0.396645 0.413812 0.697990 0.050520
C27   C     C_R   0.478205 0.503289 0.671733 -0.170377
C28   C     C_R   0.541057 0.601762 0.704915 0.592499
C29   C     C_R   0.526458 0.610226 0.763582 0.095699
C30   C     C_R   0.458114 0.509704 0.790202 0.183564
C31   C     C_3   0.078338 0.589270 0.553796 0.415808
C32   C     C_3   0.076000 0.353113 0.510063 0.410916
H3    H     H_    0.111670 0.538165 0.593764 0.087950
H4    H     H_    0.131264 0.303638 0.545419 0.184932
C33   C     C_3   0.934852 0.606501 0.550367 -0.153067
C34   C     C_3   0.937072 0.354023 0.522804 -0.114481
H5    H     H_    0.912171 0.707536 0.531448 0.279107
H6    H     H_    0.891206 0.276067 0.495075 0.317469
C35   C     C_3   0.062781 0.558321 0.445970 1.061910
C36   C     C_3   0.121914 0.501372 0.502354 -0.541676
C37   C     C_3   0.879864 0.497980 0.507255 -0.345636
C38   C     C_3   0.920745 0.536491 0.445748 0.938152
C39   C     C_3   0.371554 0.082963 0.487364 0.956076
C40   C     C_3   0.371847 0.921641 0.487064 0.946255
C41   C     C_3   0.577730 0.078317 0.453005 0.811804
C42   C     C_3   0.578924 0.917529 0.453349 0.856865
C43   C     C_3   0.544856 0.080844 0.555682 0.462824
C44   C     C_3   0.545147 0.918680 0.555748 0.452796
N3    N     N_3   0.499750 0.138610 0.498760 -0.344709
N4    N     N_3   0.499750 0.861390 0.498760 -0.370213
C45   C     C_3   0.105409 0.455752 0.933260 -0.752779
H7    H     H_    0.121892 0.378992 0.899475 0.258774
H8    H     H_    0.037031 0.408259 0.960721 0.228002
H9    H     H_    0.062939 0.549319 0.914417 0.270850
C46   C     C_3   0.305557 0.323991 0.665737 -0.651153
H10   H     H_    0.299208 0.343280 0.619387 0.246434
H11   H     H_    0.330723 0.216166 0.673615 0.306516
H12   H     H_    0.210584 0.343177 0.681314 0.192662
F1    F     F_    0.617141 0.690403 0.680384 -0.674199
C47   C     C_3   0.583580 0.727703 0.796091 -0.680887
H13   H     H_    0.552544 0.735177 0.840483 0.209450
H14   H     H_    0.686709 0.717736 0.796843 0.263663
H15   H     H_    0.555240 0.824113 0.774785 0.257182
F2    F     F_    0.129594 0.716521 0.555139 -0.496762
F3    F     F_    0.095116 0.275683 0.461467 -0.464182
C48   C     C_3   0.882033 0.611638 0.610833 -0.790957
H16   H     H_    0.883750 0.717422 0.627154 0.273681
H17   H     H_    0.785195 0.575466 0.611028 0.238631
H18   H     H_    0.937594 0.551254 0.642580 0.246952
C49   C     C_3   0.922698 0.309021 0.585213 -0.918044
H19   H     H_    0.834205 0.345061 0.602388 0.257002
H20   H     H_    0.929579 0.197028 0.587843 0.281398
H21   H     H_    0.998164 0.347004 0.614352 0.229588
F4    F     F_    0.087382 0.695348 0.441732 -0.525277
F5    F     F_    0.112780 0.493488 0.399236 -0.577319
F6    F     F_    0.859975 0.653455 0.426233 -0.536533
F7    F     F_    0.889514 0.433120 0.407811 -0.611774
F8    F     F_    0.321429 0.130895 0.435807 -0.483797
F9    F     F_    0.322769 0.874753 0.435243 -0.549229
C50   C     C_3   0.107833 0.528484 0.055492 -0.613252
H22   H     H_    0.123448 0.603866 0.090274 0.275847
H23   H     H_    0.036758 0.577323 0.026409 0.237137
H24   H     H_    0.069329 0.434129 0.072550 0.283092
F10   F     F_    0.291593 0.129224 0.528257 -0.545434
F11   F     F_    0.291678 0.878793 0.527426 -0.444083
F12   F     F_    0.531930 0.121323 0.400059 -0.559032
F13   F     F_    0.536857 0.871902 0.400129 -0.543301
C51   C     C_3   0.670588 0.138755 0.576918 -0.726786
H25   H     H_    0.749565 0.105163 0.551595 0.239051
H26   H     H_    0.667013 0.247880 0.577228 0.280044
H27   H     H_    0.691274 0.111759 0.622182 0.229856
C52   C     C_3   0.672016 0.857370 0.577335 -0.635484
H28   H     H_    0.752769 0.884979 0.552640 0.221368
H29   H     H_    0.692419 0.888432 0.622207 0.256928
H30   H     H_    0.669357 0.748306 0.579064 0.290553
F14   F     F_    0.464510 0.124273 0.597042 -0.545900
F15   F     F_    0.464445 0.878904 0.597051 -0.483746
F16   F     F_    0.698039 0.125442 0.457599 -0.601954
F17   F     F_    0.700034 0.869187 0.459237 -0.545490
F18   F     F_    0.796952 0.508051 0.059299 -0.632155
C53   C     C_3   0.601882 0.271634 0.204878 -0.711954
H31   H     H_    0.580037 0.175129 0.225927 0.255288
H32   H     H_    0.564388 0.262506 0.160329 0.224932
H33   H     H_    0.704456 0.282318 0.204224 0.267785
C54   C     C_3   0.670957 0.320059 0.324540 -0.482744
H34   H     H_    0.689636 0.345639 0.369879 0.284199
H35   H     H_    0.651326 0.210473 0.321120 0.279919
H36   H     H_    0.758732 0.339702 0.302904 0.250857
C55   C     C_3   0.318109 0.680541 0.326570 -0.376100
H37   H     H_    0.295879 0.645189 0.369551 0.256698
H38   H     H_    0.357473 0.783568 0.329326 0.297177
H39   H     H_    0.227426 0.686146 0.302084 0.265608
F19   F     F_    0.334513 0.681164 0.208813 -0.627197

loop_
_geom_bond_atom_site_label_1
_geom_bond_atom_site_label_2
_geom_bond_distance
_ccdc_geom_bond_type
C44   N4    1.513710 S    
C11   C50   1.518882 S    
C35   F4    1.388460 S    
C7    C10   1.423538 A    
C43   F14   1.386298 S    
C8    C9    1.412090 A    
C48   H18   1.106665 S    
N1    C30   1.431947 S    
C31   H3    1.111708 S    
C33   C37   1.574182 S    
C39   F8    1.387110 S    
C54   H34   1.102929 S    
C27   C28   1.405884 A    
Zn1   O7    2.007933 S    
C15   C16   1.384887 A    
N2    C18   1.364407 A    
C33   C48   1.550170 S    
C42   N4    1.505733 S    
C17   N2    1.366889 A    
C48   H17   1.106270 S    
C45   H7    1.110309 S    
C38   F7    1.386109 S    
C21   C22   1.418761 A    
O7    C4    1.303802 A    
C47   H14   1.110281 S    
C54   H35   1.107945 S    
C51   H25   1.101132 S    
C5    N1    1.364239 A    
C7    C8    1.413070 A    
C46   H10   1.104861 S    
C45   H8    1.109450 S    
C19   C53   1.516614 S    
O5    C3    1.301130 A    
C52   H28   1.102454 S    
Zn1   N4    2.039077 S    
C20   C54   1.517471 S    
N1    C6    1.368064 A    
C43   N3    1.514359 S    
C32   H4    1.111384 S    
C12   C13   1.412469 A    
C2    C21   1.466938 S    
C33   H5    1.114202 S    
C37   C38   1.577269 S    
C35   F5    1.388489 S    
C10   C11   1.417440 A    
C46   H11   1.109105 S    
C19   C24   1.410290 A    
C26   C46   1.508954 S    
C25   C26   1.392581 A    
O3    Zn1   2.001949 S    
C32   F3    1.388761 S    
C4    C27   1.463152 S    
C41   N3    1.502453 S    
C34   C37   1.578351 S    
C53   H32   1.108441 S    
C5    C9    1.390263 A    
C34   H6    1.112830 S    
C22   C55   1.511887 S    
C44   F15   1.390317 S    
C18   O12   1.350057 S    
C32   C36   1.567346 S    
C42   F13   1.385447 S    
C48   H16   1.110258 S    
O3    C2    1.305926 A    
C22   C23   1.392094 A    
C47   H13   1.108537 S    
C54   H36   1.110193 S    
C16   H1    1.083757 S    
C14   C15   1.406896 A    
C44   C52   1.549407 S    
C42   F17   1.380316 S    
C10   C45   1.519394 S    
O1    C1    1.300478 A    
C31   F2    1.380522 S    
C45   H9    1.110183 S    
C55   H38   1.109129 S    
C20   C21   1.423288 A    
O4    Zn2   2.007554 S    
C40   F9    1.385194 S    
C39   N3    1.504966 S    
C29   C30   1.409883 A    
C49   H21   1.107672 S    
Zn2   O8    2.002314 S    
C6    C7    1.414179 A    
C25   C30   1.397393 A    
C12   C17   1.412020 A    
C13   C14   1.416167 A    
C52   H30   1.079120 S    
C41   F16   1.381397 S    
C23   C24   1.395766 A    
C23   F19   1.360142 S    
C49   H20   1.109253 S    
C17   O11   1.348792 S    
C50   H22   1.110285 S    
C50   H23   1.109437 S    
C46   H12   1.110943 S    
C25   H2    1.084353 S    
C55   H37   1.106603 S    
C43   C51   1.538799 S    
C26   C27   1.417191 A    
C40   F11   1.380092 S    
C53   H33   1.109849 S    
C14   C18   1.394720 A    
Zn1   O5    2.020015 S    
C28   C29   1.393932 A    
C19   C20   1.409273 A    
N2    C24   1.432872 S    
O1    Zn1   2.033894 S    
C8    C13   1.405988 A    
O2    Zn2   2.020770 S    
C15   F18   1.357802 S    
O8    C4    1.304833 A    
C41   F12   1.384446 S    
C35   C38   1.544940 S    
O6    C3    1.300793 A    
C28   F1    1.355575 S    
C53   H31   1.109911 S    
C5    O9    1.350658 S    
C3    C37   1.477780 S    
C9    C16   1.399762 A    
C50   H24   1.110184 S    
C40   N4    1.503745 S    
C39   F10   1.384233 S    
C55   H39   1.111382 S    
C32   C34   1.534484 S    
C34   C49   1.548375 S    
C47   H15   1.110773 S    
C35   C36   1.549301 S    
O4    C2    1.304153 A    
C51   H26   1.077741 S    
C31   C33   1.547136 S    
O2    C1    1.295442 A    
C39   C40   1.593162 S    
C52   H29   1.108911 S    
C31   C36   1.564417 S    
C41   C42   1.587870 S    
C1    C36   1.467406 S    
C49   H19   1.100560 S    
Zn2   N3    2.038804 S    
Zn2   O6    2.033137 S    
C43   C44   1.601522 S    
C6    O10   1.348534 S    
C11   C12   1.423120 A    
C29   C47   1.509259 S    
C51   H27   1.109796 S    
C38   F6    1.388348 S    
