data_mof_unit_14006.cif
_audit_creation_date              2012-12-10T20:31:51-0500
_audit_creation_method            fapswitch 2.2
_symmetry_space_group_name_H-M    P1
_symmetry_Int_Tables_number       1
_space_group_crystal_system       triclinic
_cell_length_a                    9.932651
_cell_length_b                    10.705729
_cell_length_c                    15.490417
_cell_angle_alpha                 89.891943
_cell_angle_beta                  69.651981
_cell_angle_gamma                 90.616976
_cell_volume                      1544.28736715

loop_
_atom_site_label
_atom_site_type_symbol
_atom_type_description
_atom_site_fract_x
_atom_site_fract_y
_atom_site_fract_z
_atom_type_partial_charge
C1    C     C_R   0.504491 0.740301 0.494613 0.900721
C2    C     C_R   0.405742 0.445250 0.912105 -0.037941
C3    C     C_R   0.258978 0.426959 0.962626 -0.026698
C4    C     C_R   0.495459 0.494034 0.956608 0.079155
C5    C     C_R   0.452458 0.486017 0.053395 -0.023641
C6    C     C_R   0.306585 0.456581 0.105255 0.086166
C7    C     C_R   0.211548 0.423048 0.059527 0.197749
C8    C     C_R   0.614000 0.571119 0.908104 -0.131939
C9    C     C_R   0.690698 0.634196 0.954349 -0.215351
C10   C     C_R   0.665078 0.606370 0.046648 0.124634
C11   C     C_R   0.553955 0.522013 0.094006 0.128441
C12   C     C_R   0.412159 0.477036 0.672593 0.940880
C13   C     C_R   0.749760 0.660115 0.092101 -0.202611
C14   C     C_R   0.738791 0.619150 0.179682 0.182642
C15   C     C_R   0.549752 0.474908 0.179071 -0.222583
C16   C     C_R   0.395622 0.935427 0.476106 0.107397
C17   C     C_R   0.518327 0.872693 0.475801 -0.188098
C18   C     C_R   0.650445 0.941103 0.456352 0.241163
C19   C     C_R   0.643255 0.071258 0.457232 -0.201248
C20   C     C_R   0.511180 0.130271 0.477523 -0.146859
C21   C     C_R   0.392131 0.062777 0.476515 0.109330
C22   C     C_3   0.240279 0.066734 0.540832 -0.420406
C23   C     C_R   0.501608 0.260496 0.495952 0.894300
C24   C     C_3   0.243997 0.925511 0.541246 -0.448687
C25   C     C_R   0.910921 0.599471 0.534791 0.211795
C26   C     C_R   0.947023 0.403832 0.463554 -0.053879
C27   C     C_R   0.089750 0.403141 0.464562 -0.057894
C28   C     C_R   0.054343 0.600176 0.533391 0.185216
C29   C     C_3   0.010749 0.647116 0.629548 -0.542458
C30   C     C_3   0.856888 0.640177 0.633306 -0.041401
C31   C     C_R   0.588777 0.504333 0.324486 0.876671
C32   C     C_R   0.359176 0.437024 0.769710 -0.204798
C33   C     C_R   0.636088 0.526501 0.224772 -0.086461
C34   C     C_R   0.161117 0.428872 0.915049 0.221371
C35   C     C_R   0.212300 0.416734 0.819143 0.076237
C36   C     C_R   0.455657 0.429688 0.816785 0.087152
H1    H     H_    0.823541 0.735358 0.059855 0.164442
H2    H     H_    0.738377 0.127242 0.447935 0.178269
H3    H     H_    0.229472 0.108651 0.608526 0.232303
H4    H     H_    0.166819 0.104564 0.507288 0.200941
H5    H     H_    0.236701 0.886021 0.609200 0.209205
H6    H     H_    0.171967 0.881907 0.508465 0.211495
H7    H     H_    0.908669 0.325659 0.434094 0.148689
H8    H     H_    0.157894 0.324478 0.435868 0.145898
H9    H     H_    0.034234 0.581701 0.677466 0.238761
H10   H     H_    0.475839 0.399566 0.211730 0.177506
H11   H     H_    0.049196 0.743479 0.633171 0.216975
H12   H     H_    0.794892 0.565511 0.679979 0.182436
H13   H     H_    0.773054 0.700714 0.916829 0.161707
H14   H     H_    0.639450 0.592448 0.835901 0.173829
N1    N     N_R   0.856900 0.500860 0.500610 -0.117798
N2    N     N_R   0.142540 0.500820 0.500610 -0.092972
O1    O     O_R   0.385310 0.683210 0.499990 -0.607149
O2    O     O_R   0.614650 0.683240 0.500000 -0.602131
O3    O     O_R   0.319830 0.499970 0.632240 -0.595813
O4    O     O_R   0.549170 0.500000 0.632250 -0.591165
O5    O     O_R   0.385350 0.316760 0.500000 -0.622459
O6    O     O_R   0.614690 0.316790 0.500010 -0.625598
O7    O     O_R   0.450830 0.500000 0.367750 -0.600145
O8    O     O_R   0.680170 0.500030 0.367760 -0.580774
Zn1   Zn    Zn3+2 0.346870 0.499980 0.499990 0.983606
Zn2   Zn    Zn3+2 0.653130 0.500020 0.500010 1.000760
I1    I     I_    0.002209 0.348384 0.135937 -0.303920
N3    N     N_2   0.784490 0.880825 0.443750 -0.258973
H15   H     H_    0.800864 0.799089 0.407936 0.278836
C37   C     C_3   0.916172 0.952792 0.425210 -0.732918
H16   H     H_    0.941379 0.006006 0.359726 0.245469
H17   H     H_    0.006285 0.888492 0.418318 0.244323
H18   H     H_    0.907343 0.016679 0.483282 0.251234
I2    I     I_    0.752061 0.816674 0.660232 -0.345894
I3    I     I_    0.884491 0.703187 0.233560 -0.356356
N4    N     N_2   0.036006 0.501575 0.953604 -0.273212
H19   H     H_    0.950867 0.477535 0.933248 0.266682
C38   C     C_3   0.068417 0.635059 0.947462 -0.732223
H20   H     H_    0.998373 0.685459 0.917462 0.218809
H21   H     H_    0.180828 0.657265 0.902490 0.235939
H22   H     H_    0.055053 0.671078 0.016895 0.274996
I4    I     I_    0.066313 0.347221 0.756862 -0.361448
I5    I     I_    0.653393 0.332524 0.755894 -0.308701
I6    I     I_    0.210168 0.516515 0.244752 -0.331529

loop_
_geom_bond_atom_site_label_1
_geom_bond_atom_site_label_2
_ccdc_geom_bond_type
O6    Zn2   S    
C23   O6    A    
C37   H17   S    
C16   C21   A    
C8    H14   S    
C24   H6    S    
C14   I3    S    
C19   C20   A    
C4    C8    A    
C14   C33   A    
C25   C28   A    
C26   C27   A    
C38   H21   S    
C29   H11   S    
C32   C36   A    
C30   H12   S    
C28   C29   S    
C5    C11   A    
C3    C7    A    
N2    Zn1   S    
C5    C6    A    
C37   H18   S    
O8    Zn2   S    
C34   C35   A    
C31   O7    A    
C1    O1    A    
O1    Zn1   S    
C27   H8    S    
C16   C17   A    
C38   H22   S    
C31   C33   S    
C9    C10   A    
C13   H1    S    
C37   H16   S    
C16   C24   S    
C21   C22   S    
C12   C32   S    
C24   H5    S    
N1    Zn2   S    
C11   C15   A    
C30   I2    S    
C26   H7    S    
O7    Zn1   S    
C38   H20   S    
C32   C35   A    
C9    H13   S    
N4    C38   S    
C18   C19   A    
O2    Zn2   S    
C3    C34   A    
C36   I5    S    
C29   H9    S    
N3    C37   S    
C31   O8    A    
C2    C4    A    
C1    O2    A    
C25   N1    A    
C29   C30   S    
C19   H2    S    
C6    I6    S    
C20   C23   S    
C22   H4    S    
C17   C18   A    
C8    C9    A    
C7    I1    S    
C12   O4    A    
C22   C24   S    
C34   N4    S    
C27   N2    A    
C2    C36   A    
C25   C30   S    
C23   O5    A    
N4    H19   S    
C10   C13   A    
O5    Zn1   S    
C6    C7    A    
C35   I4    S    
C1    C17   S    
N3    H15   S    
C2    C3    A    
C26   N1    A    
C28   N2    A    
C18   N3    S    
C22   H3    S    
O3    Zn1   S    
O4    Zn2   S    
C12   O3    A    
C10   C11   A    
C4    C5    A    
C20   C21   A    
C15   H10   S    
C13   C14   A    
C15   C33   A    
