data_mof_unit_17839.cif
_audit_creation_date              2013-03-05T15:52:44-0500
_audit_creation_method            fapswitch 2.2
_symmetry_space_group_name_H-M    P1
_symmetry_Int_Tables_number       1
_space_group_crystal_system       triclinic
_cell_length_a                    9.931419
_cell_length_b                    10.723493
_cell_length_c                    13.104931
_cell_angle_alpha                 91.544812
_cell_angle_beta                  69.594472
_cell_angle_gamma                 87.78603
_cell_volume                      1305.89326618

loop_
_atom_site_label
_atom_site_type_symbol
_atom_site_description
_atom_site_fract_x
_atom_site_fract_y
_atom_site_fract_z
_atom_type_partial_charge
O1    O     O_R   0.385310 0.683220 0.500000 -0.647153
O2    O     O_R   0.614640 0.683250 0.500010 -0.637226
C1    C     C_R   0.497076 0.740778 0.498613 0.858449
O3    O     O_R   0.328400 0.499950 0.653610 -0.641964
O4    O     O_R   0.557730 0.499970 0.653620 -0.637779
C2    C     C_R   0.419926 0.495606 0.704145 0.839213
Zn1   Zn    Zn3+2 0.346880 0.499980 0.499990 0.943530
Zn2   Zn    Zn3+2 0.653120 0.500020 0.500010 0.984212
O5    O     O_R   0.385360 0.316750 0.499990 -0.617802
O6    O     O_R   0.614690 0.316780 0.500000 -0.574071
O7    O     O_R   0.442270 0.500030 0.346380 -0.588985
O8    O     O_R   0.671600 0.500050 0.346390 -0.571829
C3    C     C_R   0.497032 0.261744 0.511136 0.888901
C4    C     C_R   0.580361 0.499186 0.295691 0.902212
C5    C     C_R   0.770506 0.357194 0.016920 -0.204298
H1    H     H_    0.824241 0.370444 0.161287 0.229030
H2    H     H_    0.771185 0.269282 0.824962 0.134156
H3    H     H_    0.863651 0.295822 0.974113 0.150759
C6    C     C_R   0.630624 0.481192 0.178013 -0.115627
C7    C     C_R   0.233429 0.549104 0.883205 -0.326266
C8    C     C_R   0.194374 0.568428 0.995049 -0.171305
C9    C     C_R   0.292245 0.539079 0.046442 0.645543
C10   C     C_R   0.430965 0.483822 0.985485 -0.070612
C11   C     C_R   0.459249 0.445312 0.875911 0.022816
C12   C     C_R   0.542045 0.463054 0.028750 0.103320
C13   C     C_R   0.665197 0.384444 0.970832 0.170915
C14   C     C_R   0.680022 0.332147 0.868991 -0.235281
C15   C     C_R   0.578827 0.362578 0.821726 -0.149924
C16   C     C_R   0.536076 0.520178 0.126995 -0.195709
C17   C     C_R   0.750796 0.402413 0.122027 -0.151241
C18   C     C_R   0.367427 0.491194 0.822670 -0.110253
H4    H     H_    0.455180 0.592115 0.168433 0.212474
H5    H     H_    0.160204 0.582117 0.843834 0.184457
H6    H     H_    0.089032 0.610142 0.041895 0.181410
H7    H     H_    0.593857 0.318741 0.742925 0.159149
H8    H     H_    0.721467 0.880096 0.453236 0.181993
C19   C     C_R   0.219965 0.903052 0.543381 -0.175481
H9    H     H_    0.208377 0.817245 0.503852 0.186976
C20   C     C_R   0.092429 0.974422 0.595171 -0.145631
H10   H     H_    0.990262 0.938540 0.599548 0.155376
C21   C     C_R   0.096271 0.091264 0.641826 -0.141754
H11   H     H_    0.997273 0.144936 0.685362 0.128752
C22   C     C_R   0.228274 0.141564 0.627448 -0.149298
H12   H     H_    0.227941 0.233732 0.663334 0.151355
C23   C     C_R   0.358414 0.074191 0.566551 0.103915
C24   C     C_R   0.355263 0.948033 0.537120 0.101078
C25   C     C_R   0.488465 0.875583 0.501478 -0.120512
C26   C     C_R   0.618997 0.932933 0.481247 -0.217043
H13   H     H_    0.723824 0.101977 0.468574 0.215876
C27   C     C_R   0.620843 0.059707 0.492648 -0.191061
C28   C     C_R   0.491776 0.130759 0.529939 -0.147981
C29   C     C_R   0.785608 0.655233 0.653054 -0.102858
H14   H     H_    0.679534 0.671711 0.652382 0.198379
C30   C     C_R   0.817528 0.724609 0.732230 -0.201180
H15   H     H_    0.735049 0.785248 0.790441 0.150373
C31   C     C_R   0.956099 0.719956 0.734127 -0.201815
H16   H     H_    0.981720 0.777083 0.793606 0.156358
C32   C     C_R   0.063941 0.647563 0.655701 -0.167681
H17   H     H_    0.170629 0.657135 0.655079 0.201795
C33   C     C_R   0.034191 0.572186 0.577448 0.127790
C34   C     C_R   0.889991 0.573798 0.576874 0.097603
N1    N     N_R   0.856860 0.501200 0.500990 -0.179156
C35   C     C_R   0.968340 0.434694 0.422240 0.341515
H18   H     H_    0.196183 0.380664 0.361557 0.202192
C36   C     C_R   0.110558 0.434442 0.423567 -0.102071
N2    N     N_R   0.142450 0.501280 0.501020 -0.152298
N3    N     N_R   0.945454 0.369748 0.333466 0.209241
O9    O     O_R   0.034206 0.382697 0.234811 -0.387587
O10   O     O_R   0.864308 0.274882 0.351991 -0.418473
F1    F     F_    0.244211 0.556462 0.156339 -0.671909

loop_
_geom_bond_atom_site_label_1
_geom_bond_atom_site_label_2
_geom_bond_distance
_ccdc_geom_bond_type
C5    H3    1.083861 S    
C10   C11   1.410388 A    
C35   C36   1.418486 A    
C19   H9    1.073461 S    
O4    Zn2   1.902655 S    
C21   C22   1.390311 A    
C21   H11   1.082053 S    
C34   N1    1.381842 A    
C19   C24   1.421361 A    
Zn2   O8    1.956775 S    
C22   H12   1.082422 S    
H18   C36   1.082147 S    
H13   C27   1.081441 S    
C26   C27   1.365173 A    
O2    C1    1.305374 A    
C12   C13   1.421662 A    
C11   C18   1.409969 A    
C33   N2    1.371914 A    
O6    C3    1.293845 A    
C19   C20   1.395823 A    
O1    Zn1   2.016122 S    
C8    C9    1.393457 A    
C31   H16   1.082684 S    
Zn1   N2    2.025119 S    
Zn1   O7    1.902655 S    
C22   C23   1.416632 A    
C13   C14   1.390546 A    
N1    C35   1.379132 A    
C29   H14   1.064544 S    
O3    Zn1   1.956774 S    
C7    H5    1.082582 S    
C1    C25   1.443513 S    
C31   C32   1.389673 A    
H8    C26   1.084045 S    
C16   H4    1.077375 S    
C30   C31   1.384084 A    
C29   C34   1.412554 A    
C10   C12   1.418477 A    
C12   C16   1.392060 A    
O4    C2    1.299366 A    
O7    C4    1.298318 A    
C35   N3    1.429355 S    
O3    C2    1.298150 A    
C23   C28   1.409621 A    
N3    O10   1.297511 A    
C32   C33   1.406193 A    
N3    O9    1.300851 A    
H2    C14   1.083826 S    
C25   C26   1.399932 A    
C23   C24   1.401248 A    
O8    C4    1.297202 A    
C20   H10   1.082428 S    
C7    C8    1.386599 A    
C20   C21   1.387030 A    
C5    C17   1.392615 A    
Zn2   O6    2.016123 S    
C36   N2    1.358968 A    
C24   C25   1.428964 A    
Zn2   N1    2.028464 S    
C14   C15   1.385578 A    
Zn1   O5    1.987142 S    
O5    C3    1.290869 A    
C30   H15   1.082644 S    
C5    C13   1.403714 A    
C2    C18   1.458712 S    
C8    H6    1.082904 S    
C27   C28   1.389274 A    
C32   H17   1.065685 S    
C3    C28   1.432393 S    
C6    C17   1.398009 A    
H1    C17   1.079890 S    
C4    C6    1.450649 S    
C9    F1    1.355012 S    
C9    C10   1.425219 A    
O2    Zn2   1.987141 S    
C11   C15   1.413608 A    
C15   H7    1.081953 S    
C29   C30   1.391603 A    
C33   C34   1.434189 A    
O1    C1    1.285631 A    
C7    C18   1.399780 A    
C6    C16   1.387820 A    
