data_mof_unit_34693.cif
_audit_creation_date              2012-12-10T18:11:37-0500
_audit_creation_method            fapswitch 2.2
_symmetry_space_group_name_H-M    P1
_symmetry_Int_Tables_number       1
_space_group_crystal_system       triclinic
_cell_length_a                    10.593498
_cell_length_b                    12.665832
_cell_length_c                    13.293673
_cell_angle_alpha                 83.314451
_cell_angle_beta                  91.403295
_cell_angle_gamma                 100.985661
_cell_volume                      1739.08700707

loop_
_atom_site_label
_atom_site_type_symbol
_atom_type_description
_atom_site_fract_x
_atom_site_fract_y
_atom_site_fract_z
_atom_type_partial_charge
C1    C     C_R   0.476392 0.440459 0.690838 0.905260
C2    C     C_3   0.051327 0.529660 0.589217 0.066028
C3    C     C_3   0.945829 0.429756 0.578969 0.469367
C4    C     C_3   0.876122 0.497867 0.502021 -0.313479
C5    C     C_R   0.609668 0.729812 0.058694 0.504353
C6    C     C_R   0.554072 0.594935 0.203414 -0.179427
C7    C     C_R   0.449532 0.295745 0.838623 0.049052
C8    C     C_R   0.499042 0.268041 0.934697 0.490488
C9    C     C_R   0.539848 0.348139 0.999386 0.014976
C10   C     C_R   0.521545 0.456376 0.969981 -0.020478
C11   C     C_R   0.481655 0.485053 0.870011 0.030769
C12   C     C_R   0.741562 0.499255 0.501148 0.981373
C13   C     C_R   0.544172 0.538863 0.035184 0.066486
C14   C     C_R   0.561228 0.648995 0.996074 -0.010260
C15   C     C_R   0.514867 0.675152 0.899854 -0.217892
C16   C     C_R   0.463754 0.592962 0.842153 -0.110420
C17   C     C_R   0.526616 0.514920 0.138186 -0.250573
C18   C     C_R   0.610402 0.702123 0.164007 0.099981
C19   C     C_R   0.461062 0.406002 0.800875 -0.240271
C20   C     C_R   0.263039 0.075545 0.417566 0.412806
C21   C     C_R   0.680526 0.805021 0.603545 0.511296
C22   C     C_R   0.742557 0.914327 0.596078 0.322342
C23   C     C_R   0.523910 0.559965 0.310156 0.927071
C24   C     C_R   0.683562 0.992264 0.539543 0.035714
C25   C     C_R   0.551587 0.965460 0.515420 -0.064608
C26   C     C_R   0.496411 0.853450 0.518740 -0.007058
C27   C     C_R   0.472809 0.042424 0.481746 -0.014905
C28   C     C_R   0.341554 0.004235 0.459287 -0.139879
C29   C     C_R   0.289905 0.895847 0.487791 0.157292
C30   C     C_R   0.372006 0.824133 0.479790 0.232662
C31   C     C_R   0.511338 0.154474 0.482774 -0.063404
C32   C     C_R   0.314453 0.185784 0.405673 0.566453
C33   C     C_R   0.258010 0.499813 0.500058 0.990927
C34   C     C_3   0.948188 0.464396 0.415232 0.384335
C35   C     C_3   0.017899 0.394877 0.492580 -0.348428
C36   C     C_3   0.122330 0.497885 0.500860 -0.306434
C37   C     C_3   0.052581 0.565541 0.422271 0.349615
C38   C     C_3   0.982105 0.597615 0.510395 0.367220
H1    H     H_    0.038960 0.313638 0.485352 0.237095
H2    H     H_    0.480597 0.434028 0.166392 0.196046
H3    H     H_    0.411369 0.616404 0.775419 0.198850
H4    H     H_    0.596934 0.188487 0.521820 0.198286
H5    H     H_    0.509246 0.758043 0.872068 0.191796
N1    N     N_R   0.432930 0.222190 0.444670 -0.177088
N2    N     N_R   0.566370 0.776980 0.554790 -0.184482
O1    O     O_R   0.467970 0.366730 0.627150 -0.591283
O2    O     O_R   0.510820 0.544830 0.662520 -0.613209
O3    O     O_R   0.664630 0.410960 0.482340 -0.582024
O4    O     O_R   0.707470 0.589060 0.517710 -0.555367
O5    O     O_R   0.489180 0.455170 0.337480 -0.613244
O6    O     O_R   0.532030 0.633270 0.372850 -0.579771
O7    O     O_R   0.292530 0.410940 0.482290 -0.575843
O8    O     O_R   0.335370 0.589040 0.517660 -0.601467
Zn1   Zn    Zn3+2 0.471390 0.381080 0.476380 1.031255
Zn2   Zn    Zn3+2 0.528610 0.618920 0.523620 1.028802
I1    I     I_    0.349641 0.167132 0.758544 -0.323804
I2    I     I_    0.645919 0.299195 0.131081 -0.324717
O9    O     O_3   0.504814 0.161209 0.967168 -0.556750
C39   C     C_3   0.615415 0.135890 0.925510 -0.186446
H6    H     H_    0.704931 0.189336 0.948238 0.154648
H7    H     H_    0.610114 0.140601 0.841550 0.157094
H8    H     H_    0.622024 0.051517 0.954756 0.234196
O10   O     O_3   0.237486 0.257799 0.368647 -0.574221
C40   C     C_3   0.261764 0.288963 0.264347 -0.294577
H9    H     H_    0.273352 0.378196 0.249596 0.188993
H10   H     H_    0.176791 0.254465 0.220226 0.160668
H11   H     H_    0.348829 0.265157 0.234792 0.156024
I3    I     I_    0.181862 0.874874 0.622374 -0.192069
O11   O     O_3   0.134063 0.040026 0.397538 -0.549081
C41   C     C_3   0.121590 0.006506 0.299680 -0.274956
H12   H     H_    0.159480 0.931241 0.297138 0.168856
H13   H     H_    0.170551 0.069698 0.241076 0.158895
H14   H     H_    0.017940 0.989012 0.279890 0.207966
O12   O     O_3   0.743416 0.723471 0.643744 -0.517101
C42   C     C_3   0.774837 0.731399 0.746421 -0.143302
H15   H     H_    0.713412 0.776902 0.784139 0.082672
H16   H     H_    0.877733 0.768974 0.753509 0.222799
H17   H     H_    0.761469 0.648466 0.787128 0.183211
O13   O     O_3   0.884970 0.431306 0.326260 -0.583660
C43   C     C_3   0.966399 0.382375 0.271924 -0.177737
H18   H     H_    0.964029 0.297592 0.305235 0.219417
H19   H     H_    0.067394 0.427465 0.268765 0.151386
H20   H     H_    0.931413 0.380924 0.192774 0.188842
I4    I     I_    0.811620 0.124093 0.458995 -0.268269
O14   O     O_3   0.869633 0.940191 0.625903 -0.533953
C44   C     C_3   0.877192 0.003415 0.707345 -0.264764
H21   H     H_    0.833800 0.954078 0.776606 0.120311
H22   H     H_    0.829428 0.074336 0.690293 0.159384
H23   H     H_    0.979998 0.034004 0.723728 0.218924
I5    I     I_    0.367378 0.801077 0.324950 -0.251041
O15   O     O_3   0.120097 0.634119 0.342050 -0.597207
C45   C     C_3   0.039639 0.653131 0.258080 -0.264120
H24   H     H_    0.935113 0.636123 0.275265 0.161590
H25   H     H_    0.057862 0.604847 0.197444 0.193340
H26   H     H_    0.065447 0.739631 0.227194 0.176102
O16   O     O_3   0.960503 0.698868 0.532833 -0.519982
C46   C     C_3   0.942134 0.764691 0.443532 -0.059123
H27   H     H_    0.033883 0.791958 0.402048 0.172146
H28   H     H_    0.910745 0.838136 0.463460 0.234946
H29   H     H_    0.865977 0.722754 0.395939 0.122689
I6    I     I_    0.126636 0.577210 0.731228 -0.337234
O17   O     O_3   0.879295 0.362002 0.660249 -0.581326
C47   C     C_3   0.958908 0.293246 0.707029 -0.251055
H30   H     H_    0.050026 0.339324 0.735233 0.187762
H31   H     H_    0.980705 0.237027 0.654619 0.179406
H32   H     H_    0.907372 0.243947 0.773334 0.166446
I7    I     I_    0.701226 0.825130 0.253906 -0.348887
O18   O     O_3   0.646977 0.836490 0.017930 -0.590725
C48   C     C_3   0.778812 0.854491 0.993244 -0.329296
H33   H     H_    0.799666 0.797606 0.941198 0.140058
H34   H     H_    0.839817 0.847504 0.061906 0.190122
H35   H     H_    0.807291 0.938135 0.955381 0.179812

loop_
_geom_bond_atom_site_label_1
_geom_bond_atom_site_label_2
_ccdc_geom_bond_type
C31   H4    S    
C34   C37   S    
C35   C36   S    
C30   I5    S    
C12   O4    A    
C7    C8    A    
O14   C44   S    
C33   O7    A    
O3    Zn1   S    
C11   C19   A    
O5    Zn1   S    
C36   C37   S    
C48   H34   S    
C44   H22   S    
C1    O1    A    
C15   C16   A    
C33   C36   S    
O18   C48   S    
C34   C35   S    
C22   O14   S    
C18   I7    S    
C26   N2    A    
C8    O9    S    
C8    C9    A    
C41   H12   S    
C4    C12   S    
C29   C30   A    
C9    C10   A    
O6    Zn2   S    
C12   O3    A    
C39   H6    S    
C21   C22   A    
O11   C41   S    
C7    I1    S    
C43   H20   S    
C46   H28   S    
O7    Zn1   S    
C46   H27   S    
C21   N2    A    
O8    Zn2   S    
C33   O8    A    
C6    C18   A    
C4    C34   S    
C39   H7    S    
C1    C19   S    
C31   N1    A    
C37   O15   S    
C27   C31   A    
C40   H11   S    
C24   C25   A    
C43   H19   S    
O12   C42   S    
C48   H35   S    
O15   C45   S    
C44   H21   S    
C1    O2    A    
C23   O5    A    
C5    C18   A    
C20   C28   A    
C2    I6    S    
C25   C26   A    
O4    Zn2   S    
C21   O12   S    
C44   H23   S    
C45   H26   S    
O13   C43   S    
C17   H2    S    
C40   H10   S    
C35   H1    S    
C42   H15   S    
C37   C38   S    
C34   O13   S    
C29   I3    S    
C11   C16   A    
C2    C38   S    
C23   O6    A    
C3    C35   S    
O16   C46   S    
O1    Zn1   S    
C41   H14   S    
C45   H25   S    
C32   N1    A    
C47   H31   S    
C42   H16   S    
C5    C14   A    
C3    O17   S    
C4    C38   S    
C26   C30   A    
C7    C19   A    
C22   C24   A    
C20   O11   S    
C3    C4    S    
C27   C28   A    
C46   H29   S    
O2    Zn2   S    
C20   C32   A    
C2    C36   S    
C6    C17   A    
C28   C29   A    
C39   H8    S    
C32   O10   S    
C43   H18   S    
C10   C13   A    
C25   C27   A    
C13   C17   A    
C40   H9    S    
C2    C3    S    
O9    C39   S    
C15   H5    S    
C48   H33   S    
C6    C23   S    
C45   H24   S    
C47   H32   S    
C9    I2    S    
C24   I4    S    
O17   C47   S    
C42   H17   S    
C10   C11   A    
O10   C40   S    
N1    Zn1   S    
N2    Zn2   S    
C38   O16   S    
C47   H30   S    
C14   C15   A    
C41   H13   S    
C13   C14   A    
C16   H3    S    
C5    O18   S    
