data_mof_unit_35714.cif
_audit_creation_date              2012-12-10T20:31:07-0500
_audit_creation_method            fapswitch 2.2
_symmetry_space_group_name_H-M    P1
_symmetry_Int_Tables_number       1
_space_group_crystal_system       triclinic
_cell_length_a                    14.910382
_cell_length_b                    10.678019
_cell_length_c                    9.975743
_cell_angle_alpha                 89.425748
_cell_angle_beta                  90.394072
_cell_angle_gamma                 92.359526
_cell_volume                      1586.81185968

loop_
_atom_site_label
_atom_site_type_symbol
_atom_type_description
_atom_site_fract_x
_atom_site_fract_y
_atom_site_fract_z
_atom_type_partial_charge
C1    C     C_R   0.502910 0.260356 0.500524 0.844952
C2    C     C_R   0.185258 0.389795 0.534417 -0.285692
C3    C     C_R   0.232552 0.498929 0.497380 -0.042194
C4    C     C_R   0.327546 0.500460 0.499483 0.874650
C5    C     C_R   0.190081 0.603714 0.450432 -0.241847
C6    C     C_R   0.524162 0.063499 0.621802 0.092631
C7    C     C_R   0.519157 0.129840 0.501104 -0.122651
C8    C     C_R   0.531136 0.067707 0.379445 -0.209363
C9    C     C_R   0.529362 0.938140 0.378586 -0.233444
C10   C     C_R   0.514348 0.872060 0.498993 -0.081864
C11   C     C_R   0.517749 0.935590 0.620112 0.057943
C12   C     C_R   0.909824 0.604670 0.445319 0.091413
C13   C     C_3   0.459215 0.926761 0.742214 -0.026839
C14   C     C_3   0.468938 0.069507 0.746219 -0.033505
C15   C     C_R   0.442806 0.421170 0.070869 0.046719
C16   C     C_R   0.501867 0.739739 0.499413 0.865834
C17   C     C_R   0.559880 0.574851 0.071692 0.234461
C18   C     C_R   0.560171 0.574456 0.927919 0.216664
C19   C     C_R   0.443430 0.420114 0.929331 0.038730
C20   C     C_3   0.343181 0.414951 0.922053 -0.091312
C21   C     C_3   0.342091 0.414862 0.076656 0.647769
C22   C     C_R   0.672555 0.499892 0.500382 0.899037
C23   C     C_R   0.949080 0.275785 0.563335 -0.204825
C24   C     C_R   0.817047 0.609866 0.469157 0.089267
C25   C     C_R   0.768343 0.498014 0.500789 -0.065730
C26   C     C_R   0.809855 0.384340 0.527231 0.102496
C27   C     C_R   0.903795 0.384129 0.525948 0.065589
C28   C     C_R   0.953440 0.493825 0.485105 -0.084090
C29   C     C_3   0.771585 0.734270 0.481531 -0.910394
C30   C     C_3   0.362167 0.879502 0.715229 -0.905602
C31   C     C_3   0.523756 0.118708 0.866482 -0.903063
C32   C     C_3   0.625366 0.664547 0.142055 -0.844143
C33   C     C_3   0.627970 0.660810 0.857024 -0.827585
C34   C     C_R   0.042278 0.274897 0.565963 0.186214
C35   C     C_3   0.304032 0.296808 0.854326 -0.935077
C36   C     C_3   0.215313 0.529935 0.118421 -0.297650
C37   C     C_3   0.755028 0.264416 0.559621 -0.893560
C38   C     C_3   0.308186 0.294128 0.150999 -0.885749
C39   C     C_3   0.086766 0.155869 0.608058 -0.944488
C40   C     C_3   0.921632 0.806563 0.298740 -0.912586
C41   C     C_R   0.091861 0.384827 0.529279 0.121953
C42   C     C_R   0.047332 0.493074 0.485683 0.033056
C43   C     C_R   0.097322 0.601351 0.443675 0.074446
C44   C     C_R   0.054712 0.704216 0.390757 -0.247704
C45   C     C_R   0.961451 0.705535 0.385170 0.219037
H1    H     H_    0.533271 0.890828 0.283447 0.173305
H2    H     H_    0.713662 0.727774 0.550681 0.219508
H3    H     H_    0.817986 0.805603 0.527608 0.249806
H4    H     H_    0.746432 0.766630 0.382862 0.244828
H5    H     H_    0.358581 0.775975 0.706573 0.270735
H6    H     H_    0.319225 0.905102 0.800380 0.245046
H7    H     H_    0.335127 0.921452 0.621634 0.238292
H8    H     H_    0.585769 0.065721 0.881201 0.236308
H9    H     H_    0.543618 0.218875 0.850496 0.276392
H10   H     H_    0.482567 0.109605 0.958619 0.235029
H11   H     H_    0.619264 0.666555 0.249870 0.289884
H12   H     H_    0.491359 0.877913 0.827738 0.184602
H13   H     H_    0.695379 0.640375 0.119799 0.221665
H14   H     H_    0.614260 0.762293 0.109532 0.200987
H15   H     H_    0.620825 0.665015 0.749244 0.287226
H16   H     H_    0.621250 0.759059 0.888758 0.196855
H17   H     H_    0.696986 0.631163 0.879585 0.224661
H18   H     H_    0.229812 0.293895 0.862844 0.242264
H19   H     H_    0.321784 0.299021 0.746821 0.267708
H20   H     H_    0.329998 0.210318 0.899756 0.251900
H21   H     H_    0.182694 0.467521 0.195039 0.190776
H22   H     H_    0.190053 0.504442 0.016775 0.147422
H23   H     H_    0.405742 0.118272 0.728149 0.181047
H24   H     H_    0.194869 0.626668 0.138343 0.186394
H25   H     H_    0.769853 0.232998 0.663580 0.238745
H26   H     H_    0.681872 0.274083 0.553054 0.241340
H27   H     H_    0.771455 0.190044 0.487825 0.235312
H28   H     H_    0.350278 0.213538 0.128515 0.205498
H29   H     H_    0.310577 0.308018 0.260896 0.256393
H30   H     H_    0.237812 0.269131 0.121725 0.222271
H31   H     H_    0.129771 0.123786 0.525780 0.242010
H32   H     H_    0.128289 0.172946 0.699315 0.243354
H33   H     H_    0.037015 0.078590 0.631490 0.242771
H34   H     H_    0.317858 0.501990 0.875625 0.190059
H35   H     H_    0.864237 0.767346 0.239019 0.247424
H36   H     H_    0.901636 0.886473 0.360310 0.245716
H37   H     H_    0.971161 0.844660 0.224544 0.231888
H38   H     H_    0.912548 0.190585 0.592985 0.162316
H39   H     H_    0.222341 0.309207 0.564799 0.144363
H40   H     H_    0.229549 0.686258 0.418447 0.144832
H41   H     H_    0.094580 0.782856 0.350121 0.150657
H42   H     H_    0.535201 0.117734 0.284514 0.175362
N1    N     N_R   0.499390 0.499140 0.142800 -0.111455
N2    N     N_R   0.499390 0.499180 0.857150 -0.127535
O1    O     O_R   0.500010 0.316790 0.614690 -0.613860
O2    O     O_R   0.500000 0.316760 0.385350 -0.620882
O3    O     O_R   0.367850 0.499990 0.614680 -0.627712
O4    O     O_R   0.367840 0.499950 0.385340 -0.559266
O5    O     O_R   0.500000 0.683240 0.614650 -0.635245
O6    O     O_R   0.499990 0.683210 0.385310 -0.625007
O7    O     O_R   0.632160 0.500050 0.614660 -0.627196
O8    O     O_R   0.632150 0.500010 0.385320 -0.624807
O9    O     O_3   0.309810 0.527438 0.129273 -0.580359
Zn1   Zn    Zn3+2 0.500010 0.500020 0.653130 0.927987
Zn2   Zn    Zn3+2 0.499990 0.499980 0.346870 0.970484

loop_
_geom_bond_atom_site_label_1
_geom_bond_atom_site_label_2
_ccdc_geom_bond_type
C30   H6    S    
C1    O1    A    
C17   N1    A    
C41   C42   A    
C2    H39   S    
C19   C20   S    
C32   H13   S    
C14   C31   S    
C36   H22   S    
C7    C8    A    
C29   H4    S    
C36   H24   S    
C15   C19   A    
C26   C27   A    
C23   H38   S    
N2    Zn1   S    
C39   H32   S    
C36   H21   S    
C13   H12   S    
C35   H20   S    
C2    C41   A    
O7    Zn1   S    
C24   C29   S    
C20   C35   S    
C21   C38   S    
C8    C9    A    
C22   C25   S    
C40   H35   S    
C35   H19   S    
C23   C27   A    
O2    Zn2   S    
C9    C10   A    
C5    H40   S    
C5    C43   A    
C9    H1    S    
C1    O2    A    
C22   O8    A    
C37   H25   S    
C34   C41   A    
C44   H41   S    
C38   H30   S    
C40   C45   S    
C29   H3    S    
C34   C39   S    
C39   H33   S    
C40   H37   S    
C13   C30   S    
C24   C25   A    
C6    C11   A    
O6    Zn2   S    
C33   H17   S    
C25   C26   A    
C43   C44   A    
C19   N2    A    
C6    C14   S    
C23   C34   A    
C17   C18   A    
C39   H31   S    
C31   H8    S    
O4    Zn2   S    
N1    Zn2   S    
C29   H2    S    
C33   H15   S    
C37   H26   S    
C42   C43   A    
C3    C4    S    
O1    Zn1   S    
O8    Zn2   S    
C44   C45   A    
C38   H29   S    
C30   H7    S    
C16   O6    A    
C20   H34   S    
C1    C7    S    
C18   N2    A    
C22   O7    A    
C40   H36   S    
C12   C45   A    
C3    C5    A    
C36   O9    S    
C26   C37   S    
C6    C7    A    
C12   C24   A    
C16   O5    A    
C8    H42   S    
C2    C3    A    
C10   C16   S    
C21   O9    S    
C11   C13   S    
O5    Zn1   S    
C28   C42   A    
C31   H9    S    
C30   H5    S    
C18   C33   S    
C10   C11   A    
C4    O4    A    
C15   C21   S    
C20   C21   S    
C12   C28   A    
C33   H16   S    
C37   H27   S    
C27   C28   A    
C17   C32   S    
C14   H23   S    
C35   H18   S    
C32   H14   S    
C31   H10   S    
C13   C14   S    
C32   H11   S    
O3    Zn1   S    
C15   N1    A    
C4    O3    A    
C38   H28   S    
