data_mof_unit_20492.cif
_audit_creation_date              2012-12-10T18:27:43-0500
_audit_creation_method            fapswitch 2.2
_symmetry_space_group_name_H-M    P1
_symmetry_Int_Tables_number       1
_space_group_crystal_system       triclinic
_cell_length_a                    19.30255
_cell_length_b                    19.250956
_cell_length_c                    19.423823
_cell_angle_alpha                 111.492775
_cell_angle_beta                  111.556292
_cell_angle_gamma                 104.379455
_cell_volume                      5601.24030128

loop_
_atom_site_label
_atom_site_type_symbol
_atom_type_description
_atom_site_fract_x
_atom_site_fract_y
_atom_site_fract_z
_atom_type_partial_charge
C1    C     C_R   0.892048 0.392116 0.000295 0.851048
C2    C     C_R   0.957673 0.802923 0.079081 -0.161681
C3    C     C_R   0.739619 0.577670 0.768206 0.423588
C4    C     C_R   0.684284 0.501650 0.688905 -0.190778
C5    C     C_R   0.689895 0.426845 0.678036 -0.011479
C6    C     C_R   0.756763 0.430107 0.741408 -0.168145
C7    C     C_R   0.814603 0.504485 0.817734 -0.096661
C8    C     C_R   0.804905 0.578565 0.833356 -0.072730
C9    C     C_R   0.589028 0.279213 0.612418 -0.315590
C10   C     C_R   0.539713 0.197151 0.542951 0.354510
C11   C     C_R   0.531309 0.178646 0.462362 0.437185
C12   C     C_R   0.881953 0.501730 0.881945 0.802489
C13   C     C_R   0.568483 0.243055 0.451383 -0.282186
C14   C     C_R   0.615930 0.324894 0.520416 -0.178250
C15   C     C_R   0.628193 0.343348 0.601735 0.092352
C16   C     C_1   0.831170 0.331504 0.000581 -0.148078
C17   C     C_1   0.779942 0.280179 0.000234 -0.005245
C18   C     C_1   0.719746 0.219746 0.999382 -0.006490
C19   C     C_1   0.668443 0.168235 0.998768 -0.146015
C20   C     C_R   0.041514 0.581922 0.326813 -0.332500
C21   C     C_R   0.109925 0.581393 0.315699 0.402224
C22   C     C_R   0.107968 0.503797 0.269471 -0.130425
C23   C     C_R   0.108364 0.607881 0.000127 0.789092
C24   C     C_R   0.037108 0.428617 0.232171 0.343663
C25   C     C_R   0.969127 0.431778 0.241397 -0.299345
C26   C     C_R   0.970725 0.508048 0.287553 0.448280
C27   C     C_R   0.246566 0.503812 0.322150 -0.063307
C28   C     C_R   0.313752 0.498226 0.312094 -0.060439
C29   C     C_R   0.314085 0.490006 0.237013 0.018571
C30   C     C_R   0.248455 0.490017 0.174807 -0.220898
C31   C     C_R   0.182402 0.496765 0.185292 -0.024031
C32   C     C_R   0.180223 0.502447 0.258889 0.166997
C33   C     C_R   0.417620 0.521542 0.192081 -0.128125
C34   C     C_R   0.116992 0.498153 0.118567 0.845790
C35   C     C_R   0.460012 0.494390 0.151566 -0.158493
C36   C     C_R   0.460621 0.417519 0.133790 -0.098671
C37   C     C_R   0.421378 0.368875 0.159123 -0.091311
C38   C     C_R   0.378959 0.395858 0.199873 -0.136359
C39   C     C_R   0.375501 0.471747 0.215117 0.119008
C40   C     C_1   0.169414 0.668470 0.999974 -0.095709
C41   C     C_1   0.220516 0.720087 0.000462 0.114680
C42   C     C_1   0.280284 0.781258 0.001638 0.040844
C43   C     C_1   0.331458 0.832844 0.002181 -0.169825
C44   C     C_R   0.504447 0.381482 0.384343 0.813386
C45   C     C_R   0.888215 0.740645 0.062649 -0.148003
C46   C     C_R   0.618643 0.499899 0.619344 0.883263
C47   C     C_R   0.496224 0.619358 0.615666 0.947434
C48   C     C_R   0.380975 0.499102 0.379722 0.790948
C49   C     C_R   0.497877 0.881035 0.879832 0.860251
C50   C     C_R   0.607843 0.107123 0.998855 0.802205
C51   C     C_R   0.501041 0.117963 0.120273 0.852045
C52   C     C_R   0.392161 0.893155 0.001413 0.799058
C53   C     C_R   0.766642 0.542047 0.456195 -0.360657
C54   C     C_R   0.686968 0.478503 0.388377 0.440748
C55   C     C_R   0.663216 0.398457 0.378412 -0.022310
C56   C     C_R   0.839339 0.667731 0.982476 -0.072344
C57   C     C_R   0.722544 0.381223 0.428189 -0.352881
C58   C     C_R   0.803254 0.443129 0.492281 0.295651
C59   C     C_R   0.825231 0.525366 0.507553 0.354084
C60   C     C_R   0.575247 0.262382 0.241227 0.388117
C61   C     C_R   0.502660 0.186620 0.186625 -0.187674
C62   C     C_R   0.432438 0.177385 0.195247 -0.024783
C63   C     C_R   0.435363 0.242699 0.259836 -0.255314
C64   C     C_R   0.507604 0.317171 0.317551 -0.140982
C65   C     C_R   0.579710 0.327918 0.309604 -0.000963
C66   C     C_R   0.294961 0.086630 0.061837 -0.243857
C67   C     C_R   0.860636 0.655702 0.918431 0.085996
C68   C     C_R   0.212517 0.024678 0.018160 0.466483
C69   C     C_R   0.193966 0.972509 0.050204 -0.200857
C70   C     C_R   0.254160 0.984698 0.127012 0.412631
C71   C     C_R   0.333838 0.049571 0.172116 -0.264296
C72   C     C_R   0.354513 0.100143 0.139519 -0.009648
C73   C     C_R   0.672694 0.831954 0.625656 -0.208192
C74   C     C_R   0.636608 0.811581 0.669814 -0.161237
C75   C     C_R   0.551595 0.788581 0.639623 -0.037524
C76   C     C_R   0.501321 0.784862 0.562273 0.343496
C77   C     C_R   0.540024 0.809040 0.519287 0.379452
C78   C     C_R   0.932419 0.717821 0.935903 0.386416
C79   C     C_R   0.624988 0.831013 0.551325 -0.249721
C80   C     C_R   0.516716 0.830992 0.755558 0.470923
C81   C     C_R   0.498373 0.815113 0.813414 -0.239588
C82   C     C_R   0.483782 0.738174 0.809426 -0.186222
C83   C     C_R   0.470386 0.671494 0.736956 0.442160
C84   C     C_R   0.494329 0.686981 0.681367 -0.178506
C85   C     C_R   0.519043 0.767953 0.691591 -0.039469
C86   C     C_R   0.555657 0.711592 0.925916 -0.058095
C87   C     C_R   0.561681 0.697393 0.993001 -0.154650
C88   C     C_R   0.502073 0.697872 0.017310 -0.114594
C89   C     C_R   0.979184 0.791880 0.015914 -0.091200
C90   C     C_R   0.436817 0.713189 0.974975 -0.117353
C91   C     C_R   0.431257 0.728869 0.908668 -0.150984
C92   C     C_R   0.490245 0.727211 0.883020 0.180084
Cu1   Cu    Cu3+1 0.999510 0.561800 0.061330 0.937911
Cu2   Cu    Cu3+1 0.000490 0.438200 0.938670 1.020905
Cu3   Cu    Cu3+1 0.555790 0.555750 0.499960 1.060279
Cu4   Cu    Cu3+1 0.444210 0.444200 0.499990 1.014785
Cu5   Cu    Cu3+1 0.438200 0.001560 0.939770 1.021695
Cu6   Cu    Cu3+1 0.561800 0.998350 0.060150 0.979745
H1    H     H_    0.994694 0.860120 0.140732 0.168471
H2    H     H_    0.562006 0.228934 0.389576 0.163914
H3    H     H_    0.645257 0.373873 0.511692 0.143643
H4    H     H_    0.040682 0.638706 0.364531 0.169155
H5    H     H_    0.914547 0.374946 0.213253 0.198269
H6    H     H_    0.245607 0.508840 0.379236 0.141253
H7    H     H_    0.248165 0.483335 0.116729 0.148692
H8    H     H_    0.871565 0.749330 0.111639 0.134134
H9    H     H_    0.414410 0.579550 0.202015 0.164556
H10   H     H_    0.490835 0.532078 0.132211 0.128990
H11   H     H_    0.491112 0.395747 0.099795 0.130441
H12   H     H_    0.421428 0.309039 0.144576 0.124061
H13   H     H_    0.344892 0.355491 0.214859 0.119121
H14   H     H_    0.784072 0.604828 0.467946 0.205666
H15   H     H_    0.704926 0.318359 0.416766 0.221028
H16   H     H_    0.784569 0.620503 0.969896 0.128632
H17   H     H_    0.380256 0.234857 0.265193 0.190850
H18   H     H_    0.312899 0.127636 0.039212 0.146146
H19   H     H_    0.131211 0.924941 0.017054 0.204503
H20   H     H_    0.378783 0.063387 0.234521 0.220503
H21   H     H_    0.655034 0.847759 0.518647 0.209512
H22   H     H_    0.738204 0.849225 0.649570 0.190983
H23   H     H_    0.675105 0.813693 0.728228 0.196804
H24   H     H_    0.601870 0.710194 0.907120 0.169506
H25   H     H_    0.612194 0.685377 0.025667 0.134914
H26   H     H_    0.506236 0.686044 0.068710 0.129461
H27   H     H_    0.390337 0.712199 0.993391 0.134319
H28   H     H_    0.380331 0.740548 0.876329 0.109539
H29   H     H_    0.032014 0.841709 0.029424 0.192342
H30   H     H_    0.762718 0.373148 0.731665 0.169863
H31   H     H_    0.598649 0.293262 0.675456 0.174863
O1    O     O_R   0.918180 0.470790 0.051800 -0.608693
O2    O     O_R   0.453580 0.362680 0.410500 -0.589775
O3    O     O_R   0.637300 0.547080 0.590140 -0.537217
O4    O     O_R   0.543070 0.452880 0.590170 -0.575524
O5    O     O_R   0.546420 0.637270 0.589450 -0.565073
O6    O     O_R   0.452190 0.543070 0.589480 -0.580233
O7    O     O_R   0.456930 0.547080 0.409790 -0.572549
O8    O     O_R   0.362710 0.452870 0.409810 -0.595032
O9    O     O_R   0.446190 0.911170 0.857320 -0.531551
O10   O     O_R   0.550560 0.908460 0.958980 -0.604282
O11   O     O_R   0.529210 0.082710 0.949130 -0.575282
O12   O     O_R   0.919010 0.366410 0.948200 -0.556384
O13   O     O_R   0.633590 0.080000 0.050790 -0.562587
O14   O     O_R   0.449440 0.091450 0.040930 -0.606524
O15   O     O_R   0.553810 0.088740 0.142590 -0.558108
O16   O     O_R   0.366410 0.919910 0.949130 -0.563504
O17   O     O_R   0.470790 0.917200 0.050790 -0.593208
O18   O     O_R   0.909400 0.552190 0.961620 -0.606751
O19   O     O_R   0.910240 0.447810 0.858030 -0.559577
O20   O     O_R   0.080990 0.633590 0.051800 -0.554320
O21   O     O_R   0.081820 0.529210 0.948200 -0.581008
O22   O     O_R   0.089760 0.552190 0.141970 -0.606685
O23   O     O_R   0.090600 0.447810 0.038380 -0.564496
O24   O     O_R   0.547810 0.456880 0.410470 -0.550946
O25   O     O_3   0.485521 0.097781 0.393704 -0.565856
C93   C     C_3   0.539380 0.061608 0.383850 0.138760
H32   H     H_    0.519585 0.003656 0.386301 0.227609
H33   H     H_    0.606221 0.101347 0.435501 0.128804
C94   C     C_3   0.531521 0.038779 0.296229 -0.389876
H34   H     H_    0.466773 0.992492 0.244388 0.244021
H35   H     H_    0.546146 0.095260 0.290511 0.222813
C95   C     C_3   0.590445 0.001809 0.284331 -0.826287
H36   H     H_    0.655866 0.047387 0.334643 0.262543
H37   H     H_    0.583576 0.986180 0.220512 0.276907
H38   H     H_    0.575823 0.944090 0.287869 0.245859
O26   O     O_3   0.905477 0.511028 0.300546 -0.579502
C96   C     C_3   0.839048 0.496731 0.225470 0.049868
H39   H     H_    0.782099 0.477376 0.229279 0.153673
H40   H     H_    0.827032 0.444836 0.165437 0.133677
C97   C     C_3   0.853238 0.576562 0.220804 -0.348403
H41   H     H_    0.867958 0.628179 0.282314 0.229164
H42   H     H_    0.906547 0.593977 0.210747 0.209156
C98   C     C_3   0.776725 0.564996 0.147159 -0.915844
H43   H     H_    0.759685 0.512423 0.085111 0.265133
H44   H     H_    0.790220 0.622609 0.143402 0.251283
H45   H     H_    0.723577 0.552591 0.158215 0.246762
O27   O     O_3   0.181426 0.653105 0.350317 -0.554664
C99   C     C_3   0.170734 0.726454 0.365283 0.153501
H46   H     H_    0.233355 0.778251 0.397798 0.242955
H47   H     H_    0.149216 0.744174 0.411903 0.122939
C100  C     C_3   0.117148 0.722479 0.281356 -0.361153
H48   H     H_    0.147603 0.714187 0.242234 0.273491
H49   H     H_    0.054619 0.669100 0.243408 0.204431
C101  C     C_3   0.106661 0.802066 0.299284 -0.883087
H50   H     H_    0.074631 0.810904 0.336777 0.252196
H51   H     H_    0.068567 0.797594 0.237501 0.255216
H52   H     H_    0.168166 0.856735 0.335756 0.289792
S1    S     S_3+6 0.031129 0.329789 0.173021 -0.020269
O28   O     O_2   0.108900 0.324856 0.222167 -0.289037
O29   O     O_2   0.957543 0.261867 0.156367 -0.287917
O30   O     O_3   0.020681 0.316206 0.078593 -0.565606
H53   H     H_    0.001392 0.255729 0.042385 0.372423
S2    S     S_3+6 0.925754 0.608706 0.584960 0.094013
O31   O     O_2   0.961529 0.605212 0.665814 -0.123960
O32   O     O_2   0.981353 0.603153 0.547686 -0.269719
O33   O     O_3   0.921249 0.700212 0.609255 -0.521592
H54   H     H_    0.979118 0.743131 0.652840 0.390820
O34   O     O_3   0.629743 0.492826 0.333260 -0.577673
C102  C     C_3   0.665944 0.543406 0.306350 0.022309
H55   H     H_    0.628617 0.510877 0.235373 0.158427
H56   H     H_    0.730267 0.553062 0.321131 0.127714
C103  C     C_3   0.662512 0.626884 0.343120 -0.297892
H57   H     H_    0.597503 0.615699 0.325419 0.244249
H58   H     H_    0.700903 0.661860 0.414323 0.213577
C104  C     C_3   0.693813 0.679676 0.308832 -0.910415
H59   H     H_    0.759255 0.692657 0.326917 0.263977
H60   H     H_    0.690765 0.739760 0.336712 0.269636
H61   H     H_    0.654646 0.646893 0.237723 0.244674
S3    S     S_3+6 0.872720 0.414087 0.551482 0.078563
O35   O     O_2   0.882894 0.446396 0.639419 -0.188814
O36   O     O_2   0.839086 0.320904 0.507873 -0.296558
O37   O     O_3   0.966089 0.453988 0.561311 -0.443892
H62   H     H_    0.954889 0.430643 0.501548 0.354736
O38   O     O_3   0.643653 0.267825 0.230962 -0.592776
C105  C     C_3   0.659785 0.321548 0.198755 0.063761
H63   H     H_    0.715035 0.322703 0.192686 0.179737
H64   H     H_    0.677107 0.386340 0.244356 0.145164
C106  C     C_3   0.587684 0.292627 0.110140 -0.392951
H65   H     H_    0.568357 0.226973 0.065586 0.239764
H66   H     H_    0.533500 0.296860 0.115409 0.202108
C107  C     C_3   0.612193 0.345091 0.072666 -0.927437
H67   H     H_    0.628957 0.411067 0.114937 0.237141
H68   H     H_    0.559121 0.321817 0.008346 0.271751
H69   H     H_    0.665888 0.341374 0.065711 0.260145
O39   O     O_3   0.147605 0.012305 0.944928 -0.578922
C108  C     C_3   0.151108 0.087172 0.945651 0.074958
H70   H     H_    0.096219 0.069354 0.885009 0.182641
H71   H     H_    0.205487 0.118873 0.942631 0.128362
C109  C     C_3   0.145908 0.146233 0.020775 -0.388126
H72   H     H_    0.086684 0.114063 0.016361 0.246533
H73   H     H_    0.197950 0.164275 0.083529 0.220416
C110  C     C_3   0.150100 0.225833 0.019196 -0.855294
H74   H     H_    0.208696 0.258566 0.022902 0.250202
H75   H     H_    0.148846 0.268121 0.075395 0.297954
H76   H     H_    0.096287 0.211144 0.959449 0.256929
S4    S     S_3+6 0.227566 0.925503 0.172100 0.000045
O40   O     O_2   0.169959 0.836419 0.102749 -0.319670
O41   O     O_2   0.304264 0.929975 0.236485 -0.242449
O42   O     O_3   0.179345 0.964491 0.221460 -0.526275
H77   H     H_    0.163838 0.927690 0.243319 0.371766
S5    S     S_3+6 0.963172 0.705678 0.858552 0.052426
O43   O     O_2   0.908666 0.720730 0.792844 -0.170972
O44   O     O_2   0.051958 0.766707 0.900024 -0.298078
O45   O     O_3   0.952967 0.608581 0.808634 -0.464073
H78   H     H_    0.999537 0.606934 0.851142 0.336940
S6    S     S_3+6 0.392477 0.750632 0.520446 0.045585
O46   O     O_2   0.375934 0.825760 0.545242 -0.222658
O47   O     O_2   0.347339 0.698072 0.424347 -0.228666
O48   O     O_3   0.354728 0.693575 0.557570 -0.597742
H79   H     H_    0.293898 0.674593 0.526313 0.377071
S7    S     S_3+6 0.486801 0.813326 0.425573 0.062070
O49   O     O_2   0.437989 0.726522 0.348956 -0.293467
O50   O     O_2   0.429009 0.851603 0.433127 -0.162918
O51   O     O_3   0.555353 0.870806 0.411053 -0.564764
H80   H     H_    0.522298 0.861046 0.352670 0.361351
O52   O     O_3   0.528230 0.907570 0.761029 -0.566410
C111  C     C_3   0.612649 0.962219 0.796777 0.060076
H81   H     H_    0.616749 0.025810 0.817666 0.183986
H82   H     H_    0.629666 0.949612 0.746488 0.170549
C112  C     C_3   0.676929 0.965490 0.875750 -0.467080
H83   H     H_    0.662242 0.984933 0.927763 0.240640
H84   H     H_    0.676069 0.903501 0.859192 0.209790
C113  C     C_3   0.764674 0.027114 0.909079 -0.808257
H85   H     H_    0.781938 0.007356 0.858936 0.252239
H86   H     H_    0.809423 0.029312 0.966559 0.274617
H87   H     H_    0.768955 0.090489 0.927418 0.264772
O53   O     O_3   0.442475 0.592737 0.726842 -0.574757
C114  C     C_3   0.355536 0.546950 0.667690 0.114296
H88   H     H_    0.341290 0.479952 0.636777 0.180392
H89   H     H_    0.334365 0.560926 0.614687 0.140856
C115  C     C_3   0.305667 0.560458 0.712899 -0.425456
H90   H     H_    0.330587 0.552565 0.769553 0.247793
H91   H     H_    0.311068 0.624453 0.734540 0.223145
C116  C     C_3   0.213798 0.499263 0.652538 -0.790881
H92   H     H_    0.187495 0.506452 0.595601 0.264308
H93   H     H_    0.179245 0.511723 0.686780 0.285753
H94   H     H_    0.205546 0.434271 0.630884 0.253977
S8    S     S_3+6 0.720097 0.667589 0.787014 -0.013587
O54   O     O_2   0.731724 0.697012 0.728543 -0.252344
O55   O     O_2   0.631642 0.641521 0.766221 -0.361387
O56   O     O_3   0.780458 0.748884 0.888132 -0.550285
H95   H     H_    0.758914 0.790613 0.888633 0.362834
S9    S     S_3+6 0.492520 0.117365 0.558246 0.067457
O57   O     O_2   0.403119 0.065340 0.487596 -0.163935
O58   O     O_2   0.536296 0.062647 0.554866 -0.272449
O59   O     O_3   0.496985 0.157498 0.653525 -0.509022
H96   H     H_    0.553063 0.169906 0.696086 0.342500

loop_
_geom_bond_atom_site_label_1
_geom_bond_atom_site_label_2
_ccdc_geom_bond_type
C66   C68   A    
C87   C88   A    
C26   O26   S    
O26   C96   S    
C91   H28   S    
C93   H33   S    
S4    O41   D    
C97   H41   S    
Cu1   O20   S    
Cu3   Cu4   S    
C51   C61   S    
C88   H26   S    
C112  C113  S    
O39   C108  S    
C108  C109  S    
C113  H87   S    
C109  H73   S    
Cu5   Cu6   S    
C53   C59   A    
S8    O55   D    
C7    C8    A    
C4    C46   S    
C51   O15   A    
C44   C64   S    
C106  C107  S    
C28   C29   A    
S9    O57   D    
O59   H96   S    
C54   O34   S    
C66   H18   S    
C48   O8    A    
C24   S1    S    
C5    C6    A    
C44   O24   A    
C12   O18   A    
C21   C22   A    
C36   C37   A    
C80   O52   S    
C37   C38   A    
C102  H55   S    
C101  H51   S    
C46   O3    A    
C30   C31   A    
C114  C115  S    
C105  H64   S    
C43   C52   S    
C3    S8    S    
C20   H4    S    
Cu2   O23   S    
C23   C40   S    
C111  C112  S    
C27   H6    S    
C116  H94   S    
C82   C92   S    
C17   C18   S    
C18   C19   T    
C41   C42   S    
C111  H82   S    
C49   C81   S    
C107  H67   S    
S1    O30   S    
C35   H10   S    
C11   O25   S    
C55   C65   S    
C54   C55   A    
C84   C85   A    
C75   C85   S    
C60   O38   S    
C66   C72   A    
C76   S6    S    
C45   C56   A    
C98   H44   S    
C16   C17   T    
C99   H47   S    
C33   H9    S    
C86   H24   S    
C52   O17   A    
S4    O40   D    
O27   C99   S    
C70   C71   A    
C116  H93   S    
C13   C14   A    
C29   C30   A    
C9    C10   A    
S6    O48   S    
Cu5   O11   S    
C61   C62   A    
C94   C95   S    
C100  C101  S    
C63   H17   S    
C99   C100  S    
S7    O51   S    
C23   O20   A    
S9    O59   S    
C78   C89   A    
C73   H22   S    
S8    O54   D    
Cu6   O13   S    
C93   C94   S    
C96   H40   S    
C103  C104  S    
C103  H58   S    
C115  C116  S    
C59   S2    S    
O34   C102  S    
C67   C78   A    
Cu3   O7    S    
C102  C103  S    
O48   H79   S    
C107  H68   S    
C109  H72   S    
C95   H37   S    
C100  H49   S    
C95   H36   S    
Cu4   O6    S    
C57   C58   A    
C77   C79   A    
C2    C45   A    
Cu2   O19   S    
C7    C12   S    
C108  H71   S    
C93   H32   S    
C5    C15   S    
C74   C75   A    
C50   O11   A    
S2    O33   S    
C1    O12   A    
C24   C25   A    
C3    C8    A    
O53   C114  S    
C101  H52   S    
C91   C92   A    
C115  H90   S    
C52   O16   A    
C34   O23   A    
C105  H63   S    
S3    O35   D    
C14   H3    S    
C57   H15   S    
C94   H35   S    
C45   H8    S    
C25   C26   A    
C53   C54   A    
C82   C83   A    
Cu3   O5    S    
C81   C82   A    
C3    C4    A    
C63   C64   A    
C79   H21   S    
C60   C61   A    
C44   O2    A    
C35   C36   A    
S2    O32   D    
C94   H34   S    
C2    C89   A    
C75   C76   A    
C101  H50   S    
C80   C85   A    
O51   H80   S    
O52   C111  S    
C31   C32   A    
C104  H61   S    
C58   S3    S    
C114  H88   S    
C21   O27   S    
C111  H81   S    
C29   C39   S    
C62   C63   A    
S5    O44   D    
C108  H70   S    
C37   H12   S    
C31   C34   S    
C62   C72   S    
C110  H75   S    
C1    C16   S    
C33   C39   A    
C47   C84   S    
C76   C77   A    
C109  C110  S    
O25   C93   S    
Cu4   O4    S    
C22   C32   S    
C99   H46   S    
Cu4   O2    S    
C90   H27   S    
C49   O9    A    
C53   H14   S    
S3    O36   D    
C40   C41   T    
C106  H65   S    
C23   O21   A    
C104  H60   S    
C2    H1    S    
C1    O1    A    
S7    O50   D    
C51   O14   A    
C49   O10   A    
C30   H7    S    
C96   H39   S    
S4    O42   S    
C115  H91   S    
C83   C84   A    
O30   H53   S    
C42   C43   T    
C112  H83   S    
C56   C67   A    
C73   C74   A    
C36   H11   S    
Cu5   O9    S    
Cu4   O8    S    
C95   H38   S    
C114  H89   S    
C98   H43   S    
C89   H29   S    
O42   H77   S    
C28   C48   S    
Cu6   O15   S    
C78   S5    S    
C71   H20   S    
C47   O6    A    
C27   C32   A    
C86   C87   A    
Cu2   O12   S    
Cu5   O16   S    
C48   O7    A    
C83   O53   S    
C25   H5    S    
C8    C67   S    
C88   C90   A    
C80   C81   A    
C112  H84   S    
C105  C106  S    
Cu3   O3    S    
C60   C65   A    
C113  H86   S    
C34   O22   A    
C98   H45   S    
Cu5   O14   S    
C6    C7    A    
C9    H31   S    
C106  H66   S    
C73   C79   A    
Cu6   O17   S    
Cu1   Cu2   S    
S9    O58   D    
C103  H57   S    
Cu6   O10   S    
C64   C65   A    
C12   O19   A    
C13   H2    S    
C55   C57   A    
S7    O49   D    
C6    H30   S    
S1    O28   D    
C47   O5    A    
C86   C92   A    
S2    O31   D    
C46   O4    A    
C87   H25   S    
C11   C13   A    
C19   C50   S    
C10   S9    S    
C90   C91   A    
C38   C39   A    
C20   C26   A    
S3    O37   S    
O38   C105  S    
C97   C98   S    
C69   H19   S    
S5    O43   D    
C33   C35   A    
S6    O47   D    
C113  H85   S    
Cu1   O18   S    
C110  H76   S    
C22   C24   A    
C70   S4    S    
S5    O45   S    
C9    C15   A    
C69   C70   A    
C68   C69   A    
C58   C59   A    
S1    O29   D    
Cu1   O22   S    
C10   C11   A    
O33   H54   S    
C50   O13   A    
Cu2   O21   S    
C4    C5    A    
C74   H23   S    
C71   C72   A    
C104  H59   S    
C96   C97   S    
C20   C21   A    
C68   O39   S    
S8    O56   S    
C110  H74   S    
O56   H95   S    
C56   H16   S    
C14   C15   A    
C102  H56   S    
C77   S7    S    
O37   H62   S    
Cu3   O24   S    
C38   H13   S    
S6    O46   D    
Cu1   O1    S    
C107  H69   S    
C100  H48   S    
O45   H78   S    
C27   C28   A    
C97   H42   S    
C116  H92   S    
