data_mof_unit_65747.cif
_audit_creation_date              2012-12-10T18:30:59-0500
_audit_creation_method            fapswitch 2.2
_symmetry_space_group_name_H-M    P1
_symmetry_Int_Tables_number       1
_space_group_crystal_system       triclinic
_cell_length_a                    32.522193
_cell_length_b                    33.824238
_cell_length_c                    22.403409
_cell_angle_alpha                 89.984577
_cell_angle_beta                  89.588346
_cell_angle_gamma                 90.215823
_cell_volume                      24643.7981143

loop_
_atom_site_label
_atom_site_type_symbol
_atom_type_description
_atom_site_fract_x
_atom_site_fract_y
_atom_site_fract_z
_atom_type_partial_charge
C1    C     C_R   0.035185 0.509324 0.318012 0.131620
C2    C     C_R   0.964823 0.490646 0.681991 0.131635
C3    C     C_R   0.964948 0.490615 0.318439 0.132509
C4    C     C_R   0.035043 0.509416 0.681565 0.132527
C5    C     C_R   0.535355 0.006250 0.316987 0.133910
C6    C     C_R   0.464647 0.993767 0.683026 0.133873
C7    C     C_R   0.463669 0.994061 0.319683 0.135438
C8    C     C_R   0.536342 0.005904 0.680304 0.135457
C9    C     C_R   0.843874 0.393539 0.501873 -0.149557
C10   C     C_R   0.156125 0.606464 0.498103 -0.149569
C11   C     C_R   0.123411 0.363261 0.443155 -0.106928
C12   C     C_R   0.876513 0.636689 0.556813 -0.106888
C13   C     C_R   0.342677 0.895594 0.502797 -0.148171
C14   C     C_R   0.657321 0.104408 0.497188 -0.148071
C15   C     C_R   0.646235 0.882111 0.462956 -0.107803
C16   C     C_R   0.354005 0.118157 0.537356 -0.107819
C17   C     C_R   0.873345 0.423552 0.501731 -0.205581
C18   C     C_R   0.126654 0.576450 0.498251 -0.205596
C19   C     C_R   0.094293 0.393385 0.444505 -0.226624
C20   C     C_R   0.905628 0.606562 0.555486 -0.226579
C21   C     C_R   0.372760 0.925046 0.502947 -0.219317
C22   C     C_R   0.627240 0.074955 0.497043 -0.219345
C23   C     C_R   0.616613 0.911645 0.459870 -0.224626
C24   C     C_R   0.383624 0.088619 0.540448 -0.224114
C25   C     C_R   0.915126 0.414082 0.500394 -0.007088
C26   C     C_R   0.084873 0.585919 0.499604 -0.007095
C27   C     C_R   0.082379 0.410709 0.498970 -0.043693
C28   C     C_R   0.917623 0.589293 0.501019 -0.043717
C29   C     C_R   0.414341 0.914794 0.500295 -0.011196
C30   C     C_R   0.585659 0.085206 0.499702 -0.011147
C31   C     C_R   0.584474 0.913054 0.501624 -0.028538
C32   C     C_R   0.415550 0.086982 0.498368 -0.028882
C33   C     C_R   0.927556 0.374540 0.498952 -0.239010
C34   C     C_R   0.072442 0.625460 0.501061 -0.239015
C35   C     C_R   0.097771 0.394950 0.552329 -0.224145
C36   C     C_R   0.902318 0.605112 0.447646 -0.224284
C37   C     C_R   0.425936 0.875056 0.497486 -0.238598
C38   C     C_R   0.574063 0.124944 0.502510 -0.238505
C39   C     C_R   0.582379 0.884391 0.546978 -0.242424
C40   C     C_R   0.417457 0.115457 0.452723 -0.242376
C41   C     C_R   0.898097 0.344463 0.499009 -0.096736
C42   C     C_R   0.101899 0.655538 0.501001 -0.096727
C43   C     C_R   0.127003 0.364885 0.551004 -0.102002
C44   C     C_R   0.873093 0.635185 0.448948 -0.101887
C45   C     C_R   0.395868 0.845551 0.497445 -0.095316
C46   C     C_R   0.604129 0.154450 0.502544 -0.095321
C47   C     C_R   0.611950 0.854656 0.550019 -0.103530
C48   C     C_R   0.387891 0.145195 0.449674 -0.103759
C49   C     C_R   0.856144 0.353877 0.500525 0.345741
C50   C     C_R   0.143853 0.646126 0.499466 0.345742
C51   C     C_R   0.140455 0.349436 0.496333 0.356261
C52   C     C_R   0.859556 0.650578 0.503613 0.356052
C53   C     C_R   0.354119 0.855720 0.500071 0.347514
C54   C     C_R   0.645879 0.144282 0.499914 0.347523
C55   C     C_R   0.644053 0.853525 0.508047 0.356468
C56   C     C_R   0.355986 0.146529 0.491944 0.356681
C57   C     C_R   0.000166 0.500244 0.222737 0.333020
C58   C     C_R   0.999833 0.499761 0.777266 0.333059
C59   C     C_R   0.498824 0.997578 0.222852 0.332166
C60   C     C_R   0.501200 0.002416 0.777149 0.332147
C61   C     C_R   0.025683 0.474901 0.872951 0.542293
C62   C     C_R   0.974318 0.525107 0.127050 0.542293
C63   C     C_R   0.973920 0.524653 0.873432 0.542702
C64   C     C_R   0.026076 0.475350 0.126569 0.542695
C65   C     C_R   0.524763 0.974821 0.872531 0.542006
C66   C     C_R   0.475269 0.025176 0.127470 0.541996
C67   C     C_R   0.478071 0.029001 0.873786 0.544005
C68   C     C_R   0.521966 0.970999 0.126216 0.544018
C69   C     C_R   0.973439 0.525154 0.936687 -0.023514
C70   C     C_R   0.026558 0.474850 0.063314 -0.023504
C71   C     C_R   0.026341 0.474606 0.936192 -0.023469
C72   C     C_R   0.973658 0.525400 0.063810 -0.023467
C73   C     C_R   0.476918 0.028550 0.937059 -0.024858
C74   C     C_R   0.523120 0.971450 0.062943 -0.024879
C75   C     C_R   0.524667 0.973483 0.935792 -0.022909
C76   C     C_R   0.475369 0.026517 0.064209 -0.022903
C77   C     C_R   0.999944 0.499941 0.968186 -0.012385
C78   C     C_R   0.000055 0.500065 0.031815 -0.012387
C79   C     C_R   0.500415 0.000516 0.968180 -0.012028
C80   C     C_R   0.499622 0.999484 0.031822 -0.012026
C81   C     C_R   0.053535 0.444382 0.499816 0.795346
C82   C     C_R   0.946465 0.555619 0.500182 0.795343
C83   C     C_R   0.945684 0.445484 0.500128 0.807892
C84   C     C_R   0.054315 0.554516 0.499872 0.807896
C85   C     C_R   0.554248 0.945181 0.500131 0.796501
C86   C     C_R   0.445759 0.054831 0.499868 0.796571
C87   C     C_R   0.445538 0.945616 0.500115 0.805362
C88   C     C_R   0.554462 0.054383 0.499885 0.805315
C89   C     C_R   0.947223 0.550374 0.969202 -0.157892
C90   C     C_R   0.052775 0.449631 0.030800 -0.157892
C91   C     C_R   0.052668 0.449511 0.968211 -0.158132
C92   C     C_R   0.947331 0.550495 0.031790 -0.158123
C93   C     C_R   0.452813 0.055437 0.969967 -0.157356
C94   C     C_R   0.547225 0.944565 0.030035 -0.157342
C95   C     C_R   0.547983 0.945562 0.967448 -0.157593
C96   C     C_R   0.452053 0.054438 0.032554 -0.157609
C97   C     C_R   0.035305 0.509574 0.254837 -0.252338
C98   C     C_R   0.964703 0.490402 0.745166 -0.252340
C99   C     C_R   0.964978 0.490710 0.255292 -0.252191
C100  C     C_R   0.035012 0.509323 0.744712 -0.252195
C101  C     C_R   0.534958 0.004583 0.253912 -0.249501
C102  C     C_R   0.465057 0.995431 0.746101 -0.249535
C103  C     C_R   0.463052 0.992368 0.256511 -0.251437
C104  C     C_R   0.536970 0.007600 0.743476 -0.251443
C105  C     C_R   0.179008 0.699747 0.549409 0.529015
C106  C     C_R   0.820995 0.300251 0.450583 0.529028
C107  C     C_R   0.837889 0.717921 0.522058 0.534313
C108  C     C_R   0.162082 0.282050 0.478183 0.534340
C109  C     C_R   0.681823 0.197229 0.550312 0.530827
C110  C     C_R   0.318167 0.802780 0.449669 0.530815
C111  C     C_R   0.335236 0.214684 0.503885 0.536997
C112  C     C_R   0.664834 0.785407 0.495721 0.537004
C113  C     C_R   0.197900 0.682868 0.449331 0.533920
C114  C     C_R   0.802089 0.317142 0.550651 0.533903
C115  C     C_R   0.788686 0.669781 0.490370 0.531824
C116  C     C_R   0.211374 0.330298 0.509213 0.531828
C117  C     C_R   0.700648 0.180368 0.450199 0.531590
C118  C     C_R   0.299355 0.819630 0.549790 0.531599
C119  C     C_R   0.285915 0.166373 0.473173 0.529524
C120  C     C_R   0.714062 0.833605 0.527128 0.529509
C121  C     C_R   0.228042 0.712634 0.448351 -0.011165
C122  C     C_R   0.771946 0.287375 0.551630 -0.011149
C123  C     C_R   0.757212 0.698021 0.491972 -0.012909
C124  C     C_R   0.242851 0.302063 0.507598 -0.012925
C125  C     C_R   0.731005 0.209947 0.449360 -0.010033
C126  C     C_R   0.268997 0.790051 0.550629 -0.010043
C127  C     C_R   0.254653 0.194846 0.473184 -0.011700
C128  C     C_R   0.745320 0.805127 0.527100 -0.011671
C129  C     C_R   0.233394 0.736324 0.499428 -0.019914
C130  C     C_R   0.766602 0.263681 0.500558 -0.019912
C131  C     C_R   0.766785 0.737038 0.509039 -0.017849
C132  C     C_R   0.233232 0.262990 0.490877 -0.017845
C133  C     C_R   0.736409 0.233598 0.500465 -0.019606
C134  C     C_R   0.263587 0.766406 0.499520 -0.019607
C135  C     C_R   0.264337 0.234000 0.489401 -0.018020
C136  C     C_R   0.735682 0.766029 0.510525 -0.018028
C137  C     C_R   0.208673 0.729959 0.550445 -0.012180
C138  C     C_R   0.791329 0.270040 0.449547 -0.012194
C139  C     C_R   0.807423 0.747174 0.524348 -0.015390
C140  C     C_R   0.192548 0.252796 0.475905 -0.015407
C141  C     C_R   0.711659 0.227272 0.551457 -0.014146
C142  C     C_R   0.288331 0.772737 0.448524 -0.014141
C143  C     C_R   0.304999 0.244175 0.504535 -0.016449
C144  C     C_R   0.695068 0.755912 0.495050 -0.016445
C145  C     C_R   0.252831 0.719256 0.397689 -0.163802
C146  C     C_R   0.747152 0.280759 0.602287 -0.163806
C147  C     C_R   0.716560 0.688190 0.476999 -0.162049
C148  C     C_R   0.283549 0.311951 0.522230 -0.162055
C149  C     C_R   0.755863 0.216513 0.398746 -0.164337
C150  C     C_R   0.244146 0.783480 0.601249 -0.164334
C151  C     C_R   0.214033 0.185047 0.457985 -0.162464
C152  C     C_R   0.785893 0.814868 0.542633 -0.162460
C153  C     C_R   0.785713 0.246251 0.398838 -0.162963
C154  C     C_R   0.214296 0.753743 0.601158 -0.162964
C155  C     C_R   0.183304 0.213724 0.459319 -0.160975
C156  C     C_R   0.816621 0.786190 0.541282 -0.160978
C157  C     C_R   0.282657 0.749006 0.397769 -0.162004
C158  C     C_R   0.717326 0.251009 0.602207 -0.162000
C159  C     C_R   0.685807 0.716832 0.478548 -0.160527
C160  C     C_R   0.314305 0.283311 0.520685 -0.160528
Cu1   Cu    Cu3+1 0.000000 0.500000 0.559570 0.953570
Cu2   Cu    Cu3+1 0.000000 0.500000 0.440430 0.953543
Cu3   Cu    Cu3+1 0.500000 0.000000 0.559570 0.955452
Cu4   Cu    Cu3+1 0.500000 0.000000 0.440430 0.955475
H1    H     H_    0.249301 0.701469 0.357847 0.188542
H2    H     H_    0.750676 0.298551 0.642126 0.188539
H3    H     H_    0.708390 0.658382 0.463860 0.188563
H4    H     H_    0.291754 0.341803 0.535098 0.188552
H5    H     H_    0.752318 0.198738 0.358895 0.188403
H6    H     H_    0.247695 0.801250 0.641103 0.188409
H7    H     H_    0.205808 0.155169 0.445283 0.188516
H8    H     H_    0.794082 0.844703 0.555612 0.188527
H9    H     H_    0.804319 0.250544 0.359057 0.189373
H10   H     H_    0.195695 0.749445 0.640943 0.189374
H11   H     H_    0.152290 0.205137 0.447533 0.189795
H12   H     H_    0.847598 0.794733 0.553332 0.189805
H13   H     H_    0.301263 0.753296 0.357986 0.189896
H14   H     H_    0.698715 0.246724 0.641986 0.189898
H15   H     H_    0.654832 0.708289 0.466483 0.189836
H16   H     H_    0.345316 0.291899 0.532482 0.189825
H17   H     H_    0.811544 0.401051 0.502776 0.141276
H18   H     H_    0.188454 0.598953 0.497188 0.141288
H19   H     H_    0.133018 0.350877 0.400749 0.145934
H20   H     H_    0.866841 0.649026 0.599221 0.146054
H21   H     H_    0.310522 0.903704 0.504672 0.144070
H22   H     H_    0.689477 0.096299 0.495310 0.144038
H23   H     H_    0.671108 0.881566 0.430573 0.139762
H24   H     H_    0.329291 0.118868 0.569986 0.139653
H25   H     H_    0.863654 0.454152 0.502481 0.150219
H26   H     H_    0.136346 0.545851 0.497495 0.150237
H27   H     H_    0.080917 0.402736 0.402913 0.154785
H28   H     H_    0.918937 0.597167 0.597098 0.154780
H29   H     H_    0.363698 0.955803 0.505193 0.151611
H30   H     H_    0.636302 0.044198 0.494798 0.151528
H31   H     H_    0.619648 0.934020 0.426233 0.145059
H32   H     H_    0.380750 0.066423 0.574376 0.145231
H33   H     H_    0.959918 0.367069 0.497810 0.142518
H34   H     H_    0.040080 0.632930 0.502217 0.142513
H35   H     H_    0.087080 0.405463 0.595067 0.151415
H36   H     H_    0.913076 0.594645 0.404916 0.151455
H37   H     H_    0.458122 0.866985 0.495423 0.141953
H38   H     H_    0.541876 0.133014 0.504576 0.142018
H39   H     H_    0.557842 0.884994 0.579917 0.150364
H40   H     H_    0.441841 0.114704 0.419554 0.150543
H41   H     H_    0.907778 0.313877 0.498063 0.149990
H42   H     H_    0.092218 0.686124 0.501959 0.149988
H43   H     H_    0.139280 0.353608 0.592430 0.143260
H44   H     H_    0.860888 0.646511 0.407506 0.143401
H45   H     H_    0.404924 0.814805 0.495491 0.149298
H46   H     H_    0.595072 0.185195 0.504497 0.149325
H47   H     H_    0.610134 0.832711 0.585140 0.145757
H48   H     H_    0.389555 0.166983 0.414316 0.145692
H49   H     H_    0.926472 0.570160 0.946386 0.188625
H50   H     H_    0.073525 0.429844 0.053615 0.188622
H51   H     H_    0.073345 0.429641 0.945005 0.188543
H52   H     H_    0.926655 0.570366 0.054996 0.188548
H53   H     H_    0.434377 0.077393 0.947461 0.188970
H54   H     H_    0.565661 0.922609 0.052541 0.188982
H55   H     H_    0.566942 0.924312 0.943954 0.188640
H56   H     H_    0.433093 0.075688 0.056047 0.188630
H57   H     H_    0.063171 0.517162 0.230459 0.164395
H58   H     H_    0.936844 0.482792 0.769547 0.164357
H59   H     H_    0.937224 0.483058 0.231270 0.164022
H60   H     H_    0.062759 0.516996 0.768736 0.163985
H61   H     H_    0.563006 0.010035 0.228682 0.163535
H62   H     H_    0.437010 0.989996 0.771341 0.163553
H63   H     H_    0.434248 0.987681 0.233430 0.165800
H64   H     H_    0.565783 0.012266 0.766546 0.165847
N1    N     N_R   0.000000 0.500000 0.350920 -0.197516
N2    N     N_R   0.000000 0.500000 0.649080 -0.197507
N3    N     N_R   0.500000 0.000000 0.350920 -0.197488
N4    N     N_R   0.500000 1.000000 0.649080 -0.197471
N5    N     N_R   0.174191 0.676990 0.499359 -0.464708
N6    N     N_R   0.825805 0.323014 0.500629 -0.464708
N7    N     N_R   0.828076 0.680148 0.505183 -0.469221
N8    N     N_R   0.171940 0.319875 0.494734 -0.469264
N9    N     N_R   0.676809 0.174617 0.500145 -0.465328
N10   N     N_R   0.323187 0.825386 0.499840 -0.465326
N11   N     N_R   0.325170 0.176642 0.488826 -0.468898
N12   N     N_R   0.674856 0.823396 0.511138 -0.468858
N13   N     N_R   0.999768 0.499735 0.842466 -0.447030
N14   N     N_R   0.000230 0.500270 0.157536 -0.447018
N15   N     N_R   0.501673 0.002315 0.842396 -0.446877
N16   N     N_R   0.498360 0.997683 0.157605 -0.446891
O1    O     O_R   0.041070 0.458950 0.550320 -0.584547
O2    O     O_R   0.958930 0.541050 0.449680 -0.584579
O3    O     O_R   0.958930 0.541050 0.550320 -0.586830
O4    O     O_R   0.041070 0.458950 0.449680 -0.586854
O5    O     O_R   0.958930 0.458950 0.449680 -0.574252
O6    O     O_R   0.041070 0.541050 0.550320 -0.574245
O7    O     O_R   0.041070 0.541050 0.449680 -0.574399
O8    O     O_R   0.958930 0.458950 0.550320 -0.574391
O9    O     O_R   0.541070 0.958950 0.550320 -0.590487
O10   O     O_R   0.458930 0.041050 0.449680 -0.590509
O11   O     O_R   0.458930 0.041050 0.550320 -0.573195
O12   O     O_R   0.541070 0.958950 0.449680 -0.573177
O13   O     O_R   0.458930 0.958950 0.449680 -0.572536
O14   O     O_R   0.541070 0.041050 0.550320 -0.572590
O15   O     O_R   0.541070 0.041050 0.449680 -0.580194
O16   O     O_R   0.458930 0.958950 0.550320 -0.580237
O17   O     O_2   0.155415 0.692895 0.598149 -0.551075
O18   O     O_2   0.844595 0.307098 0.401849 -0.551017
O19   O     O_2   0.877037 0.727159 0.536128 -0.535345
O20   O     O_2   0.122892 0.272763 0.464424 -0.535295
O21   O     O_2   0.658205 0.190437 0.599046 -0.542268
O22   O     O_2   0.341781 0.809576 0.400931 -0.542307
O23   O     O_2   0.374228 0.223769 0.519031 -0.533755
O24   O     O_2   0.625892 0.776380 0.480240 -0.533775
O25   O     O_2   0.192118 0.660128 0.400605 -0.565562
O26   O     O_2   0.807864 0.339887 0.599374 -0.565625
O27   O     O_2   0.779989 0.632184 0.474578 -0.546371
O28   O     O_2   0.220108 0.367946 0.524695 -0.546323
O29   O     O_2   0.694728 0.157756 0.401371 -0.566313
O30   O     O_2   0.305281 0.842237 0.598622 -0.566271
O31   O     O_2   0.277214 0.128709 0.457745 -0.551027
O32   O     O_2   0.722719 0.871212 0.542910 -0.551139
O33   O     O_2   0.050529 0.450179 0.842367 -0.541805
O34   O     O_2   0.949476 0.549833 0.157633 -0.541814
O35   O     O_2   0.949006 0.549290 0.843309 -0.541457
O36   O     O_2   0.050985 0.450708 0.156691 -0.541486
O37   O     O_2   0.547346 0.948357 0.841597 -0.543612
O38   O     O_2   0.452681 0.051636 0.158405 -0.543624
O39   O     O_2   0.455909 0.056173 0.844068 -0.537408
O40   O     O_2   0.544131 0.943830 0.155936 -0.537331
C161  C     C_R   0.075062 0.519348 0.344768 0.165755
C162  C     C_R   0.102783 0.489245 0.359007 -0.107496
C163  C     C_R   0.143326 0.498360 0.374260 -0.170577
C164  C     C_R   0.156944 0.537579 0.372863 -0.120838
C165  C     C_R   0.129878 0.567725 0.356888 -0.108190
C166  C     C_R   0.089106 0.558705 0.342833 -0.160420
H65   H     H_    0.093485 0.458744 0.355407 0.129398
H66   H     H_    0.164476 0.474921 0.385485 0.151748
H67   H     H_    0.188466 0.544618 0.383962 0.148961
H68   H     H_    0.140494 0.598065 0.355325 0.188181
H69   H     H_    0.068689 0.582195 0.329120 0.137510
C167  C     C_R   0.924956 0.480580 0.655243 0.165801
C168  C     C_R   0.897200 0.510653 0.641005 -0.107544
C169  C     C_R   0.856664 0.501494 0.625771 -0.170777
C170  C     C_R   0.843089 0.462261 0.627181 -0.120625
C171  C     C_R   0.870193 0.432145 0.643146 -0.108052
C172  C     C_R   0.910957 0.441208 0.657187 -0.160517
H70   H     H_    0.906465 0.541162 0.644598 0.129347
H71   H     H_    0.835485 0.524911 0.614552 0.151626
H72   H     H_    0.811573 0.455190 0.616097 0.149005
H73   H     H_    0.859611 0.401793 0.644715 0.188162
H74   H     H_    0.931402 0.417740 0.670896 0.137500
C173  C     C_R   0.925174 0.479716 0.345581 0.161370
C174  C     C_R   0.896564 0.509172 0.359611 -0.112010
C175  C     C_R   0.856245 0.499127 0.375650 -0.160443
C176  C     C_R   0.843760 0.459557 0.375271 -0.130868
C177  C     C_R   0.871706 0.430005 0.359399 -0.113187
C178  C     C_R   0.912236 0.439995 0.344433 -0.145003
H75   H     H_    0.905033 0.539834 0.355129 0.128558
H76   H     H_    0.834396 0.522092 0.386712 0.156133
H77   H     H_    0.812423 0.451790 0.387039 0.140332
H78   H     H_    0.861954 0.399377 0.358668 0.172975
H79   H     H_    0.933365 0.416953 0.330852 0.139628
C179  C     C_R   0.074810 0.520347 0.654430 0.161412
C180  C     C_R   0.087712 0.560078 0.655573 -0.145031
C181  C     C_R   0.128235 0.570100 0.640618 -0.113145
C182  C     C_R   0.156211 0.540569 0.624768 -0.130743
C183  C     C_R   0.143761 0.500989 0.624395 -0.160511
C184  C     C_R   0.103448 0.490913 0.640419 -0.112110
H80   H     H_    0.066560 0.583105 0.669140 0.139627
H81   H     H_    0.137960 0.600736 0.641343 0.173054
H82   H     H_    0.187544 0.548360 0.613011 0.140324
H83   H     H_    0.165633 0.478040 0.613350 0.156017
H84   H     H_    0.095005 0.460246 0.644912 0.128497
C185  C     C_R   0.575126 0.017949 0.342118 0.170450
C186  C     C_R   0.606318 0.989753 0.346922 -0.159064
C187  C     C_R   0.646708 0.001449 0.359051 -0.174860
C188  C     C_R   0.656505 0.041581 0.363649 -0.103695
C189  C     C_R   0.625957 0.070022 0.355871 -0.113296
C190  C     C_R   0.585470 0.058314 0.344786 -0.143016
H85   H     H_    0.599500 0.958894 0.338645 0.140558
H86   H     H_    0.670600 0.979457 0.363256 0.143483
H87   H     H_    0.687823 0.050666 0.372459 0.151100
H88   H     H_    0.633648 0.101134 0.358303 0.183980
H89   H     H_    0.562287 0.080628 0.337126 0.133776
C191  C     C_R   0.424859 0.982107 0.657908 0.170393
C192  C     C_R   0.393672 0.010319 0.653249 -0.159331
C193  C     C_R   0.353278 0.998659 0.641082 -0.174250
C194  C     C_R   0.343464 0.958537 0.636355 -0.103902
C195  C     C_R   0.374001 0.930073 0.644047 -0.113541
C196  C     C_R   0.414498 0.941751 0.655139 -0.142770
H90   H     H_    0.400499 0.041154 0.661692 0.140282
H91   H     H_    0.329394 0.020667 0.636968 0.143587
H92   H     H_    0.312141 0.949476 0.627529 0.151050
H93   H     H_    0.366296 0.898968 0.641534 0.184067
H94   H     H_    0.437674 0.919418 0.662719 0.133792
C197  C     C_R   0.422885 0.991737 0.348545 0.156583
C198  C     C_R   0.401032 0.026573 0.360741 -0.107229
C199  C     C_R   0.360225 0.024751 0.380611 -0.141876
C200  C     C_R   0.340211 0.988245 0.385164 -0.137033
C201  C     C_R   0.360957 0.953589 0.369633 -0.134568
C202  C     C_R   0.402118 0.955261 0.351353 -0.136968
H95   H     H_    0.415488 0.055149 0.354174 0.140292
H96   H     H_    0.343887 0.051697 0.391266 0.168778
H97   H     H_    0.308478 0.986844 0.399910 0.145318
H98   H     H_    0.345184 0.925389 0.371945 0.162960
H99   H     H_    0.417704 0.928252 0.338705 0.146471
C203  C     C_R   0.577126 0.008172 0.651429 0.156566
C204  C     C_R   0.597937 0.044623 0.648582 -0.136935
C205  C     C_R   0.639095 0.046242 0.630281 -0.134777
C206  C     C_R   0.659797 0.011557 0.614770 -0.137022
C207  C     C_R   0.639741 0.975075 0.619369 -0.141772
C208  C     C_R   0.598937 0.973305 0.639261 -0.107221
H100  H     H_    0.582386 0.071654 0.661212 0.146489
H101  H     H_    0.654903 0.074423 0.627937 0.162883
H102  H     H_    0.691528 0.012917 0.600006 0.145352
H103  H     H_    0.656044 0.948107 0.608727 0.168956
H104  H     H_    0.584445 0.944745 0.645843 0.140489

loop_
_geom_bond_atom_site_label_1
_geom_bond_atom_site_label_2
_ccdc_geom_bond_type
C34   C42   A    
C73   C93   A    
C75   C95   A    
C114  N6    A    
C189  C190  A    
Cu3   O14   S    
C179  C184  A    
C193  H91   S    
Cu1   O6    S    
C69   C89   A    
C103  H63   S    
C63   N13   A    
C153  H9    S    
C30   C38   A    
C101  H61   S    
C148  C160  A    
C66   O38   S    
C149  C153  A    
C91   H51   S    
C176  C177  A    
C190  H89   S    
C152  C156  A    
C8    C203  S    
C95   H55   S    
C168  H70   S    
C5    N3    A    
C208  H104  S    
C151  C155  A    
C112  O24   S    
C61   C71   A    
C117  N9    A    
C83   O5    A    
C1    C161  S    
C104  H64   S    
C61   N13   A    
C5    C101  A    
C115  C123  A    
C186  C187  A    
C58   C100  A    
C191  C192  A    
C67   O39   S    
C16   H24   S    
C121  C129  A    
C82   O2    A    
C197  C202  A    
C7    N3    A    
C20   C28   A    
C27   C35   A    
C96   H56   S    
C21   C29   A    
C23   C31   A    
C50   N5    S    
C24   C32   A    
C57   N14   S    
C145  C157  A    
C201  C202  A    
C175  H76   S    
C32   C86   S    
C198  C199  A    
C12   C20   A    
C13   C21   A    
C8    C104  A    
C147  H3    S    
C162  H65   S    
C167  C168  A    
C131  C136  A    
C10   H18   S    
C36   C44   A    
C169  C170  A    
C37   C45   A    
C130  C138  A    
C4    C179  S    
C90   H50   S    
C171  C172  A    
C39   C47   A    
C40   C48   A    
C195  H93   S    
C18   H26   S    
C60   N15   S    
C177  H78   S    
Cu1   O8    S    
C17   C25   A    
C158  H14   S    
C111  O23   S    
C206  C207  A    
C76   C96   A    
C150  H6    S    
C10   C18   A    
Cu3   O16   S    
C108  O20   S    
C122  C146  A    
Cu2   N1    S    
C6    C191  S    
C174  H75   S    
C129  C137  A    
C126  C134  A    
C182  C183  A    
C38   H38   S    
C25   C83   S    
C75   C79   A    
C207  H103  S    
C19   H27   S    
C171  H73   S    
C31   C85   S    
C47   H47   S    
C204  H100  S    
C69   C77   A    
C197  C198  A    
C58   C98   A    
C87   O13   A    
C35   H35   S    
C143  C160  A    
C63   O35   S    
C202  H99   S    
Cu2   O7    S    
C149  H5    S    
C172  H74   S    
C113  O25   S    
C63   C69   A    
C152  H8    S    
C115  O27   S    
C203  C204  A    
C68   C74   A    
C57   C99   A    
C106  O18   S    
C151  H7    S    
C205  C206  A    
C124  C132  A    
C93   H53   S    
C173  C178  A    
C196  H94   S    
C160  H16   S    
C72   C78   A    
C88   O15   A    
C127  C151  A    
C128  C152  A    
C40   H40   S    
C112  N12   A    
C92   H52   S    
C35   C43   A    
C187  H86   S    
C111  C143  A    
C44   C52   A    
C135  C143  A    
C45   C53   A    
C7    C103  A    
Cu4   O13   S    
C84   O7    A    
C60   C102  A    
C120  O32   S    
C99   H59   S    
C154  H10   S    
C28   C82   S    
C48   H48   S    
C9    C49   A    
C188  C189  A    
C109  O21   S    
Cu3   N4    S    
C45   H45   S    
C180  C181  A    
C59   N16   S    
C15   C55   A    
C205  H101  S    
C16   C56   A    
Cu1   O1    S    
C49   N6    S    
C34   H34   S    
C185  C190  A    
C165  C166  A    
C73   C79   A    
Cu3   O11   S    
C42   C50   A    
C186  H85   S    
C191  C196  A    
C71   C77   A    
C26   C84   S    
C106  N6    A    
C61   O33   S    
Cu4   O10   S    
C76   C80   A    
C188  H87   S    
C110  N10   A    
C146  C158  A    
C86   O10   A    
C59   C103  A    
C14   C22   A    
C126  C150  A    
C119  N11   A    
C64   O36   S    
C98   H58   S    
C169  H71   S    
C107  C139  A    
C29   C87   S    
C131  C139  A    
C2    N2    A    
C105  C137  A    
C3    C99   A    
C113  C121  A    
C195  C196  A    
C200  C201  A    
Cu4   O15   S    
C23   H31   S    
C163  H66   S    
C109  C141  A    
C21   H29   S    
C60   C104  A    
C117  C125  A    
C25   C33   A    
C68   O40   S    
C119  C127  A    
C108  N8    A    
C39   H39   S    
C83   O8    A    
C74   C94   A    
C18   C26   A    
C118  O30   S    
C194  C195  A    
C3    N1    A    
C115  N7    A    
Cu1   Cu2   S    
C145  H1    S    
C77   C78   A    
C113  N5    A    
C124  C148  A    
C11   C19   A    
C127  C135  A    
Cu1   O3    S    
Cu2   O5    S    
C6    N4    A    
C128  C136  A    
C199  C200  A    
C72   C92   A    
C64   N14   A    
C24   H32   S    
C182  H82   S    
C102  H62   S    
C168  C169  A    
C41   C49   A    
Cu3   O9    S    
C207  C208  A    
C204  C205  A    
C67   C73   A    
C55   N12   S    
C7    C197  S    
C88   O14   A    
C203  C208  A    
C118  N10   A    
C183  C184  A    
C74   C80   A    
C5    C185  S    
C81   O4    A    
Cu4   O12   S    
C114  O26   S    
C12   C52   A    
C13   C53   A    
C176  H77   S    
C84   O6    A    
C173  C174  A    
C59   C101  A    
C2    C167  S    
C13   H21   S    
C67   N15   A    
C192  C193  A    
C43   H43   S    
C51   N8    S    
C170  C171  A    
C161  C162  A    
C134  C142  A    
C163  C164  A    
C46   C54   A    
C181  H81   S    
C144  C159  A    
C120  N12   A    
C138  C153  A    
C117  O29   S    
C148  H4    S    
C130  C133  A    
C142  C157  A    
C30   C88   S    
C10   C50   A    
C110  O22   S    
C89   H49   S    
C155  H11   S    
C180  H80   S    
C156  H12   S    
C85   O12   A    
C116  C124  A    
C123  C131  A    
C193  C194  A    
C36   H36   S    
C54   N9    S    
C159  H15   S    
C87   O16   A    
C20   H28   S    
C192  H90   S    
C120  C128  A    
C132  C140  A    
C133  C141  A    
C165  H68   S    
C33   C41   A    
C136  C144  A    
C46   H46   S    
C164  C165  A    
C43   C51   A    
C90   C91   A    
C12   H20   S    
C66   N16   A    
C189  H88   S    
C137  C154  A    
C42   H42   S    
Cu2   O4    S    
C94   C95   A    
C140  C155  A    
C119  O31   S    
C129  C134  A    
C141  C158  A    
C71   C91   A    
C28   C36   A    
C29   C37   A    
C37   H37   S    
C65   O37   S    
C116  O28   S    
C52   N7    S    
C177  C178  A    
C70   C78   A    
C185  C186  A    
C56   N11   S    
Cu3   Cu4   S    
C44   H44   S    
C187  C188  A    
C147  C159  A    
C9    H17   S    
C175  C176  A    
C65   N15   A    
C82   O3    A    
Cu4   N3    S    
C162  C163  A    
C14   H22   S    
C106  C138  A    
C100  H60   S    
C200  H97   S    
C94   H54   S    
C184  H84   S    
C110  C142  A    
C26   C34   A    
C31   C39   A    
C64   C70   A    
Cu1   N2    S    
C19   C27   A    
C199  H96   S    
C15   C23   A    
C201  H98   S    
C146  H2    S    
C57   C97   A    
C16   C24   A    
C198  H95   S    
C6    C102  A    
C116  N8    A    
C70   C90   A    
C62   N14   A    
C167  C172  A    
C38   C46   A    
C166  H69   S    
C81   O1    A    
C27   C81   S    
C11   H19   S    
C1    C97   A    
C108  C140  A    
C17   H25   S    
C86   O11   A    
C164  H67   S    
C15   H23   S    
C161  C166  A    
C111  N11   A    
C4    N2    A    
Cu2   O2    S    
C58   N13   S    
C179  C180  A    
C183  H83   S    
C33   H33   S    
C62   C72   A    
C157  H13   S    
C89   C92   A    
C125  C149  A    
C206  H102  S    
C9    C17   A    
C14   C54   A    
C123  C147  A    
C93   C96   A    
C4    C100  A    
C121  C145  A    
C174  C175  A    
C47   C55   A    
C170  H72   S    
C125  C133  A    
C48   C56   A    
C107  N7    A    
C105  N5    A    
C53   N10   S    
C109  N9    A    
C118  C126  A    
C85   O9    A    
C65   C75   A    
C181  C182  A    
C112  C144  A    
C22   C30   A    
C8    N4    A    
C139  C156  A    
C68   N16   A    
C132  C135  A    
C97   H57   S    
C32   C40   A    
C41   H41   S    
C11   C51   A    
C79   C80   A    
C114  C122  A    
C1    N1    A    
C2    C98   A    
C105  O17   S    
C150  C154  A    
C3    C173  S    
C178  H79   S    
C22   H30   S    
C107  O19   S    
C62   O34   S    
C194  H92   S    
C122  C130  A    
C66   C76   A    
