data_mof_unit_63522.cif
_audit_creation_date              2012-12-10T17:00:50-0500
_audit_creation_method            fapswitch 2.2
_symmetry_space_group_name_H-M    P1
_symmetry_Int_Tables_number       1
_space_group_crystal_system       triclinic
_cell_length_a                    10.399842
_cell_length_b                    10.725442
_cell_length_c                    10.056383
_cell_angle_alpha                 90.516469
_cell_angle_beta                  101.368363
_cell_angle_gamma                 90.145686
_cell_volume                      1099.65486909

loop_
_atom_site_label
_atom_site_type_symbol
_atom_type_description
_atom_site_fract_x
_atom_site_fract_y
_atom_site_fract_z
_atom_type_partial_charge
Br1   Br    Br    0.830685 0.751404 0.424868 -0.321766
Br2   Br    Br    0.433461 0.345363 0.894450 -0.340755
Br3   Br    Br    0.004633 0.414667 0.300515 -0.398644
Br4   Br    Br    0.499409 0.882872 0.213008 -0.353321
Br5   Br    Br    0.680431 0.698608 0.893056 -0.344702
C1    C     C_R   0.501529 0.262793 0.499314 0.826881
C2    C     C_2   0.116775 0.524576 0.424256 0.027780
C3    C     C_2   0.071565 0.611038 0.502110 0.336904
C4    C     C_2   0.883398 0.523749 0.577222 -0.364472
C5    C     C_2   0.932597 0.613497 0.509015 0.249392
C6    C     C_2   0.449443 0.935562 0.380128 0.123342
C7    C     C_2   0.444298 0.865655 0.489827 0.281405
C8    C     C_2   0.432117 0.068884 0.392132 0.428506
C9    C     C_2   0.509850 0.130023 0.495152 0.302417
C10   C     C_2   0.581242 0.562968 0.945599 0.200651
C11   C     C_2   0.599345 0.534709 0.095094 0.502235
C12   C     C_R   0.257176 0.503915 0.446045 0.932251
C13   C     C_R   0.487807 0.737107 0.497745 0.876486
C14   C     C_R   0.742789 0.504347 0.554170 0.964396
H1    H     H_    0.409775 0.509962 0.087509 0.169823
H2    H     H_    0.947151 0.455753 0.636468 0.153075
H3    H     H_    0.785951 0.566104 0.122783 0.369334
H4    H     H_    0.106917 0.749570 0.629756 0.372128
H5    H     H_    0.386847 0.855456 0.664597 0.391399
H6    H     H_    0.290742 0.069315 0.234024 0.374895
H7    H     H_    0.655236 0.130458 0.650562 0.357621
N1    N     N_2   0.501330 0.501330 0.852460 -0.037570
N2    N     N_2   0.501370 0.501360 0.148130 -0.165677
O1    O     O_R   0.499980 0.319060 0.613030 -0.581050
O2    O     O_3   0.157378 0.695567 0.578123 -0.757073
O3    O     O_3   0.392957 0.918544 0.594893 -0.702579
O4    O     O_3   0.340104 0.131519 0.298074 -0.724323
O5    O     O_3   0.604581 0.068286 0.587421 -0.719867
O6    O     O_R   0.500020 0.319100 0.386910 -0.561965
O7    O     O_R   0.317800 0.500000 0.570840 -0.566798
O8    O     O_R   0.317840 0.500040 0.344720 -0.592986
O9    O     O_R   0.499980 0.680900 0.613090 -0.581333
O10   O     O_R   0.500020 0.680940 0.386970 -0.581744
O11   O     O_R   0.682160 0.499960 0.655280 -0.587315
O12   O     O_R   0.682200 0.500000 0.429160 -0.516794
O13   O     O_3   0.719877 0.550432 0.179373 -0.651558
Zn1   Zn    Zn3+2 0.499970 0.499970 0.650990 1.096219
Zn2   Zn    Zn3+2 0.500030 0.500030 0.349010 1.115151

loop_
_geom_bond_atom_site_label_1
_geom_bond_atom_site_label_2
_ccdc_geom_bond_type
C11   N2    D    
C6    C7    D    
Br2   N1    S    
C12   O8    A    
O1    Zn1   S    
C1    C9    S    
N2    Zn2   S    
C12   O7    A    
C4    C5    D    
C8    O4    S    
C10   N1    D    
C3    O2    S    
H6    O4    S    
C13   O10   A    
H5    O3    S    
C2    C3    D    
C8    C9    D    
Br4   C6    S    
C6    C8    S    
N1    Zn1   S    
C4    H2    S    
C14   O11   A    
C9    O5    S    
C13   O9    A    
O11   Zn1   S    
Br3   C2    S    
C7    O3    S    
Br5   C10   S    
H3    O13   S    
C14   O12   A    
O6    Zn2   S    
C10   C11   S    
H4    O2    S    
O10   Zn2   S    
C1    O1    A    
C3    C5    S    
C7    C13   S    
O9    Zn1   S    
O7    Zn1   S    
O8    Zn2   S    
H1    N2    S    
C11   O13   S    
C4    C14   S    
O12   Zn2   S    
Br1   C5    S    
C1    O6    A    
H7    O5    S    
C2    C12   S    
