data_mof_unit_48207.cif
_audit_creation_date              2013-03-05T15:47:46-0500
_audit_creation_method            fapswitch 2.2
_symmetry_space_group_name_H-M    P1
_symmetry_Int_Tables_number       1
_space_group_crystal_system       triclinic
_cell_length_a                    21.633121
_cell_length_b                    7.21065
_cell_length_c                    18.602274
_cell_angle_alpha                 90.010318
_cell_angle_beta                  96.00635
_cell_angle_gamma                 90.015851
_cell_volume                      2885.81770319

loop_
_atom_site_label
_atom_site_type_symbol
_atom_site_description
_atom_site_fract_x
_atom_site_fract_y
_atom_site_fract_z
_atom_type_partial_charge
O1    O     O_R   0.449650 0.506500 0.414480 -0.563156
O2    O     O_R   0.550350 0.006500 0.585520 -0.562735
O3    O     O_R   0.432010 0.173150 0.560250 -0.559130
O4    O     O_R   0.567990 0.673150 0.439750 -0.558810
C1    C     C_R   0.416455 0.344218 0.581505 0.965888
C2    C     C_R   0.583557 0.844231 0.418512 0.965088
O5    O     O_R   0.442320 0.176650 0.413480 -0.592564
O6    O     O_R   0.557680 0.676650 0.586520 -0.592544
O7    O     O_R   0.560730 0.008380 0.437700 -0.580729
O8    O     O_R   0.439270 0.508380 0.562300 -0.581064
C3    C     C_R   0.428492 0.344951 0.387580 0.971221
C4    C     C_R   0.571502 0.845002 0.612420 0.971319
O9    O     O_3   0.538840 0.339860 0.508120 -0.281498
O10   O     O_3   0.461160 0.839860 0.491880 -0.282110
V1    V     V_3+5 0.492800 0.064220 0.498490 1.245936
V2    V     V_3+5 0.507200 0.564220 0.501510 1.245978
C5    C     C_R   0.871883 0.991575 0.689745 0.484796
C6    C     C_R   0.128207 0.492738 0.310204 0.484745
H1    H     H_    0.959526 0.017326 0.754714 0.158006
H2    H     H_    0.040574 0.518559 0.245237 0.158080
H3    H     H_    0.786826 0.993193 0.572810 0.187707
H4    H     H_    0.213289 0.494726 0.427114 0.187632
C7    C     C_R   0.886670 0.943137 0.819344 -0.162360
C8    C     C_R   0.113347 0.443354 0.180653 -0.162432
C9    C     C_R   0.586513 0.807680 0.744412 -0.189828
C10   C     C_R   0.413425 0.306891 0.255615 -0.190003
C11   C     C_R   0.622540 0.802342 0.811366 0.398796
C12   C     C_R   0.377377 0.301248 0.188676 0.399031
C13   C     C_R   0.686615 0.837766 0.814697 -0.308015
C14   C     C_R   0.313328 0.336965 0.185335 -0.308099
C15   C     C_R   0.715882 0.878997 0.751967 0.086392
C16   C     C_R   0.284106 0.378800 0.248039 0.086398
C17   C     C_R   0.677811 0.886616 0.684315 0.104998
C18   C     C_R   0.322199 0.386725 0.315673 0.105183
C19   C     C_R   0.781677 0.912447 0.754279 0.086798
C20   C     C_R   0.218332 0.412564 0.245716 0.086786
C21   C     C_R   0.807473 0.955204 0.688750 0.004102
C22   C     C_R   0.192586 0.455981 0.311214 0.004209
C23   C     C_R   0.768633 0.961677 0.623413 -0.128461
C24   C     C_R   0.231446 0.462726 0.376534 -0.128566
C25   C     C_R   0.705294 0.927683 0.621195 -0.213940
C26   C     C_R   0.294759 0.428393 0.378765 -0.214147
C27   C     C_R   0.822932 0.905634 0.819286 -0.226815
C28   C     C_R   0.177055 0.405452 0.180728 -0.226834
C29   C     C_R   0.910464 0.986595 0.754658 -0.239245
C30   C     C_R   0.089608 0.487496 0.245306 -0.239060
C31   C     C_R   0.612942 0.850491 0.681088 -0.232736
C32   C     C_R   0.387042 0.350282 0.318914 -0.232996
H5    H     H_    0.807230 0.874433 0.870990 0.118668
H6    H     H_    0.192718 0.373741 0.129049 0.118673
H7    H     H_    0.537210 0.777716 0.741248 0.202954
H8    H     H_    0.462708 0.276705 0.258788 0.202791
H9    H     H_    0.712459 0.831952 0.867224 0.171664
H10   H     H_    0.287467 0.330904 0.132821 0.171622
H11   H     H_    0.677863 0.934206 0.569107 0.099605
H12   H     H_    0.322205 0.435147 0.430840 0.099708
C33   C     C_R   0.639481 0.713144 0.315989 0.320668
C34   C     C_R   0.360699 0.213351 0.684237 0.320214
C35   C     C_R   0.632582 0.854179 0.367804 -0.304804
C36   C     C_R   0.367475 0.354150 0.632278 -0.304675
C37   C     C_R   0.672341 0.009145 0.370666 -0.188181
C38   C     C_R   0.327641 0.508901 0.629317 -0.188134
C39   C     C_R   0.717920 0.027465 0.322795 0.156776
C40   C     C_R   0.282032 0.527175 0.677145 0.157227
C41   C     C_R   0.725857 0.885554 0.272433 0.000061
C42   C     C_R   0.274228 0.385572 0.727687 -0.000331
C43   C     C_R   0.687182 0.726670 0.269365 -0.033732
C44   C     C_R   0.313052 0.226995 0.730957 -0.033581
C45   C     C_R   0.755549 0.186537 0.324217 -0.138288
C46   C     C_R   0.244243 0.685941 0.675501 -0.137525
C47   C     C_R   0.800575 0.205766 0.275911 -0.208506
C48   C     C_R   0.199164 0.705150 0.723738 -0.207639
C49   C     C_R   0.809373 0.065357 0.225771 0.143165
C50   C     C_R   0.190503 0.565060 0.774071 0.142965
C51   C     C_R   0.772108 0.904074 0.224277 0.072090
C52   C     C_R   0.227971 0.404150 0.775839 0.071519
C53   C     C_R   0.780937 0.761576 0.174500 0.151308
C54   C     C_R   0.219344 0.262109 0.825898 0.151271
C55   C     C_R   0.742894 0.603994 0.172057 -0.203617
C56   C     C_R   0.257602 0.104980 0.828642 -0.203198
C57   C     C_R   0.696178 0.587573 0.218188 -0.092597
C58   C     C_R   0.304284 0.088467 0.782476 -0.091725
C59   C     C_R   0.855007 0.082802 0.177480 -0.220123
C60   C     C_R   0.144812 0.582464 0.822291 -0.219828
C61   C     C_R   0.865003 0.938898 0.128854 -0.142410
C62   C     C_R   0.135028 0.438983 0.871200 -0.142489
C63   C     C_R   0.827571 0.778885 0.127843 -0.225636
C64   C     C_R   0.172711 0.279452 0.872556 -0.225514
H13   H     H_    0.667599 0.116987 0.410342 0.171027
H14   H     H_    0.332334 0.616615 0.589577 0.170077
H15   H     H_    0.749774 0.297212 0.362360 0.150699
H16   H     H_    0.249905 0.796352 0.637197 0.150216
H17   H     H_    0.828627 0.330546 0.277892 0.152150
H18   H     H_    0.170957 0.829649 0.721547 0.152031
H19   H     H_    0.883761 0.206200 0.179024 0.140099
H20   H     H_    0.115852 0.705473 0.820484 0.140033
H21   H     H_    0.834369 0.667875 0.090138 0.145201
H22   H     H_    0.166095 0.168856 0.910523 0.145025
H23   H     H_    0.748972 0.493372 0.133980 0.152049
H24   H     H_    0.251738 0.994822 0.867010 0.152243
H25   H     H_    0.667447 0.464534 0.213413 0.193591
H26   H     H_    0.333211 0.965874 0.787586 0.194313
O11   O     O_R   0.060820 0.290050 0.937800 -0.593888
O12   O     O_R   0.939180 0.790050 0.062200 -0.593963
O13   O     O_R   0.057690 0.616620 0.086540 -0.582179
O14   O     O_R   0.942310 0.116620 0.913460 -0.582123
C65   C     C_R   0.071565 0.448870 0.112537 0.941679
C66   C     C_R   0.928441 0.948817 0.887463 0.941743
O15   O     O_R   0.068010 0.619890 0.939770 -0.593596
O16   O     O_R   0.931990 0.119890 0.060230 -0.593671
O17   O     O_R   0.949640 0.787940 0.914460 -0.582269
O18   O     O_R   0.050360 0.287940 0.085540 -0.582252
C67   C     C_R   0.084538 0.451099 0.919433 0.935956
C68   C     C_R   0.915467 0.951080 0.080577 0.936022
O19   O     O_3   0.961210 0.453080 0.991940 -0.283877
O20   O     O_3   0.038790 0.953080 0.008060 -0.283852
V3    V     V_3+5 0.007200 0.728820 0.001500 1.171448
V4    V     V_3+5 0.992800 0.228820 0.998500 1.171394
Cl1   Cl    Cl    0.906870 0.046786 0.610916 -0.605559
Cl2   Cl    Cl    0.093285 0.548807 0.388990 -0.605644
N1    N     N_R   0.594061 0.759690 0.876099 0.255802
O21   O     O_R   0.627206 0.752175 0.938604 -0.360164
O22   O     O_R   0.534590 0.728290 0.873202 -0.318718
N2    N     N_R   0.405808 0.257971 0.123971 0.255800
O23   O     O_R   0.372642 0.250147 0.061483 -0.360518
O24   O     O_R   0.465255 0.226292 0.126878 -0.318607
N3    N     N_R   0.595385 0.564233 0.307142 0.235748
O25   O     O_R   0.537410 0.598953 0.285544 -0.386373
O26   O     O_R   0.612270 0.395759 0.324568 -0.433786
N4    N     N_R   0.404860 0.064640 0.693098 0.235810
O27   O     O_R   0.387758 0.895388 0.677062 -0.433733
O28   O     O_R   0.463039 0.100065 0.713479 -0.387012

loop_
_geom_bond_atom_site_label_1
_geom_bond_atom_site_label_2
_geom_bond_distance
_ccdc_geom_bond_type
C42   C44   1.416485 A    
C39   C41   1.409843 A    
C7    C29   1.393120 A    
C11   C13   1.404376 A    
C65   O18   1.326828 A    
O1    C3    1.329811 A    
O2    C4    1.329827 A    
O16   V4    1.995505 S    
C2    O7    1.345093 A    
N3    O26   1.299944 A    
C11   N1    1.442042 S    
O15   V3    1.995628 S    
C23   C25   1.388259 A    
C57   H25   1.081402 S    
O5    C3    1.328383 A    
O13   C65   1.325559 A    
C50   C52   1.413942 A    
C62   C67   1.486887 S    
C16   C20   1.439807 A    
C55   H23   1.083793 S    
C61   C68   1.487003 S    
C19   C21   1.426470 A    
C60   C62   1.408353 A    
N2    O24   1.301758 A    
C54   C56   1.401073 A    
C33   C35   1.419631 A    
C54   C64   1.403544 A    
C7    C27   1.404940 A    
O20   V3    1.754611 S    
C36   C38   1.407617 A    
C60   H20   1.084558 S    
C45   C47   1.399505 A    
C25   H11   1.083027 S    
C38   C40   1.402221 A    
C26   H12   1.083017 S    
C12   N2    1.442001 S    
C39   C45   1.404977 A    
C41   C43   1.416065 A    
C18   C26   1.402101 A    
C15   C17   1.431159 A    
C40   C46   1.405386 A    
C19   C27   1.426694 A    
C9    C31   1.396722 A    
O15   C67   1.334416 A    
C48   H18   1.083980 S    
C61   C63   1.408414 A    
H4    C24   1.081724 S    
O6    V2    1.997043 S    
C22   C24   1.404182 A    
O14   V4    1.996879 S    
C49   C51   1.413474 A    
O13   V3    1.997355 S    
C3    C32   1.482381 S    
C33   C43   1.419103 A    
C4    C31   1.482310 S    
C6    C30   1.394673 A    
C37   H13   1.084263 S    
C53   C55   1.400753 A    
C35   C37   1.407505 A    
C52   C54   1.409815 A    
C17   C25   1.402139 A    
C48   C50   1.403245 A    
C55   C57   1.397577 A    
C27   H5    1.076787 S    
O5    V1    1.997519 S    
C5    C29   1.394681 A    
C13   H9    1.074614 S    
C40   C42   1.410133 A    
O4    V2    1.995551 S    
N4    O28   1.301138 A    
C9    H7    1.083727 S    
C10   H8    1.083727 S    
O18   V4    1.982778 S    
C14   H10   1.074608 S    
H3    C23   1.081748 S    
C64   H22   1.084694 S    
O6    C4    1.328386 A    
O19   V4    1.755000 S    
C59   H19   1.084166 S    
C37   C39   1.402289 A    
C58   H26   1.081635 S    
C8    C65   1.477999 S    
C5    C21   1.415992 A    
O2    V1    1.980642 S    
C51   C53   1.409404 A    
N1    O21   1.301747 A    
O12   C68   1.328586 A    
O4    C2    1.348718 A    
C59   C61   1.407982 A    
C43   C57   1.410224 A    
C17   C31   1.422282 A    
C15   C19   1.439788 A    
C20   C28   1.426730 A    
O11   V4    1.995680 S    
C18   C32   1.422309 A    
N3    O25   1.300701 A    
C6    Cl2   1.764611 S    
O3    V1    1.995675 S    
C47   C49   1.402913 A    
O12   V3    1.995770 S    
C28   H6    1.076768 S    
O16   C68   1.334508 A    
C1    C36   1.493101 S    
O11   C67   1.328553 A    
C2    C35   1.493032 S    
C46   H16   1.083954 S    
C50   C60   1.408179 A    
O3    C1    1.348716 A    
C33   N3    1.434057 S    
H1    C29   1.084086 S    
C47   H17   1.083595 S    
C10   C32   1.396701 A    
C9    C11   1.398952 A    
O1    V2    1.980375 S    
C10   C12   1.398953 A    
C41   C51   1.417388 A    
C66   O17   1.326836 A    
O17   V3    1.983051 S    
C44   C58   1.410850 A    
C12   C14   1.404368 A    
N4    O27   1.300693 A    
C6    C22   1.415983 A    
C8    C30   1.393101 A    
C1    O8    1.345044 A    
C13   C15   1.416200 A    
O8    V2    1.986974 S    
C20   C22   1.426433 A    
C14   C16   1.416154 A    
C34   C44   1.419492 A    
O14   C66   1.325571 A    
C34   N4    1.434348 S    
C8    C28   1.404971 A    
C7    C66   1.477926 S    
C38   H14   1.084396 S    
C24   C26   1.388260 A    
C56   C58   1.397535 A    
C62   C64   1.408779 A    
O7    V1    1.987055 S    
H2    C30   1.084080 S    
N1    O22   1.301796 A    
C5    Cl1   1.764648 S    
C53   C63   1.403508 A    
C21   C23   1.404181 A    
O9    V2    1.756106 S    
O10   V1    1.755716 S    
C46   C48   1.399479 A    
C45   H15   1.083671 S    
C34   C36   1.420000 A    
C49   C59   1.408157 A    
C56   H24   1.084211 S    
C42   C52   1.417496 A    
C16   C18   1.431182 A    
N2    O23   1.301759 A    
C63   H21   1.084333 S    
