data_mof_unit_31961.cif
_audit_creation_date              2013-03-05T16:54:57-0500
_audit_creation_method            fapswitch 2.2
_symmetry_space_group_name_H-M    P1
_symmetry_Int_Tables_number       1
_space_group_crystal_system       triclinic
_cell_length_a                    17.560116
_cell_length_b                    16.688825
_cell_length_c                    10.326652
_cell_angle_alpha                 90.627546
_cell_angle_beta                  88.348794
_cell_angle_gamma                 89.884845
_cell_volume                      3024.85864573

loop_
_atom_site_label
_atom_site_type_symbol
_atom_site_description
_atom_site_fract_x
_atom_site_fract_y
_atom_site_fract_z
_atom_type_partial_charge
O1    O     O_R   0.389110 0.566570 0.499990 -0.609745
O2    O     O_R   0.610890 0.433430 0.500010 -0.596347
O3    O     O_R   0.610890 0.566570 0.500010 -0.575258
O4    O     O_R   0.389110 0.433430 0.499990 -0.591175
C1    C     C_R   0.353221 0.500038 0.496285 0.978817
C2    C     C_R   0.646969 0.499943 0.500592 0.947583
O5    O     O_R   0.499990 0.566540 0.316770 -0.617441
O6    O     O_R   0.500010 0.433460 0.683230 -0.621333
O7    O     O_R   0.500010 0.566540 0.683230 -0.636009
O8    O     O_R   0.499990 0.433460 0.316770 -0.620877
C3    C     C_R   0.515705 0.499382 0.258962 0.942055
C4    C     C_R   0.484687 0.500533 0.741266 0.959169
Zn1   Zn    Zn3+2 0.500000 0.588860 0.500000 1.020568
Zn2   Zn    Zn3+2 0.500000 0.411140 0.500000 1.047890
H1    H     H_    0.536338 0.221136 0.070418 0.211296
H2    H     H_    0.461842 0.778673 0.932103 0.213793
H3    H     H_    0.429268 0.228336 0.926638 0.214283
H4    H     H_    0.569202 0.772098 0.074841 0.186115
C5    C     C_R   0.565622 0.643558 0.094327 0.449200
C6    C     C_R   0.433483 0.356908 0.907646 0.489088
C7    C     C_R   0.450153 0.650398 0.911652 0.428590
C8    C     C_R   0.549803 0.349347 0.087827 0.491492
C9    C     C_R   0.542385 0.716851 0.044672 -0.311131
C10   C     C_R   0.456659 0.283362 0.956425 -0.295446
C11   C     C_R   0.482989 0.720465 0.959461 -0.292732
C12   C     C_R   0.516150 0.279400 0.041272 -0.319111
C13   C     C_R   0.479714 0.574658 0.948603 -0.116680
C14   C     C_R   0.520552 0.425299 0.051314 -0.124470
C15   C     C_R   0.528980 0.571645 0.053695 -0.112392
C16   C     C_R   0.471019 0.428465 0.946850 -0.136031
C17   C     C_R   0.465349 0.502084 0.881532 -0.015492
C18   C     C_R   0.534834 0.497857 0.118683 -0.020636
C19   C     C_R   0.847985 0.574434 0.482002 -0.029563
C20   C     C_R   0.151618 0.428511 0.483333 -0.035591
C21   C     C_R   0.157070 0.570402 0.420133 -0.019462
C22   C     C_R   0.846864 0.429670 0.432387 -0.040993
C23   C     C_R   0.769161 0.572246 0.500355 -0.129665
C24   C     C_R   0.230076 0.429542 0.498629 -0.219031
C25   C     C_R   0.234950 0.570127 0.442273 -0.172168
C26   C     C_R   0.768533 0.429167 0.457321 -0.202037
H5    H     H_    0.738543 0.626943 0.525709 0.200115
H6    H     H_    0.258786 0.375542 0.528323 0.228434
H7    H     H_    0.267868 0.624080 0.425260 0.188946
H8    H     H_    0.737382 0.373657 0.447074 0.228324
C27   C     C_R   0.729627 0.500079 0.489037 -0.059439
C28   C     C_R   0.271307 0.500184 0.481051 -0.069339
C29   C     C_R   0.886649 0.502618 0.447034 -0.026288
C30   C     C_R   0.115287 0.499418 0.443292 -0.031039
C31   C     C_1   0.967235 0.502231 0.436850 0.178341
C32   C     C_1   0.034907 0.500951 0.435778 0.174233
C33   C     C_R   0.459909 0.831810 0.407321 -0.256509
C34   C     C_R   0.537915 0.168163 0.595276 -0.237811
C35   C     C_R   0.539885 0.832882 0.593002 -0.240109
C36   C     C_R   0.461855 0.167078 0.404831 -0.235379
H9    H     H_    0.428402 0.862550 0.334067 0.166573
H10   H     H_    0.567839 0.137428 0.670456 0.156719
H11   H     H_    0.571336 0.864471 0.666338 0.159221
H12   H     H_    0.431886 0.135488 0.329666 0.154427
C37   C     C_R   0.460523 0.747489 0.409090 0.034416
C38   C     C_R   0.537415 0.252488 0.593407 0.104252
C39   C     C_R   0.539303 0.748529 0.591155 0.048038
C40   C     C_R   0.462444 0.251434 0.406703 0.114167
H13   H     H_    0.429489 0.714188 0.337346 0.143713
H14   H     H_    0.566977 0.285757 0.667007 0.128859
H15   H     H_    0.570289 0.716029 0.662910 0.136443
H16   H     H_    0.432898 0.283903 0.333163 0.124335
N1    N     N_R   0.500000 0.707230 0.500000 -0.082962
N2    N     N_R   0.500000 0.292770 0.500000 -0.066275
C41   C     C_R   0.499904 0.875535 0.500152 0.140522
C42   C     C_R   0.499877 0.124424 0.500048 0.146783
C43   C     C_1   0.499889 0.963370 0.500127 -0.000725
C44   C     C_1   0.499871 0.036584 0.500073 -0.000174
S1    S     S_3+6 0.648665 0.646246 0.187752 0.056589
O9    O     O_2   0.673240 0.564428 0.227259 -0.259963
O10   O     O_2   0.712176 0.683138 0.108135 -0.260689
O11   O     O_3   0.633116 0.703113 0.321164 -0.532513
H17   H     H_    0.631161 0.758979 0.289980 0.351757
S2    S     S_3+6 0.349303 0.355442 0.817930 0.025785
O12   O     O_2   0.366409 0.319144 0.686713 -0.311497
O13   O     O_2   0.291814 0.303517 0.887484 -0.274281
O14   O     O_3   0.312171 0.447349 0.802910 -0.526217
H18   H     H_    0.258751 0.438493 0.778164 0.392512
S3    S     S_3+6 0.360265 0.661968 0.840559 0.068614
O15   O     O_2   0.343809 0.597035 0.744621 -0.283564
O16   O     O_2   0.300146 0.659532 0.946925 -0.212801
O17   O     O_3   0.354995 0.751284 0.767360 -0.525970
H19   H     H_    0.380534 0.743133 0.681507 0.356991
S4    S     S_3+6 0.637668 0.337390 0.164825 0.026201
O18   O     O_2   0.623714 0.323813 0.306696 -0.313473
O19   O     O_2   0.678200 0.265199 0.107815 -0.279954
O20   O     O_3   0.693354 0.417772 0.141900 -0.507670
H20   H     H_    0.743448 0.402313 0.175704 0.390872
C45   C     C_2   0.887598 0.652372 0.501482 0.950255
O21   O     O_2   0.854857 0.715109 0.477944 -0.569718
O22   O     O_R   0.961013 0.654738 0.550267 -0.793918
H21   H     H_    0.981145 0.711355 0.559393 0.371907
C46   C     C_2   0.109766 0.352979 0.512722 0.959338
O23   O     O_2   0.140907 0.288244 0.492241 -0.576941
O24   O     O_R   0.036115 0.355345 0.567779 -0.795206
H22   H     H_    0.014412 0.299962 0.583771 0.370683
C47   C     C_2   0.121547 0.645396 0.372629 0.963091
O25   O     O_2   0.150097 0.710403 0.397358 -0.585210
O26   O     O_R   0.056854 0.642042 0.296872 -0.777043
H23   H     H_    0.038471 0.697055 0.270956 0.372375
C48   C     C_2   0.884844 0.353417 0.389888 0.953912
O27   O     O_2   0.857265 0.289069 0.421805 -0.580677
O28   O     O_R   0.950717 0.354678 0.310520 -0.783829
H24   H     H_    0.970729 0.298991 0.288594 0.370316

loop_
_geom_bond_atom_site_label_1
_geom_bond_atom_site_label_2
_geom_bond_distance
_ccdc_geom_bond_type
C47   O25   1.223533 D    
C2    C27   1.452956 S    
C13   C15   1.408502 A    
S1    O9    1.495686 D    
C21   C25   1.393052 A    
O22   H21   1.013881 S    
O3    C2    1.278803 A    
C35   C41   1.403816 A    
C46   O23   1.223478 D    
C29   C31   1.415978 S    
C6    C16   1.425635 A    
O5    C3    1.289692 A    
C48   O28   1.398603 S    
C45   O21   1.223547 D    
S3    O15   1.494524 D    
O1    C1    1.278571 A    
C10   C12   1.384606 A    
C24   H6    1.083277 S    
C15   C18   1.413841 A    
Zn1   N1    1.975456 S    
C16   C17   1.412771 A    
S2    O13   1.503770 D    
C20   C46   1.490115 S    
C22   C29   1.413694 A    
C41   C43   1.465875 S    
O7    Zn1   1.932472 S    
C34   C38   1.407652 A    
C37   N1    1.364838 A    
C35   C39   1.407733 A    
C7    S3    1.770987 S    
O28   H24   1.013859 S    
C8    S4    1.767938 S    
C26   H8    1.082535 S    
O3    Zn1   1.981723 S    
C30   C32   1.416038 S    
C7    C13   1.425517 A    
C47   O26   1.398632 S    
C8    C14   1.425377 A    
C23   H5    1.084243 S    
S1    O10   1.503292 D    
O2    C2    1.279247 A    
C21   C30   1.413675 A    
C46   O24   1.397997 S    
O14   H18   0.990278 S    
C33   C37   1.407557 A    
C26   C27   1.396390 A    
H3    C10   1.083235 S    
C40   H16   1.081733 S    
C13   C17   1.415354 A    
H4    C9    1.082975 S    
C6    C10   1.396135 A    
C22   C26   1.392140 A    
O11   H17   0.990570 S    
O8    Zn2   1.932474 S    
O20   H20   0.990439 S    
C35   H11   1.083051 S    
O17   H19   0.989870 S    
H1    C12   1.083017 S    
C25   H7    1.084183 S    
C36   C40   1.407785 A    
C19   C23   1.392249 A    
C5    C9    1.396197 A    
C39   N1    1.364775 A    
O24   H22   1.013872 S    
C36   C42   1.403772 A    
S4    O20   1.676508 S    
C14   C18   1.416337 A    
O6    C4    1.288160 A    
C1    C28   1.451506 S    
C25   C28   1.397301 A    
C5    S1    1.771907 S    
S3    O16   1.502325 D    
S4    O19   1.503846 D    
C3    C18   1.477529 S    
C4    C17   1.478123 S    
C19   C29   1.414551 A    
S1    O11   1.679864 S    
O1    Zn1   1.983193 S    
C23   C27   1.396815 A    
C5    C15   1.427598 A    
C36   H12   1.083082 S    
H2    C11   1.082585 S    
C7    C11   1.396430 A    
O6    Zn2   1.924467 S    
C22   C48   1.491423 S    
C20   C24   1.391394 A    
O4    C1    1.278208 A    
C21   C47   1.491351 S    
C19   C45   1.490665 S    
C6    S2    1.767093 S    
C48   O27   1.223545 D    
C37   H13   1.081757 S    
C40   N2    1.364894 A    
C38   H14   1.081685 S    
C14   C16   1.406497 A    
C43   C44   1.221860 T    
S2    O12   1.500371 D    
S2    O14   1.675963 S    
C33   H9    1.083063 S    
C9    C11   1.385493 A    
O4    Zn2   1.981725 S    
O2    Zn2   1.983192 S    
O7    C4    1.285083 A    
C24   C28   1.395559 A    
C34   C42   1.403617 A    
O8    C3    1.284120 A    
C39   H15   1.081745 S    
O5    Zn1   1.924468 S    
S3    O17   1.682230 S    
C20   C30   1.414636 A    
S4    O18   1.498186 D    
C38   N2    1.364908 A    
C45   O22   1.398048 S    
C31   C32   1.188206 T    
C8    C12   1.396381 A    
O26   H23   1.013871 S    
Zn2   N2    1.975456 S    
C42   C44   1.465941 S    
C33   C41   1.403660 A    
C34   H10   1.083090 S    
