data_mof_unit_52581.cif
_audit_creation_date              2012-12-10T20:49:27-0500
_audit_creation_method            fapswitch 2.2
_symmetry_space_group_name_H-M    P1
_symmetry_Int_Tables_number       1
_space_group_crystal_system       triclinic
_cell_length_a                    15.782735
_cell_length_b                    8.948232
_cell_length_c                    8.108359
_cell_angle_alpha                 89.988368
_cell_angle_beta                  90.147476
_cell_angle_gamma                 90.158163
_cell_volume                      1145.11569543

loop_
_atom_site_label
_atom_site_type_symbol
_atom_type_description
_atom_site_fract_x
_atom_site_fract_y
_atom_site_fract_z
_atom_type_partial_charge
C1    C     C_1   0.500024 0.065157 0.500015 -0.190274
C2    C     C_3   0.973064 0.601953 0.585071 0.237663
C3    C     C_1   0.249049 0.494783 0.499247 -0.182242
C4    C     C_1   0.750949 0.496791 0.500669 -0.183887
C5    C     C_3   0.029128 0.476435 0.657678 -0.338327
C6    C     C_3   0.970673 0.494452 0.340078 -0.281601
C7    C     C_3   0.083668 0.486323 0.499230 0.015449
C8    C     C_3   0.916281 0.486089 0.499275 0.044527
C9    C     C_1   0.174122 0.490267 0.499009 -0.042508
C10   C     C_1   0.825867 0.492113 0.500496 -0.030663
C11   C     C_3   0.097494 0.271894 0.167415 -0.796929
C12   C     C_1   0.500033 0.934845 0.499984 -0.190114
C13   C     C_3   0.005471 0.817332 0.758524 -0.799622
C14   C     C_3   0.884351 0.135486 0.548578 -0.749610
C15   C     C_3   0.995429 0.836859 0.274793 -0.797515
C16   C     C_R   0.500001 0.217960 0.500010 0.932551
C17   C     C_R   0.500030 0.782041 0.499989 0.932403
C18   C     C_R   0.337549 0.499492 0.499758 0.900229
C19   C     C_R   0.662451 0.500391 0.500237 0.900278
C20   C     C_3   0.972396 0.360781 0.567810 0.189227
C21   C     C_3   0.027247 0.610793 0.429393 0.234005
C22   C     C_3   0.027630 0.370020 0.413085 0.208552
H1    H     H_    0.946004 0.501486 0.211989 0.159436
H2    H     H_    0.041350 0.749096 0.849280 0.236669
H3    H     H_    0.993493 0.161223 0.690068 0.222965
H4    H     H_    0.872784 0.026952 0.610927 0.248281
H5    H     H_    0.909393 0.113941 0.423123 0.249515
H6    H     H_    0.822771 0.193968 0.539018 0.248757
H7    H     H_    0.111407 0.728862 0.281417 0.227559
H8    H     H_    0.023436 0.945693 0.238519 0.255002
H9    H     H_    0.941645 0.857610 0.359558 0.267820
H10   H     H_    0.971693 0.779853 0.161996 0.233381
H11   H     H_    0.053144 0.468165 0.786159 0.159752
H12   H     H_    0.094325 0.170568 0.398626 0.231175
H13   H     H_    0.116596 0.165327 0.108276 0.237583
H14   H     H_    0.154642 0.343150 0.183598 0.248254
H15   H     H_    0.051668 0.328675 0.084479 0.244044
H16   H     H_    0.892691 0.697987 0.756929 0.228551
H17   H     H_    0.975010 0.911040 0.825385 0.236683
H18   H     H_    0.049719 0.864799 0.665973 0.271844
N1    N     N_1   0.500010 0.500000 0.073640 -0.031726
N2    N     N_1   0.499990 0.500000 0.926360 -0.031642
N3    N     N_2   0.058842 0.240771 0.325196 -0.307111
N4    N     N_2   0.941145 0.727633 0.678329 -0.306406
N5    N     N_2   0.943864 0.223302 0.644071 -0.300622
N6    N     N_2   0.059181 0.746586 0.354873 -0.304137
O1    O     O_R   0.500000 0.285340 0.636850 -0.615404
O2    O     O_R   0.500000 0.714660 0.363150 -0.615835
O3    O     O_R   0.500000 0.285340 0.363150 -0.615453
O4    O     O_R   0.500000 0.714660 0.636850 -0.615894
O5    O     O_R   0.376770 0.500000 0.636850 -0.614772
O6    O     O_R   0.623230 0.500000 0.363150 -0.613905
O7    O     O_R   0.376780 0.500000 0.363100 -0.619014
O8    O     O_R   0.623220 0.500000 0.636900 -0.614874
Zn1   Zn    Zn3+2 0.499990 0.500000 0.682780 0.994568
Zn2   Zn    Zn3+2 0.500010 0.500000 0.317220 0.993362

loop_
_geom_bond_atom_site_label_1
_geom_bond_atom_site_label_2
_ccdc_geom_bond_type
C12   C17   S    
C17   O4    A    
N1    Zn2   S    
C15   H9    S    
C3    C9    T    
H3    N5    S    
N2    Zn1   S    
O3    Zn2   S    
C5    C7    S    
N1    N2    T    
C22   N3    S    
C15   N6    S    
C17   O2    A    
H7    N6    S    
O7    Zn2   S    
C2    C21   S    
C11   H13   S    
O1    Zn1   S    
C1    C16   S    
C15   H10   S    
C5    C20   S    
C14   H4    S    
H16   N4    S    
C4    C19   S    
C8    C20   S    
C1    C12   T    
O6    Zn2   S    
C15   H8    S    
C6    H1    S    
C19   O8    A    
C8    C10   S    
C11   H14   S    
C20   C22   S    
C18   O5    A    
C14   N5    S    
O5    Zn1   S    
C5    H11   S    
C14   H5    S    
C11   N3    S    
C13   H17   S    
C2    C5    S    
C4    C10   T    
C7    C22   S    
C7    C9    S    
C16   O3    A    
C16   O1    A    
C3    C18   S    
O2    Zn2   S    
C21   N6    S    
C20   N5    S    
C11   H15   S    
O8    Zn1   S    
C13   H18   S    
C6    C8    S    
C18   O7    A    
C14   H6    S    
C7    C21   S    
C6    C21   S    
C19   O6    A    
C13   N4    S    
C2    C8    S    
H12   N3    S    
O4    Zn1   S    
C13   H2    S    
C2    N4    S    
C6    C22   S    
