data_mof_unit_62286.cif
_audit_creation_date              2012-12-10T20:48:23-0500
_audit_creation_method            fapswitch 2.2
_symmetry_space_group_name_H-M    P1
_symmetry_Int_Tables_number       1
_space_group_crystal_system       triclinic
_cell_length_a                    16.047345
_cell_length_b                    19.250143
_cell_length_c                    19.246564
_cell_angle_alpha                 94.94143
_cell_angle_beta                  95.150286
_cell_angle_gamma                 90.670349
_cell_volume                      5898.38286027

loop_
_atom_site_label
_atom_site_type_symbol
_atom_type_description
_atom_site_fract_x
_atom_site_fract_y
_atom_site_fract_z
_atom_type_partial_charge
C1    C     C_R   0.508045 0.310723 0.492985 0.807415
C2    C     C_R   0.438007 0.803163 0.555786 -0.223117
C3    C     C_R   0.523315 0.125467 0.544798 -0.222914
C4    C     C_R   0.491338 0.689325 0.507191 0.795531
C5    C     C_R   0.524823 0.198312 0.550564 -0.036015
C6    C     C_R   0.507404 0.087377 0.478948 0.255923
C7    C     C_R   0.509985 0.234155 0.489787 -0.062740
C8    C     C_R   0.495003 0.196074 0.424231 -0.259489
C9    C     C_R   0.494827 0.123292 0.418532 -0.008467
C10   C     C_R   0.491187 0.485696 0.232807 -0.049972
C11   C     C_R   0.514939 0.544505 0.200418 -0.236328
C12   C     C_1   0.111321 0.484743 0.480707 -0.037978
C13   C     C_R   0.516680 0.541551 0.128073 -0.163773
C14   C     C_R   0.494894 0.479107 0.086255 0.307295
C15   C     C_R   0.471632 0.420340 0.118273 -0.232251
C16   C     C_R   0.509250 0.508726 0.689858 0.789920
C17   C     C_R   0.469406 0.422832 0.190908 -0.028599
C18   C     C_R   0.517053 0.456827 0.873488 -0.159158
C19   C     C_R   0.518321 0.453656 0.801086 -0.237701
C20   C     C_R   0.512806 0.521781 0.912766 0.305499
C21   C     C_R   0.514986 0.514811 0.766544 -0.037676
C22   C     C_R   0.513795 0.580508 0.805684 -0.022624
C23   C     C_1   0.888429 0.519176 0.518287 -0.035842
C24   C     C_R   0.512368 0.582899 0.878554 -0.240134
C25   C     C_R   0.492028 0.491200 0.309823 0.796674
C26   C     C_R   0.723898 0.510091 0.510051 0.816626
C27   C     C_R   0.275992 0.489956 0.490044 0.819362
C28   C     C_1   0.813271 0.514927 0.514718 -0.128907
C29   C     C_2   0.978765 0.524118 0.521816 -0.034224
C30   C     C_2   0.021146 0.483769 0.476104 -0.034750
C31   C     C_1   0.978170 0.436161 0.421898 0.203249
C32   C     C_1   0.447769 0.359359 0.220658 0.201451
C33   C     C_R   0.518301 0.647258 0.772714 0.141696
C34   C     C_1   0.186582 0.486649 0.484967 -0.128694
C35   C     C_R   0.459754 0.699522 0.785485 -0.137965
C36   C     C_R   0.465867 0.763325 0.756455 -0.147559
C37   C     C_R   0.530580 0.775608 0.714845 -0.108471
C38   C     C_R   0.588786 0.723879 0.701511 -0.131916
C39   C     C_R   0.583055 0.660067 0.730538 -0.136422
C40   C     C_R   0.021736 0.573839 0.577460 0.142427
C41   C     C_R   0.005145 0.570796 0.647626 -0.147457
C42   C     C_R   0.045155 0.617467 0.700177 -0.137650
C43   C     C_R   0.101510 0.667817 0.683123 -0.107523
C44   C     C_R   0.117586 0.671876 0.613423 -0.124690
C45   C     C_R   0.488555 0.765864 0.510316 -0.000375
C46   C     C_R   0.077613 0.625410 0.560690 -0.135436
C47   C     C_1   0.538605 0.234657 0.619610 0.192906
C48   C     C_1   0.479955 0.085917 0.350162 0.187213
C49   C     C_R   0.537554 0.802378 0.468188 -0.228641
C50   C     C_R   0.536308 0.874858 0.471566 -0.164103
C51   C     C_R   0.485862 0.912316 0.517463 0.325504
C52   C     C_R   0.437573 0.875881 0.559817 -0.216216
H1    H     H_    0.577289 0.775003 0.432771 0.170643
H2    H     H_    0.399631 0.776261 0.588883 0.172287
H3    H     H_    0.484150 0.223235 0.377241 0.179551
H4    H     H_    0.575649 0.901473 0.439012 0.155029
H5    H     H_    0.409408 0.690823 0.817818 0.126059
H6    H     H_    0.420621 0.803378 0.766461 0.129487
H7    H     H_    0.535640 0.825239 0.692934 0.138675
H8    H     H_    0.638743 0.733430 0.669107 0.126334
H9    H     H_    0.629617 0.621001 0.720809 0.106903
H10   H     H_    0.961880 0.531878 0.661701 0.135409
H11   H     H_    0.032515 0.614545 0.754161 0.135384
H12   H     H_    0.519805 0.403139 0.771698 0.173470
H13   H     H_    0.132482 0.703844 0.723877 0.126517
H14   H     H_    0.160841 0.711184 0.600208 0.132294
H15   H     H_    0.089907 0.629867 0.506823 0.131155
H16   H     H_    0.519055 0.408485 0.898411 0.157516
H17   H     H_    0.455649 0.372136 0.086133 0.147493
H18   H     H_    0.535619 0.588058 0.105260 0.154804
H19   H     H_    0.511712 0.632797 0.909254 0.144200
H20   H     H_    0.532025 0.593207 0.231178 0.170495
H21   H     H_    0.534960 0.098394 0.591729 0.160191
H22   H     H_    0.399104 0.903988 0.595780 0.143446
N1    N     N_2   0.484250 0.986275 0.523990 -0.197906
N2    N     N_2   0.506627 0.013332 0.471881 -0.189200
N3    N     N_2   0.496771 0.472530 0.012314 -0.194878
N4    N     N_2   0.510549 0.528377 0.986621 -0.197108
N5    N     N_1   0.943799 0.398101 0.378562 -0.198174
N6    N     N_1   0.430485 0.308450 0.244403 -0.193386
N7    N     N_1   0.549610 0.263740 0.674933 -0.206833
N8    N     N_1   0.468031 0.055940 0.295339 -0.192974
O1    O     O_3   0.500000 0.500000 0.500000 -0.483568
O2    O     O_R   0.688130 0.469010 0.547620 -0.635072
O3    O     O_R   0.315580 0.449250 0.449280 -0.631287
O4    O     O_R   0.680710 0.547310 0.468650 -0.634737
O5    O     O_R   0.315580 0.534430 0.534450 -0.636242
O6    O     O_R   0.456860 0.545290 0.655940 -0.629383
O7    O     O_R   0.446440 0.450430 0.339790 -0.633908
O8    O     O_R   0.557290 0.347960 0.537250 -0.630986
O9    O     O_R   0.539410 0.656320 0.467010 -0.649445
O10   O     O_R   0.456880 0.340240 0.450910 -0.636309
O11   O     O_R   0.446420 0.655480 0.544820 -0.639709
O12   O     O_R   0.557280 0.467820 0.657110 -0.637648
O13   O     O_R   0.539420 0.536460 0.347160 -0.641417
Zn1   Zn    Zn3+2 0.430910 0.557800 0.557800 0.980103
Zn2   Zn    Zn3+2 0.574380 0.447110 0.559460 0.986378
Zn3   Zn    Zn3+2 0.563780 0.559000 0.446630 0.971034
Zn4   Zn    Zn3+2 0.430930 0.436090 0.436110 0.992398

loop_
_geom_bond_atom_site_label_1
_geom_bond_atom_site_label_2
_ccdc_geom_bond_type
O6    Zn1   S    
C16   C21   S    
C41   C42   A    
C44   H14   S    
C35   C36   A    
N1    N2    D    
C3    C6    A    
C6    C9    A    
O13   Zn3   S    
C7    C8    A    
N3    N4    D    
C40   C46   A    
C5    C47   S    
C37   C38   A    
O7    Zn4   S    
O2    Zn2   S    
C23   C29   S    
C36   C37   A    
C19   C21   A    
C51   N1    S    
C52   H22   S    
C30   C31   S    
C13   H18   S    
C10   C17   A    
C18   H16   S    
C18   C19   A    
C14   N3    S    
C27   O3    A    
C20   C24   A    
C8    C9    A    
O1    Zn3   S    
O8    Zn2   S    
C43   H13   S    
C4    O9    A    
C2    C45   A    
O1    Zn4   S    
C13   C14   A    
C41   H10   S    
C15   H17   S    
C8    H3    S    
C44   C46   A    
O4    Zn3   S    
C4    C45   S    
C27   C34   S    
C39   H9    S    
C36   H6    S    
C51   C52   A    
C2    H2    S    
C5    C7    A    
C11   H20   S    
C25   O7    A    
O12   Zn2   S    
C50   H4    S    
C43   C44   A    
C29   C30   D    
O3    Zn4   S    
C32   N6    T    
C45   C49   A    
C19   H12   S    
C26   O4    A    
O5    Zn1   S    
C50   C51   A    
C33   C39   A    
C23   C28   T    
C27   O5    A    
C37   H7    S    
C2    C52   A    
C38   H8    S    
C10   C25   S    
C40   C41   A    
C25   O13   A    
O11   Zn1   S    
C22   C24   A    
C42   C43   A    
C12   C34   T    
C1    O8    A    
C15   C17   A    
C22   C33   S    
C26   O2    A    
C12   C30   S    
C1    C7    S    
C16   O12   A    
C6    N2    S    
C3    C5    A    
C31   N5    T    
C1    O10   A    
C26   C28   S    
C20   N4    S    
C35   H5    S    
C46   H15   S    
C11   C13   A    
C38   C39   A    
C49   H1    S    
O1    Zn1   S    
C29   C40   S    
C33   C35   A    
C48   N8    T    
C18   C20   A    
C47   N7    T    
O9    Zn3   S    
C3    H21   S    
C10   C11   A    
C4    O11   A    
C24   H19   S    
C9    C48   S    
C49   C50   A    
O1    Zn2   S    
C16   O6    A    
C17   C32   S    
C14   C15   A    
C21   C22   A    
C42   H11   S    
O10   Zn4   S    
