data_mof_unit_67187.cif
_audit_creation_date              2013-03-05T15:59:18-0500
_audit_creation_method            fapswitch 2.2
_symmetry_space_group_name_H-M    P1
_symmetry_Int_Tables_number       1
_space_group_crystal_system       triclinic
_cell_length_a                    8.329684
_cell_length_b                    12.825646
_cell_length_c                    16.483224
_cell_angle_alpha                 109.357118
_cell_angle_beta                  97.366948
_cell_angle_gamma                 81.886322
_cell_volume                      1638.52099225

loop_
_atom_site_label
_atom_site_type_symbol
_atom_site_description
_atom_site_fract_x
_atom_site_fract_y
_atom_site_fract_z
_atom_type_partial_charge
P1    P     P_3+3 0.593410 0.640600 0.698510 0.499978
O1    O     O_2   0.429050 0.611890 0.712090 -0.361495
O2    O     O_3   0.649820 0.584130 0.603850 -0.415278
O3    O     O_3   0.201480 0.401240 0.659120 -0.393103
O4    O     O_2   0.348761 0.510455 0.811522 -0.382816
O5    O     O_3   0.557130 0.783868 0.723324 -0.542498
O6    O     O_3   0.255562 0.317574 0.798094 -0.538071
H1    H     H_    0.229753 0.181935 0.688786 0.106009
C1    C     C_3   0.116315 0.164665 0.793533 -0.950441
H2    H     H_    0.049280 0.095647 0.749467 0.243436
H3    H     H_    0.228181 0.129408 0.823503 0.297661
P2    P     P_3+3 0.154920 0.233850 0.431950 0.513088
P3    P     P_3+3 0.660401 0.195483 0.609373 0.473340
O7    O     O_2   0.337150 0.224350 0.458110 -0.310882
O8    O     O_3   0.611620 0.334620 0.615460 -0.403430
O9    O     O_2   0.512791 0.133042 0.561069 -0.378216
O10   O     O_3   0.156608 0.175295 0.321213 -0.503518
O11   O     O_3   0.667404 0.188219 0.713956 -0.545178
C2    C     C_3   0.658385 0.296191 0.773188 0.360866
H4    H     H_    0.551542 0.348408 0.755394 0.186434
H5    H     H_    0.771601 0.334667 0.776689 0.027790
C3    C     C_3   0.635306 0.292186 0.861833 -0.781173
H6    H     H_    0.606558 0.377995 0.905053 0.244321
H7    H     H_    0.530581 0.246300 0.858534 0.293868
C4    C     C_3   0.586660 0.134203 0.224146 0.822613
C5    C     C_3   0.610114 0.144488 0.133929 -0.350224
H8    H     H_    0.703181 0.198629 0.139576 0.110016
H9    H     H_    0.499193 0.186973 0.109562 0.168712
Ba1   Ba    Ba6+2 0.363950 0.459210 0.542370 1.620332
C6    C     C_3   0.498658 0.812011 0.648939 0.291986
H10   H     H_    0.388810 0.770094 0.617336 0.094117
H11   H     H_    0.593424 0.787772 0.602793 0.139346
C7    C     C_3   0.455489 0.937893 0.675046 -0.812913
H12   H     H_    0.330737 0.958858 0.696849 0.202918
H13   H     H_    0.456471 0.967039 0.618804 0.185647
C8    C     C_3   0.026476 0.225968 0.281702 0.442405
H14   H     H_    0.053101 0.310523 0.286615 0.123824
H15   H     H_    0.916813 0.230183 0.313276 0.113296
C9    C     C_3   0.998721 0.157433 0.187131 -0.693040
H16   H     H_    0.108150 0.111177 0.156911 0.339981
H17   H     H_    0.950837 0.213497 0.149056 0.230953
H18   H     H_    0.918367 0.093601 0.181608 0.222912
P4    P     P_3+3 0.596300 0.359310 0.301480 0.503365
O12   O     O_2   0.760640 0.388070 0.287860 -0.418918
O13   O     O_3   0.539890 0.415780 0.396140 -0.337381
O14   O     O_3   0.988230 0.598670 0.340870 -0.394670
O15   O     O_3   0.645640 0.220316 0.296842 -0.608898
P5    P     P_3+3 0.538935 0.801799 0.381145 0.518869
O16   O     O_3   0.122980 0.641570 0.544110 -0.396548
O17   O     O_3   0.578090 0.665290 0.384530 -0.384630
O18   O     O_2   0.681005 0.863746 0.437360 -0.345328
O19   O     O_3   0.571616 0.792782 0.275625 -0.433943
Ba2   Ba    Ba6+2 0.825880 0.540700 0.457630 1.617324
P6    P     P_3+3 0.205636 0.439602 0.770940 0.455239
C10   C     C_3   0.159128 0.235570 0.743190 0.407447
H19   H     H_    0.041991 0.269665 0.715969 0.032440
H20   H     H_    0.038199 0.216181 0.845165 0.272757
O20   O     O_3   0.066730 0.358340 0.455880 -0.418387
C11   C     C_3   0.040257 0.784190 0.723850 0.212814
H21   H     H_    0.908492 0.775550 0.720716 0.124302
H22   H     H_    0.109174 0.700683 0.700322 0.115237
C12   C     C_3   0.105263 0.838768 0.816919 -0.112840
H23   H     H_    0.050682 0.926446 0.841135 0.158624
H24   H     H_    0.239369 0.839216 0.819587 0.175882
P7    P     P_3+3 0.041254 0.782338 0.566188 0.439316
O21   O     O_2   0.852540 0.775600 0.541830 -0.365088
O22   O     O_3   0.062504 0.853354 0.676841 -0.593797
H25   H     H_    0.746502 0.251348 0.888133 0.271807
C13   C     C_3   0.459183 0.726260 0.217088 0.291627
H26   H     H_    0.424581 0.660866 0.240136 -0.002546
H27   H     H_    0.350549 0.781082 0.207054 0.059434
C14   C     C_3   0.527275 0.664829 0.129849 -0.020676
H28   H     H_    0.645367 0.618399 0.139824 0.207610
H29   H     H_    0.443851 0.603996 0.089675 0.052071
P8    P     P_3+3 0.977540 0.558356 0.229190 0.514517
C15   C     C_3   0.032664 0.758441 0.258856 0.434742
H30   H     H_    0.159057 0.720085 0.266602 -0.063743
O23   O     O_2   0.827983 0.493079 0.195299 -0.351548
O24   O     O_3   0.929734 0.681441 0.203373 -0.474995
H31   H     H_    0.985237 0.792639 0.323594 0.127548
C16   C     C_3   0.038197 0.855854 0.225797 -0.774000
H32   H     H_    0.131611 0.908920 0.266182 0.160175
H33   H     H_    0.922474 0.906817 0.234207 0.263458
C17   C     C_2   0.280284 0.448439 0.242533 -0.360847
C18   C     C_R   0.892727 0.540332 0.750780 -0.520915
C19   C     C_2   0.492381 0.394215 0.142560 -0.351422
C20   C     C_2   0.449346 0.405015 0.221140 0.301861
C21   C     C_2   0.168022 0.479723 0.186155 0.235953
C22   C     C_3   0.216659 0.478195 0.099430 -0.208989
C23   C     C_3   0.365796 0.396423 0.069328 0.134937
C24   C     C_2   0.082614 0.467699 0.026407 0.380925
C25   C     C_2   0.098817 0.510912 0.963458 -0.152111
C26   C     C_R   0.815018 0.573771 0.917234 0.340325
C27   C     C_R   0.971009 0.524991 0.894647 -0.079333
C28   C     C_R   0.699172 0.605664 0.858318 -0.248233
C29   C     C_R   0.738596 0.590365 0.774973 0.305247
C30   C     C_R   0.009719 0.509527 0.810117 0.257663
H34   H     H_    0.615868 0.364921 0.126170 0.213239
H35   H     H_    0.581176 0.645384 0.878799 0.219288
H36   H     H_    0.249032 0.457528 0.306643 0.151798
H37   H     H_    0.923249 0.527841 0.686109 0.174147
H38   H     H_    0.212203 0.544863 0.965571 0.192944
C31   C     C_R   0.257102 0.811434 0.461572 -0.507137
C32   C     C_R   0.930227 0.191313 0.522682 -0.418959
C33   C     C_R   0.914554 0.023047 0.554204 -0.192719
C34   C     C_R   0.849782 0.130679 0.557489 0.256626
C35   C     C_R   0.072048 0.145179 0.481267 0.228117
C36   C     C_R   0.136532 0.032775 0.473257 -0.042989
C37   C     C_R   0.056239 0.971708 0.511536 -0.051746
C38   C     C_R   0.119197 0.860798 0.505832 0.266889
C39   C     C_R   0.340328 0.870031 0.425455 0.161574
C40   C     C_R   0.278901 0.979918 0.430210 -0.188522
H39   H     H_    0.850973 0.980388 0.584521 0.215077
H40   H     H_    0.343872 0.022501 0.400365 0.213445
H41   H     H_    0.305139 0.727589 0.459025 0.163204
H42   H     H_    0.879649 0.275190 0.526602 0.169704
N1    N     N_R   0.640890 0.038808 0.065627 0.309355
O25   O     O_R   0.519809 0.981305 0.027954 -0.235485
O26   O     O_R   0.775985 0.016127 0.028521 -0.297400
C41   C     C_2   0.574727 0.995295 0.746910 1.342271
O27   O     O_2   0.530019 0.043793 0.818883 -0.632334
O28   O     O_R   0.738742 0.985172 0.732757 -0.783811
H43   H     H_    0.807538 0.024841 0.786577 0.325135
N2    N     N_R   0.068038 0.778551 0.871645 0.222667
O29   O     O_R   0.922118 0.792325 0.896223 -0.361510
O30   O     O_R   0.184461 0.721791 0.904401 -0.363843
N3    N     N_R   0.545401 0.739382 0.082575 0.300654
O31   O     O_R   0.687574 0.743505 0.059878 -0.298441
O32   O     O_R   0.417491 0.791296 0.053527 -0.297429
C42   C     C_2   0.070410 0.825337 0.132902 1.328706
O33   O     O_2   0.091599 0.728553 0.087717 -0.625707
O34   O     O_R   0.079695 0.910360 0.099296 -0.737928
H44   H     H_    0.109072 0.882719 0.037689 0.397064
N4    N     N_R   0.952301 0.402765 0.020321 0.223063
O35   O     O_R   0.803464 0.449360 0.024442 -0.452099
O36   O     O_R   0.985468 0.305099 0.029811 -0.420787
N5    N     N_R   0.670613 0.031516 0.236570 0.197493
O37   O     O_R   0.721032 0.032239 0.314996 -0.405262
O38   O     O_R   0.646764 0.936443 0.179267 -0.298822
N6    N     N_R   0.414671 0.133081 0.227206 0.238405
O39   O     O_R   0.355783 0.040988 0.219526 -0.338031
O40   O     O_R   0.318368 0.216956 0.216613 -0.507209

loop_
_geom_bond_atom_site_label_1
_geom_bond_atom_site_label_2
_geom_bond_distance
_ccdc_geom_bond_type
C10   H19   1.114416 S    
C26   C27   1.399480 A    
P2    Ba1   3.437897 S    
C42   O34   1.391831 S    
C28   C29   1.397303 A    
C15   O24   1.409248 S    
O6    C10   1.411199 S    
C5    N1    1.461068 S    
C32   C34   1.387216 A    
C16   H32   1.108203 S    
C16   C42   1.499413 S    
C9    H17   1.106347 S    
Ba1   O16   2.853979 S    
N5    O38   1.294316 A    
C5    H8    1.087388 S    
O16   P7    1.771023 S    
P3    O11   1.750135 S    
O1    Ba1   2.869500 S    
C33   H39   1.077249 S    
C8    H14   1.112160 S    
C2    H5    1.111188 S    
N6    O40   1.294687 A    
O11   C2    1.403461 S    
N1    O26   1.300444 A    
C6    H10   1.108413 S    
C18   C29   1.395785 A    
C28   H35   1.081333 S    
C36   C37   1.429177 A    
C31   C39   1.396174 A    
P1    O1    1.528256 D    
C13   H27   1.095306 S    
C12   H24   1.113026 S    
O19   C13   1.408580 S    
C11   O22   1.400197 S    
C32   H42   1.082558 S    
O12   Ba2   2.870038 S    
P4    Ba2   3.423184 S    
P5    O18   1.544815 D    
C2    H4    1.105264 S    
O34   H44   1.008636 S    
P7    O22   1.746153 S    
P2    O10   1.729403 S    
C35   C36   1.434488 A    
C17   C20   1.481018 S    
P6    C30   1.832399 S    
C1    C10   1.520037 S    
O10   C8    1.386428 S    
C22   C24   1.517875 S    
P4    O15   1.750318 S    
C1    H2    1.110063 S    
C4    O15   1.421938 S    
O3    Ba1   2.826315 S    
C6    C7    1.528530 S    
C25   H38   1.086488 S    
P2    O20   1.603211 S    
C21   C22   1.528297 S    
P5    O17   1.753214 S    
O13   Ba2   2.941234 S    
C11   H21   1.111569 S    
C26   C28   1.397548 A    
H1    C10   1.111560 S    
C40   H40   1.078431 S    
O14   P8    1.733197 S    
C16   H33   1.082589 S    
C41   O28   1.396186 S    
O8    Ba1   2.822972 S    
C9    H18   1.102805 S    
C11   H22   1.111414 S    
O17   Ba2   2.823655 S    
C14   N3    1.452304 S    
P1    O5    1.735454 S    
C17   H36   1.085524 S    
C15   H31   1.111776 S    
O4    P6    1.546902 D    
C2    C3    1.516290 S    
N6    O39   1.303942 A    
C31   H41   1.082218 S    
C14   H29   1.105739 S    
C19   C23   1.502495 S    
C9    H16   1.094915 S    
C19   C20   1.345916 D    
P3    C34   1.848067 S    
N4    O36   1.300378 A    
C27   C30   1.413737 A    
C4    C5    1.574403 S    
C36   C40   1.428056 A    
Ba1   O13   2.837817 S    
P1    O2    1.588301 S    
C13   C14   1.530431 S    
C4    N5    1.465476 S    
P4    O12   1.528592 D    
N3    O32   1.299231 A    
C12   H23   1.111415 S    
C1    H3    1.108092 S    
C4    N6    1.442206 S    
C25   C27   1.491409 S    
C7    H12   1.110906 S    
C15   H30   1.108015 S    
Ba2   O21   2.896572 S    
P4    O13   1.588301 S    
C3    H25   1.109415 S    
O5    C6    1.400514 S    
P2    O7    1.523032 D    
C31   C38   1.398588 A    
C3    H7    1.105348 S    
O7    Ba1   2.896426 S    
N3    O31   1.299864 A    
C24   C25   1.356559 D    
C18   H37   1.082325 S    
C41   O27   1.221379 D    
N2    O30   1.299591 A    
C33   C34   1.395486 A    
C33   C37   1.416886 A    
C11   C12   1.522715 S    
C39   C40   1.409891 A    
O3    P6    1.740048 S    
C8    C9    1.520744 S    
C12   N2    1.451738 S    
C17   C21   1.348117 D    
C14   H28   1.098787 S    
C15   C16   1.527747 S    
P2    C35   1.846359 S    
Ba2   O20   2.853360 S    
N4    O35   1.297812 A    
N5    O37   1.304408 A    
C5    H9    1.104407 S    
P4    C20   1.868695 S    
P3    O8    1.745498 S    
C42   O33   1.218909 D    
O28   H43   1.013391 S    
N1    O25   1.300958 A    
C6    H11   1.107362 S    
O2    Ba2   2.838274 S    
O2    Ba1   2.940383 S    
P1    Ba1   3.422552 S    
C24   N4    1.433099 S    
Ba1   Ba2   4.618400 S    
P1    C29   1.842181 S    
O16   Ba2   2.933707 S    
O14   Ba2   2.825850 S    
C8    H15   1.094309 S    
C7    H13   1.109836 S    
C1    H20   1.110019 S    
C13   H26   1.112831 S    
C19   H34   1.080305 S    
P8    O23   1.539752 D    
P7    C38   1.854084 S    
C18   C30   1.401933 A    
P8    C21   1.844045 S    
P5    O19   1.758358 S    
P5    C39   1.874455 S    
Ba1   O20   2.934587 S    
C7    C41   1.502739 S    
P7    O21   1.578959 D    
P3    O9    1.546369 D    
C3    H6    1.107112 S    
O6    P6    1.748059 S    
C22   C23   1.527966 S    
C37   C38   1.421538 A    
P8    O24   1.748203 S    
C32   C35   1.397632 A    
N2    O29   1.300345 A    
