data_mof_unit_60130.cif
_audit_creation_date              2012-12-10T19:38:18-0500
_audit_creation_method            fapswitch 2.2
_symmetry_space_group_name_H-M    P1
_symmetry_Int_Tables_number       1
_space_group_crystal_system       triclinic
_cell_length_a                    21.640018
_cell_length_b                    21.640009
_cell_length_c                    47.083967
_cell_angle_alpha                 89.999783
_cell_angle_beta                  89.99977
_cell_angle_gamma                 89.999987
_cell_volume                      22048.9595827

loop_
_atom_site_label
_atom_site_type_symbol
_atom_type_description
_atom_site_fract_x
_atom_site_fract_y
_atom_site_fract_z
_atom_type_partial_charge
C1    C     C_R   0.000290 0.880052 0.999929 0.882481
C2    C     C_R   0.000267 0.685371 0.999212 -0.101110
C3    C     C_R   0.891582 0.470292 0.764978 -0.141878
C4    C     C_R   0.029731 0.391587 0.264978 -0.141878
C5    C     C_R   0.608421 0.029699 0.264977 -0.141878
C6    C     C_R   0.970267 0.608413 0.264977 -0.141878
C7    C     C_R   0.391580 0.970299 0.264978 -0.141879
C8    C     C_R   0.514927 0.945576 0.780065 -0.030021
C9    C     C_R   0.054420 0.514942 0.780065 -0.030021
C10   C     C_R   0.485071 0.054424 0.780065 -0.030021
C11   C     C_R   0.945581 0.485056 0.780066 -0.030020
C12   C     C_R   0.014955 0.445583 0.280065 -0.030019
C13   C     C_R   0.314629 0.000267 0.999212 -0.101115
C14   C     C_R   0.554421 0.014939 0.280065 -0.030021
C15   C     C_R   0.985043 0.554417 0.280065 -0.030019
C16   C     C_R   0.445580 0.985059 0.280066 -0.030021
C17   C     C_R   0.499999 0.000000 0.765136 -0.008805
C18   C     C_R   0.000001 0.499999 0.765136 -0.008804
C19   C     C_R   0.999999 0.500000 0.265136 -0.008807
C20   C     C_R   0.500000 0.999999 0.265136 -0.008804
C21   C     C_R   0.514697 0.946740 0.809808 0.548041
C22   C     C_R   0.053257 0.514712 0.809808 0.548042
C23   C     C_R   0.485301 0.053260 0.809808 0.548043
C24   C     C_R   0.999733 0.314629 0.999212 -0.101106
C25   C     C_R   0.946744 0.485286 0.809808 0.548041
C26   C     C_R   0.014724 0.446747 0.309808 0.548040
C27   C     C_R   0.553257 0.014709 0.309808 0.548041
C28   C     C_R   0.985274 0.553253 0.309808 0.548041
C29   C     C_R   0.446744 0.985289 0.309808 0.548040
C30   C     C_R   0.447780 0.978876 0.869016 0.120947
C31   C     C_R   0.021122 0.447780 0.869016 0.120944
C32   C     C_R   0.552218 0.021125 0.869016 0.120947
C33   C     C_R   0.978879 0.552220 0.869016 0.120944
C34   C     C_R   0.947785 0.478864 0.369016 0.120944
C35   C     C_R   0.185371 0.499733 0.499212 -0.101114
C36   C     C_R   0.521120 0.947778 0.369016 0.120945
C37   C     C_R   0.052213 0.521137 0.369016 0.120943
C38   C     C_R   0.478881 0.052221 0.369016 0.120945
C39   C     C_R   0.447581 0.978621 0.898791 0.001184
C40   C     C_R   0.021377 0.447580 0.898791 0.001185
C41   C     C_R   0.552418 0.021379 0.898791 0.001183
C42   C     C_R   0.978624 0.552419 0.898791 0.001185
C43   C     C_R   0.947586 0.478609 0.398791 0.001184
C44   C     C_R   0.521374 0.947579 0.398791 0.001184
C45   C     C_R   0.052413 0.521392 0.398791 0.001184
C46   C     C_R   0.500267 0.185371 0.499212 -0.101115
C47   C     C_R   0.478627 0.052420 0.398791 0.001186
C48   C     C_R   0.500000 0.000000 0.913679 -0.130294
C49   C     C_R   0.000000 0.500000 0.913679 -0.130292
C50   C     C_R   1.000000 0.500000 0.413679 -0.130301
C51   C     C_R   0.500000 1.000000 0.413679 -0.130291
C52   C     C_R   0.056078 0.499557 0.131169 0.650191
C53   C     C_R   0.500459 0.056078 0.131169 0.650191
C54   C     C_R   0.943920 0.500442 0.131169 0.650192
C55   C     C_R   0.499542 0.943920 0.131169 0.650191
C56   C     C_R   0.556078 0.999539 0.631169 0.650185
C57   C     C_R   0.814629 0.500267 0.499212 -0.101114
C58   C     C_R   0.000456 0.556078 0.631169 0.650191
C59   C     C_R   0.443920 0.000461 0.631169 0.650187
C60   C     C_R   0.999544 0.443920 0.631169 0.650193
C61   C     C_R   1.000000 0.500000 0.086568 -0.208459
C62   C     C_R   0.500000 1.000000 0.086568 -0.208479
C63   C     C_R   0.500000 0.000000 0.586568 -0.208481
C64   C     C_R   0.000000 0.500000 0.586568 -0.208475
C65   C     C_R   0.999999 0.500000 0.146011 0.031676
C66   C     C_R   0.500000 0.999999 0.146011 0.031674
C67   C     C_R   0.499999 1.000000 0.646011 0.031687
C68   C     C_R   0.499733 0.814629 0.499211 -0.101114
C69   C     C_R   0.000000 0.499999 0.646011 0.031672
C70   C     C_R   0.780956 0.034667 0.018363 -0.008481
C71   C     C_R   0.965336 0.780956 0.018364 -0.008480
C72   C     C_R   0.219043 0.965332 0.018363 -0.008482
C73   C     C_R   0.034662 0.219044 0.018365 -0.008478
C74   C     C_R   0.280956 0.534665 0.518364 -0.008481
C75   C     C_R   0.465332 0.280956 0.518363 -0.008483
C76   C     C_R   0.719043 0.465333 0.518363 -0.008481
C77   C     C_R   0.534668 0.719043 0.518363 -0.008482
C78   C     C_R   0.814501 0.998577 0.999687 -0.053474
C79   C     C_R   0.718934 0.036212 0.017682 0.057000
C80   C     C_R   0.001423 0.814501 0.999687 -0.053477
C81   C     C_R   0.185499 0.001422 0.999687 -0.053473
C82   C     C_R   0.998578 0.185499 0.999687 -0.053481
C83   C     C_R   0.314501 0.498577 0.499687 -0.053475
C84   C     C_R   0.501423 0.314501 0.499687 -0.053471
C85   C     C_R   0.685499 0.501422 0.499687 -0.053473
C86   C     C_R   0.498578 0.685499 0.499687 -0.053473
C87   C     C_R   0.782253 0.961551 0.980044 -0.199699
C88   C     C_R   0.038446 0.782253 0.980043 -0.199698
C89   C     C_R   0.217747 0.038449 0.980044 -0.199698
C90   C     C_R   0.963791 0.718934 0.017683 0.056997
C91   C     C_R   0.961557 0.217748 0.980041 -0.199696
C92   C     C_R   0.282253 0.461552 0.480043 -0.199699
C93   C     C_R   0.538450 0.282253 0.480044 -0.199700
C94   C     C_R   0.717747 0.538448 0.480043 -0.199701
C95   C     C_R   0.461551 0.717747 0.480044 -0.199700
C96   C     C_R   0.717489 0.961386 0.980117 -0.207703
C97   C     C_R   0.038611 0.717489 0.980116 -0.207705
C98   C     C_R   0.282511 0.038615 0.980117 -0.207703
C99   C     C_R   0.961392 0.282512 0.980115 -0.207708
C100  C     C_R   0.217489 0.461387 0.480117 -0.207704
C101  C     C_R   0.281065 0.963788 0.017682 0.056999
C102  C     C_R   0.538615 0.217489 0.480118 -0.207702
C103  C     C_R   0.782511 0.538614 0.480117 -0.207705
C104  C     C_R   0.461386 0.782511 0.480117 -0.207702
C105  C     C_R   0.119948 0.000290 0.999929 0.882481
C106  C     C_R   0.036207 0.281066 0.017684 0.056996
C107  C     C_R   0.218934 0.536210 0.517683 0.056997
C108  C     C_R   0.463787 0.218934 0.517682 0.057001
C109  C     C_R   0.781065 0.463788 0.517682 0.056998
C110  C     C_R   0.536212 0.781065 0.517682 0.057000
C111  C     C_3   0.714957 0.081560 0.041440 0.687541
C112  C     C_3   0.918447 0.714957 0.041443 0.687538
C113  C     C_3   0.285042 0.918439 0.041440 0.687544
C114  C     C_3   0.081547 0.285043 0.041446 0.687533
C115  C     C_3   0.214957 0.581556 0.541442 0.687539
C116  C     C_R   0.999710 0.119948 0.999929 0.882481
C117  C     C_3   0.418438 0.214957 0.541440 0.687543
C118  C     C_3   0.785042 0.418441 0.541441 0.687541
C119  C     C_3   0.581561 0.785042 0.541440 0.687542
C120  C     C_3   0.786349 0.080365 0.041957 -0.545847
C121  C     C_3   0.919641 0.786349 0.041960 -0.545846
C122  C     C_3   0.213650 0.919633 0.041956 -0.545849
C123  C     C_3   0.080352 0.213650 0.041962 -0.545841
C124  C     C_3   0.286349 0.580362 0.541958 -0.545844
C125  C     C_3   0.419632 0.286349 0.541956 -0.545850
C126  C     C_3   0.713650 0.419635 0.541957 -0.545847
C127  C     C_R   0.880052 0.999710 0.999929 0.882481
C128  C     C_3   0.580366 0.713650 0.541956 -0.545850
C129  C     C_R   0.056087 0.499526 0.101594 -0.248202
C130  C     C_R   0.500490 0.056087 0.101594 -0.248196
C131  C     C_R   0.943912 0.500474 0.101594 -0.248199
C132  C     C_R   0.499510 0.943912 0.101594 -0.248197
C133  C     C_R   0.556087 0.999507 0.601594 -0.248195
C134  C     C_R   0.000487 0.556087 0.601594 -0.248197
C135  C     C_R   0.443912 0.000493 0.601594 -0.248193
C136  C     C_R   0.999513 0.443912 0.601594 -0.248197
C137  C     C_R   0.500000 0.000000 0.944646 0.856726
C138  C     C_R   0.500290 0.380052 0.499929 0.882481
C139  C     C_R   0.000000 0.500000 0.944646 0.856726
C140  C     C_R   1.000000 0.500000 0.444646 0.856728
C141  C     C_R   0.500000 1.000000 0.444646 0.856725
C142  C     C_R   0.619947 0.000084 0.999849 0.898945
C143  C     C_R   0.999916 0.619947 0.999849 0.898945
C144  C     C_R   0.380053 0.999916 0.999849 0.898945
C145  C     C_R   0.000084 0.380053 0.999849 0.898947
C146  C     C_R   0.119947 0.500084 0.499849 0.898948
C147  C     C_R   0.499916 0.119947 0.499849 0.898944
C148  C     C_R   0.880053 0.499916 0.499849 0.898948
C149  C     C_R   0.619948 0.500290 0.499929 0.882479
C150  C     C_R   0.500084 0.880053 0.499849 0.898945
C151  C     C_R   0.500000 1.000000 0.055383 1.005512
C152  C     C_R   1.000000 0.500000 0.055383 1.005515
C153  C     C_R   0.000000 0.500000 0.555383 1.005513
C154  C     C_R   0.500000 1.000000 0.555383 1.005512
C155  C     C_R   0.985577 0.553335 0.190529 0.615191
C156  C     C_R   0.446662 0.985593 0.190530 0.615190
C157  C     C_R   0.014420 0.446665 0.190529 0.615190
C158  C     C_R   0.553339 0.014405 0.190529 0.615191
C159  C     C_R   0.485604 0.053342 0.690529 0.615190
C160  C     C_R   0.499710 0.619948 0.499929 0.882481
C161  C     C_R   0.946663 0.485590 0.690530 0.615192
C162  C     C_R   0.514393 0.946658 0.690529 0.615192
C163  C     C_R   0.053338 0.514408 0.690529 0.615191
C164  C     C_R   0.014860 0.445568 0.220276 -0.043965
C165  C     C_R   0.554436 0.014845 0.220276 -0.043967
C166  C     C_R   0.985137 0.554432 0.220276 -0.043965
C167  C     C_R   0.445565 0.985153 0.220276 -0.043967
C168  C     C_R   0.514833 0.945561 0.720276 -0.043965
C169  C     C_R   0.054435 0.514848 0.720276 -0.043967
C170  C     C_R   0.485165 0.054439 0.720276 -0.043965
C171  C     C_R   0.380052 0.499710 0.499929 0.882480
C172  C     C_R   0.945566 0.485150 0.720276 -0.043966
C173  C     C_R   0.499999 0.000000 0.854308 0.253350
C174  C     C_R   0.000001 0.500000 0.854309 0.253356
C175  C     C_R   0.999999 0.500000 0.354308 0.253356
C176  C     C_R   0.500000 1.000000 0.354309 0.253356
C177  C     C_R   0.999999 0.500000 0.235206 -0.012876
C178  C     C_R   0.500000 0.999999 0.235206 -0.012874
C179  C     C_R   0.499999 0.000000 0.735205 -0.012872
C180  C     C_R   0.000001 0.499999 0.735206 -0.012875
C181  C     C_R   0.029649 0.391570 0.235366 -0.131359
C182  C     C_R   0.685371 0.999733 0.999212 -0.101114
C183  C     C_R   0.608439 0.029617 0.235366 -0.131360
C184  C     C_R   0.970349 0.608430 0.235366 -0.131359
C185  C     C_R   0.391562 0.970381 0.235367 -0.131360
C186  C     C_R   0.529593 0.891555 0.735366 -0.131361
C187  C     C_R   0.108437 0.529624 0.735366 -0.131360
C188  C     C_R   0.470404 0.108445 0.735366 -0.131361
C189  C     C_R   0.891564 0.470374 0.735367 -0.131360
C190  C     C_R   0.529675 0.891573 0.764978 -0.141878
C191  C     C_R   0.108419 0.529706 0.764977 -0.141878
C192  C     C_R   0.470323 0.108427 0.764977 -0.141878
F1    F     F_    0.110553 0.499493 0.145441 -0.617068
F2    F     F_    0.942886 0.687607 0.065542 -0.622177
F3    F     F_    0.312391 0.942874 0.065540 -0.622175
F4    F     F_    0.057103 0.312392 0.065544 -0.622177
F5    F     F_    0.187608 0.557118 0.565541 -0.622175
F6    F     F_    0.442872 0.187608 0.565540 -0.622174
F7    F     F_    0.812391 0.442877 0.565540 -0.622174
F8    F     F_    0.557125 0.812391 0.565540 -0.622174
F9    F     F_    0.500538 0.110553 0.145441 -0.617067
F10   F     F_    0.889445 0.500507 0.145441 -0.617067
F11   F     F_    0.499462 0.889446 0.145442 -0.617066
F12   F     F_    0.610552 0.999455 0.645442 -0.617069
F13   F     F_    0.000533 0.610553 0.645441 -0.617066
F14   F     F_    0.389446 0.000545 0.645442 -0.617069
F15   F     F_    0.999467 0.389445 0.645442 -0.617066
F16   F     F_    0.687608 0.057124 0.065540 -0.622174
H1    H     H_    0.541289 0.849184 0.775984 0.195355
H2    H     H_    0.067521 0.806864 0.965111 0.159842
H3    H     H_    0.327440 0.196906 0.549095 0.209168
H4    H     H_    0.789692 0.342890 0.514637 0.140885
H5    H     H_    0.803094 0.327444 0.549097 0.209168
H6    H     H_    0.657110 0.789691 0.514636 0.140885
H7    H     H_    0.672558 0.803093 0.549096 0.209168
H8    H     H_    0.193136 0.067527 0.965113 0.159839
H9    H     H_    0.932484 0.193137 0.965109 0.159844
H10   H     H_    0.306864 0.432476 0.465112 0.159841
H11   H     H_    0.567528 0.306864 0.465114 0.159839
H12   H     H_    0.693136 0.567526 0.465113 0.159840
H13   H     H_    0.432473 0.693136 0.465113 0.159839
H14   H     H_    0.692770 0.932288 0.965230 0.156962
H15   H     H_    0.067707 0.692770 0.965228 0.156960
H16   H     H_    0.307230 0.067713 0.965231 0.156963
H17   H     H_    0.150805 0.541331 0.775983 0.195354
H18   H     H_    0.932298 0.307231 0.965226 0.156957
H19   H     H_    0.192770 0.432291 0.465229 0.156964
H20   H     H_    0.567714 0.192770 0.465231 0.156962
H21   H     H_    0.807230 0.567712 0.465230 0.156966
H22   H     H_    0.432287 0.807230 0.465231 0.156962
H23   H     H_    0.808816 0.123987 0.034948 0.168494
H24   H     H_    0.876018 0.808816 0.034952 0.168495
H25   H     H_    0.191183 0.876011 0.034947 0.168494
H26   H     H_    0.123977 0.191184 0.034956 0.168496
H27   H     H_    0.308816 0.623984 0.534950 0.168494
H28   H     H_    0.458709 0.150816 0.775983 0.195355
H29   H     H_    0.376011 0.308816 0.534947 0.168494
H30   H     H_    0.691184 0.376013 0.534948 0.168493
H31   H     H_    0.623988 0.691183 0.534947 0.168494
H32   H     H_    0.805992 0.059334 0.061508 0.249110
H33   H     H_    0.940676 0.805991 0.061510 0.249110
H34   H     H_    0.194007 0.940664 0.061507 0.249111
H35   H     H_    0.059315 0.194008 0.061511 0.249109
H36   H     H_    0.305992 0.559329 0.561509 0.249110
H37   H     H_    0.440663 0.305992 0.561507 0.249111
H38   H     H_    0.694007 0.440666 0.561508 0.249111
H39   H     H_    0.849196 0.458667 0.775984 0.195354
H40   H     H_    0.559335 0.694007 0.561507 0.249112
H41   H     H_    0.099936 0.499188 0.090510 0.210756
H42   H     H_    0.500840 0.099936 0.090510 0.210763
H43   H     H_    0.900063 0.500812 0.090510 0.210757
H44   H     H_    0.499160 0.900063 0.090510 0.210763
H45   H     H_    0.599936 0.999154 0.590510 0.210764
H46   H     H_    0.000836 0.599936 0.590510 0.210762
H47   H     H_    0.400063 0.000846 0.590510 0.210764
H48   H     H_    0.999164 0.400063 0.590510 0.210762
H49   H     H_    0.041226 0.349168 0.224363 0.198355
H50   H     H_    0.041366 0.349204 0.275984 0.195354
H51   H     H_    0.650843 0.041182 0.224362 0.198356
H52   H     H_    0.958771 0.650831 0.224362 0.198355
H53   H     H_    0.349158 0.958815 0.224363 0.198356
H54   H     H_    0.541149 0.849149 0.724363 0.198356
H55   H     H_    0.150841 0.541192 0.724362 0.198356
H56   H     H_    0.458848 0.150852 0.724362 0.198355
H57   H     H_    0.849160 0.458806 0.724363 0.198356
H58   H     H_    0.385957 0.912223 0.859123 0.218668
H59   H     H_    0.357003 0.984946 0.859231 0.210924
H60   H     H_    0.087773 0.385952 0.859123 0.218657
H61   H     H_    0.650807 0.041322 0.275983 0.195354
H62   H     H_    0.015048 0.357003 0.859231 0.210932
H63   H     H_    0.614042 0.087777 0.859122 0.218668
H64   H     H_    0.642996 0.015055 0.859230 0.210923
H65   H     H_    0.912228 0.614046 0.859122 0.218657
H66   H     H_    0.984952 0.642997 0.859230 0.210932
H67   H     H_    0.885978 0.412195 0.359122 0.218659
H68   H     H_    0.857007 0.484911 0.359231 0.210931
H69   H     H_    0.587767 0.885948 0.359123 0.218658
H70   H     H_    0.515042 0.857002 0.359231 0.210932
H71   H     H_    0.114021 0.587805 0.359122 0.218659
H72   H     H_    0.958632 0.650796 0.275983 0.195354
H73   H     H_    0.142992 0.515090 0.359230 0.210931
H74   H     H_    0.412233 0.114050 0.359122 0.218658
H75   H     H_    0.484959 0.142998 0.359230 0.210932
H76   H     H_    0.405176 0.919603 0.925984 0.214389
H77   H     H_    0.378066 0.993173 0.926888 0.178800
H78   H     H_    0.080392 0.405172 0.925984 0.214386
H79   H     H_    0.006822 0.378066 0.926888 0.178799
H80   H     H_    0.594823 0.080397 0.925983 0.214389
H81   H     H_    0.621934 0.006828 0.926887 0.178801
H82   H     H_    0.919608 0.594827 0.925983 0.214386
H83   H     H_    0.349194 0.958676 0.275984 0.195354
H84   H     H_    0.993178 0.621934 0.926888 0.178800
H85   H     H_    0.905193 0.419580 0.425983 0.214397
H86   H     H_    0.878068 0.493144 0.426888 0.178802
H87   H     H_    0.580388 0.905169 0.425984 0.214384
H88   H     H_    0.506816 0.878065 0.426888 0.178801
H89   H     H_    0.094806 0.580420 0.425983 0.214397
H90   H     H_    0.121932 0.506856 0.426887 0.178802
H91   H     H_    0.419612 0.094831 0.425984 0.214384
H92   H     H_    0.493184 0.121934 0.426888 0.178800
H93   H     H_    0.710308 0.157109 0.014637 0.140886
H94   H     H_    0.806864 0.932473 0.965113 0.159839
H95   H     H_    0.696905 0.172557 0.049096 0.209169
H96   H     H_    0.842893 0.710308 0.014643 0.140886
H97   H     H_    0.827451 0.696905 0.049103 0.209170
H98   H     H_    0.289691 0.842890 0.014636 0.140886
H99   H     H_    0.303094 0.827442 0.049096 0.209168
H100  H     H_    0.157105 0.289692 0.014647 0.140887
H101  H     H_    0.172541 0.303095 0.049108 0.209171
H102  H     H_    0.210308 0.657108 0.514640 0.140886
H103  H     H_    0.196905 0.672552 0.549099 0.209169
H104  H     H_    0.342889 0.210309 0.514636 0.140885
N1    N     N_R   0.999999 0.500000 0.176386 -0.320323
N2    N     N_3   0.042011 0.394986 0.853337 -0.431111
N3    N     N_3   0.605010 0.042015 0.853336 -0.431107
N4    N     N_3   0.957990 0.605013 0.853336 -0.431111
N5    N     N_3   0.894999 0.457960 0.353337 -0.431111
N6    N     N_3   0.542006 0.894984 0.353337 -0.431111
N7    N     N_3   0.105000 0.542041 0.353336 -0.431110
N8    N     N_3   0.457995 0.105014 0.353336 -0.431111
N9    N     N_3   0.393368 0.957761 0.913514 -0.461313
N10   N     N_3   0.042235 0.393366 0.913514 -0.461314
N11   N     N_3   0.606631 0.042240 0.913513 -0.461314
N12   N     N_R   0.500000 0.999999 0.176386 -0.320321
N13   N     N_3   0.957766 0.606634 0.913513 -0.461314
N14   N     N_3   0.893377 0.457736 0.413513 -0.461312
N15   N     N_3   0.542230 0.893364 0.413514 -0.461314
N16   N     N_3   0.106622 0.542264 0.413513 -0.461313
N17   N     N_3   0.457771 0.106636 0.413513 -0.461313
N18   N     N_3   0.688074 0.140739 0.032891 -0.421422
N19   N     N_3   0.859266 0.688074 0.032896 -0.421421
N20   N     N_3   0.311926 0.859259 0.032891 -0.421422
N21   N     N_3   0.140729 0.311926 0.032900 -0.421421
N22   N     N_3   0.188074 0.640736 0.532894 -0.421423
N23   N     N_R   0.499999 0.000000 0.676385 -0.320318
N24   N     N_3   0.359259 0.188074 0.532890 -0.421422
N25   N     N_3   0.811925 0.359261 0.532892 -0.421423
N26   N     N_3   0.640740 0.811925 0.532890 -0.421422
N27   N     N_R   0.000001 0.499999 0.676386 -0.320322
N28   N     N_R   0.499999 0.000000 0.823923 -0.328203
N29   N     N_R   0.000001 0.499999 0.823923 -0.328203
N30   N     N_R   0.999999 0.500000 0.323923 -0.328203
N31   N     N_R   0.500001 0.999999 0.323923 -0.328202
N32   N     N_3   0.394988 0.957986 0.853337 -0.431108
O1    O     O_R   0.000030 0.908460 0.023630 -0.610442
O2    O     O_R   0.091470 0.000060 0.976290 -0.628707
O3    O     O_R   0.999940 0.091470 0.976290 -0.628708
O4    O     O_R   0.908530 0.999940 0.976290 -0.628706
O5    O     O_R   0.500060 0.408530 0.476290 -0.628707
O6    O     O_R   0.591470 0.500060 0.476290 -0.628707
O7    O     O_R   0.499940 0.591470 0.476290 -0.628707
O8    O     O_R   0.408530 0.499940 0.476290 -0.628707
O9    O     O_R   0.500070 0.051830 0.958000 -0.625065
O10   O     O_R   0.948170 0.500070 0.958000 -0.625063
O11   O     O_R   0.499930 0.948170 0.958000 -0.625065
O12   O     O_R   0.091540 0.000030 0.023630 -0.610442
O13   O     O_R   0.051830 0.499930 0.958000 -0.625064
O14   O     O_R   0.000070 0.551830 0.458000 -0.625068
O15   O     O_R   0.448170 0.000070 0.458000 -0.625063
O16   O     O_R   0.999930 0.448170 0.458000 -0.625067
O17   O     O_R   0.551830 0.999930 0.458000 -0.625063
O18   O     O_R   0.591650 0.051830 0.999920 -0.615398
O19   O     O_R   0.948170 0.591650 0.999920 -0.615399
O20   O     O_R   0.408350 0.948170 0.999920 -0.615397
O21   O     O_R   0.051830 0.408350 0.999920 -0.615401
O22   O     O_R   0.091650 0.551830 0.499920 -0.615400
O23   O     O_R   0.999970 0.091540 0.023630 -0.610443
O24   O     O_R   0.448170 0.091650 0.499920 -0.615397
O25   O     O_R   0.908350 0.448170 0.499920 -0.615399
O26   O     O_R   0.551830 0.908350 0.499920 -0.615397
O27   O     O_R   0.591650 0.948400 0.999950 -0.617963
O28   O     O_R   0.051600 0.591650 0.999950 -0.617962
O29   O     O_R   0.408350 0.051600 0.999950 -0.617963
O30   O     O_R   0.948400 0.408350 0.999950 -0.617960
O31   O     O_R   0.091650 0.448400 0.499950 -0.617961
O32   O     O_R   0.551600 0.091650 0.499950 -0.617964
O33   O     O_R   0.908350 0.551600 0.499950 -0.617961
O34   O     O_R   0.908460 0.999970 0.023630 -0.610442
O35   O     O_R   0.448400 0.908350 0.499950 -0.617963
O36   O     O_R   0.500010 0.051830 0.041840 -0.612519
O37   O     O_R   0.948170 0.500010 0.041840 -0.612520
O38   O     O_R   0.499990 0.948170 0.041840 -0.612520
O39   O     O_R   0.051830 0.499990 0.041840 -0.612521
O40   O     O_R   0.000010 0.551830 0.541840 -0.612520
O41   O     O_R   0.448170 0.000010 0.541840 -0.612519
O42   O     O_R   0.999990 0.448170 0.541840 -0.612520
O43   O     O_R   0.551830 0.999990 0.541840 -0.612519
O44   O     O_2   0.972018 0.605101 0.175808 -0.510277
O45   O     O_R   0.500030 0.408460 0.523630 -0.610442
O46   O     O_2   0.394892 0.972049 0.175809 -0.510278
O47   O     O_2   0.027980 0.394898 0.175808 -0.510276
O48   O     O_2   0.605109 0.027949 0.175808 -0.510278
O49   O     O_2   0.472071 0.105115 0.675808 -0.510285
O50   O     O_2   0.894893 0.472042 0.675809 -0.510278
O51   O     O_2   0.527927 0.894885 0.675808 -0.510285
O52   O     O_2   0.105108 0.527956 0.675808 -0.510277
O53   O     O_2   0.529081 0.895247 0.824563 -0.552961
O54   O     O_2   0.104746 0.529110 0.824563 -0.552960
O55   O     O_2   0.470917 0.104754 0.824563 -0.552961
O56   O     O_R   0.591540 0.500030 0.523630 -0.610441
O57   O     O_2   0.895255 0.470889 0.824563 -0.552960
O58   O     O_2   0.029134 0.395261 0.324563 -0.552961
O59   O     O_2   0.604748 0.029103 0.324563 -0.552960
O60   O     O_2   0.970865 0.604740 0.324563 -0.552960
O61   O     O_2   0.395253 0.970895 0.324563 -0.552961
O62   O     O_R   0.499970 0.591540 0.523630 -0.610442
O63   O     O_R   0.408460 0.499970 0.523630 -0.610442
O64   O     O_R   0.000060 0.908530 0.976290 -0.628707
Zn1   Zn    Zn3+2 1.000000 0.000000 0.031570 1.003299
Zn2   Zn    Zn3+2 0.430820 0.000040 0.499920 1.003042
Zn3   Zn    Zn3+2 0.999960 0.430820 0.499920 1.003039
Zn4   Zn    Zn3+2 0.569180 0.999960 0.499920 1.003042
Zn5   Zn    Zn3+2 0.500000 0.500000 0.531570 1.003302
Zn6   Zn    Zn3+2 1.000000 0.000000 0.968360 0.967661
Zn7   Zn    Zn3+2 0.500000 0.500000 0.468360 0.967662
Zn8   Zn    Zn3+2 0.500040 0.069180 0.999920 1.003041
Zn9   Zn    Zn3+2 0.930820 0.500040 0.999920 1.003043
Zn10  Zn    Zn3+2 0.499960 0.930820 0.999920 1.003041
Zn11  Zn    Zn3+2 0.069180 0.499960 0.999920 1.003039
Zn12  Zn    Zn3+2 0.000040 0.569180 0.499920 1.003037

loop_
_geom_bond_atom_site_label_1
_geom_bond_atom_site_label_2
_ccdc_geom_bond_type
H79   N10   S    
C159  N23   A    
C151  O36   A    
C165  C178  A    
C126  H38   S    
C101  C113  S    
C74   C83   A    
C6    H72   S    
C22   O54   S    
C54   C65   A    
C58   C134  A    
C114  F4    S    
C63   C133  A    
C111  N18   S    
C33   N4    S    
C3    C189  A    
C28   N30   A    
C100  H19   S    
C50   C140  S    
C181  H49   S    
C72   C101  A    
C144  O20   A    
C167  C185  A    
O32   Zn4   S    
C2    C90   A    
C161  C172  A    
C57   C109  A    
C113  C122  S    
C8    C190  A    
C83   C171  S    
C163  O52   S    
C124  H36   S    
C169  C180  A    
C88   C97   A    
C161  O50   S    
H60   N2    S    
C119  C128  S    
C191  H17   S    
C121  H24   S    
C88   H2    S    
O29   Zn8   S    
H96   N19   S    
C154  O41   A    
C118  N25   S    
C78   C127  S    
C156  N12   A    
C109  C118  S    
C148  O25   A    
C64   C134  A    
C29   N31   A    
C119  F8    S    
C165  C183  A    
C62   C132  A    
C171  O63   A    
C169  C187  A    
C133  H45   S    
C58   F13   S    
O33   Zn12  S    
O20   Zn10  S    
C53   F9    S    
C82   C91   A    
C97   H15   S    
C6    C184  A    
C102  H20   S    
C186  C190  A    
C152  O39   A    
H101  N21   S    
H70   N6    S    
O1    Zn1   S    
C16   C20   A    
C55   F11   S    
C166  C177  A    
C95   H13   S    
H78   N10   S    
H89   N16   S    
C59   F14   S    
C142  C182  S    
H7    N26   S    
C36   C44   A    
C37   C45   A    
C126  H30   S    
C175  N30   S    
C44   N15   S    
O39   Zn11  S    
C70   C79   A    
O37   Zn9   S    
C60   F15   S    
C32   C173  A    
C8    C17   A    
C156  C167  A    
C79   C182  A    
O27   Zn10  S    
H76   N9    S    
C176  N31   S    
C80   C88   A    
C40   N10   S    
C45   N16   S    
O2    Zn6   S    
C161  N27   A    
C45   C50   A    
C122  H25   S    
C171  O8    A    
C84   C93   A    
H92   N17   S    
C99   H18   S    
C35   C107  A    
C86   C95   A    
C162  O51   S    
O17   Zn4   S    
C47   N17   S    
C55   C132  A    
H93   N18   S    
C9    C191  A    
C76   C85   A    
C42   N13   S    
C52   C65   A    
C158  C165  A    
C145  O21   A    
C78   C87   A    
C64   C136  A    
O30   Zn9   S    
C69   N27   S    
H88   N15   S    
C62   C130  A    
C114  N21   S    
C26   N30   A    
C123  H35   S    
C148  O33   A    
C186  H54   S    
C128  H31   S    
C121  H33   S    
C33   C42   A    
C145  O30   A    
C127  O4    A    
C43   N14   S    
C24   C145  S    
O41   Zn2   S    
C65   N1    S    
C75   C84   A    
C11   C25   A    
C30   N32   S    
C40   C49   A    
O11   Zn10  S    
H73   N7    S    
C13   C144  S    
H74   N8    S    
C1    O1    A    
C164  C181  A    
C59   C67   A    
C74   C107  A    
H6    N26   S    
C70   C120  S    
C76   C109  A    
C73   C123  S    
C46   C108  A    
C32   C41   A    
O42   Zn3   S    
C4    C181  A    
C60   C136  A    
C61   C129  A    
C17   C179  A    
C21   O53   S    
C116  O3    A    
C189  H57   S    
O25   Zn3   S    
O26   Zn4   S    
C157  O47   S    
C153  O40   A    
C131  H43   S    
C158  O48   S    
C51   C141  S    
C81   C105  S    
C168  C186  A    
C3    C11   A    
C27   O59   S    
H75   N8    S    
H4    N25   S    
C119  N26   S    
C25   O57   S    
C64   C153  S    
C12   C26   A    
H64   N3    S    
C66   N12   S    
C123  H26   S    
H59   N32   S    
C174  N29   S    
C167  C178  A    
H97   N19   S    
C33   C174  A    
C157  C164  A    
C112  F2    S    
H69   N6    S    
C89   H8    S    
C162  C168  A    
C114  C123  S    
C31   N2    S    
H66   N4    S    
C49   C139  S    
C4    C12   A    
C35   C100  A    
H84   N13   S    
H81   N11   S    
C141  O17   A    
C163  N27   A    
O31   Zn3   S    
C138  O5    A    
C108  C117  S    
C7    C185  A    
C34   C43   A    
H95   N18   S    
C110  C119  S    
C43   C50   A    
C162  N23   A    
C170  C179  A    
C188  C192  A    
C112  C121  S    
C71   C90   A    
C60   C69   A    
C151  O38   A    
C36   N6    S    
O36   Zn8   S    
C157  N1    A    
C30   C39   A    
C68   C150  S    
C61   C131  A    
C9    C18   A    
C150  O35   A    
C24   C106  A    
C170  C188  A    
H87   N15   S    
C91   C99   A    
O38   Zn10  S    
C117  C125  S    
C34   N5    S    
C117  F6    S    
O35   Zn2   S    
O12   Zn1   S    
C103  H21   S    
C74   C124  S    
O6    Zn7   S    
O62   Zn5   S    
C76   C126  S    
C125  H37   S    
C11   C18   A    
C15   C19   A    
C115  F5    S    
C132  H44   S    
C184  H52   S    
C52   C129  A    
C159  C170  A    
C115  N22   S    
C70   C78   A    
C150  O26   A    
C160  O7    A    
C31   C40   A    
O4    Zn6   S    
C105  O2    A    
H68   N5    S    
O5    Zn7   S    
O3    Zn6   S    
C34   C175  A    
C112  N19   S    
C7    H83   S    
C146  O31   A    
C158  N12   A    
C2    C97   A    
C21   N28   A    
C14   C27   A    
C72   C81   A    
C81   C89   A    
C172  C180  A    
C75   C108  A    
O24   Zn2   S    
C147  O24   A    
C3    H39   S    
C71   C121  S    
C192  H28   S    
C129  H41   S    
C57   C103  A    
C62   C151  S    
C52   F1    S    
C142  O27   A    
C14   C20   A    
O13   Zn11  S    
O21   Zn11  S    
C113  N20   S    
C143  O19   A    
H103  N22   S    
O22   Zn12  S    
C47   C51   A    
C10   C192  A    
C149  O56   A    
C75   C125  S    
C35   C146  S    
C155  O44   S    
H98   N20   S    
C104  H22   S    
C46   C147  S    
H90   N16   S    
C166  C184  A    
C41   N11   S    
C92   H10   S    
H82   N13   S    
C5    C14   A    
C120  H32   S    
H80   N11   S    
H77   N9    S    
C7    C16   A    
C94   C103  A    
C36   C176  A    
C183  H51   S    
O34   Zn1   S    
H100  N21   S    
C73   C82   A    
C55   C66   A    
C125  H29   S    
C1    O64   A    
C26   O58   S    
C115  C124  S    
C68   C104  A    
C63   C154  S    
C96   C182  A    
C93   C102  A    
C20   C178  A    
C58   C69   A    
C140  O14   A    
C172  C189  A    
C168  C179  A    
C89   C98   A    
C5    H61   S    
H104  N24   S    
C93   H11   S    
C82   C116  S    
C39   N9    S    
C23   O55   S    
C15   C28   A    
H67   N5    S    
C12   C19   A    
C59   C135  A    
C37   N7    S    
C38   N8    S    
O16   Zn3   S    
C163  C169  A    
C173  N28   S    
C23   N28   A    
O8    Zn7   S    
C9    C22   A    
C57   C148  S    
C1    C80   S    
C137  O9    A    
C155  C166  A    
C135  H47   S    
O56   Zn5   S    
C86   C160  S    
C5    C183  A    
C146  O22   A    
C39   C48   A    
H91   N17   S    
H86   N14   S    
C91   H9    S    
H3    N24   S    
C159  O49   S    
C24   C99   A    
O28   Zn11  S    
C90   C112  S    
C25   N29   A    
C56   C133  A    
C122  H34   S    
C144  O29   A    
C27   N31   A    
C83   C92   A    
C46   C102  A    
H58   N32   S    
C48   C137  S    
C106  C114  S    
O7    Zn7   S    
C153  O42   A    
O63   Zn5   S    
O43   Zn4   S    
C190  H1    S    
C156  O46   S    
C149  O6    A    
C37   C175  A    
C10   C17   A    
C142  O18   A    
C54   C131  A    
C13   C98   A    
O40   Zn12  S    
C143  O28   A    
C6    C15   A    
C124  H27   S    
C38   C176  A    
O19   Zn9   S    
H5    N25   S    
C30   C173  A    
C187  C191  A    
C117  N24   S    
H71   N7    S    
C84   C138  S    
H85   N14   S    
C2    C143  S    
C113  F3    S    
C152  O37   A    
C139  O10   A    
C118  F7    S    
C120  H23   S    
C94   H12   S    
C71   C80   A    
C140  O16   A    
C130  H42   S    
H62   N2    S    
O64   Zn6   S    
C29   O61   S    
C128  H40   S    
O9    Zn8   S    
H99   N20   S    
C134  H46   S    
C105  O12   A    
C68   C110  A    
H65   N4    S    
C32   N3    S    
C16   C29   A    
C54   F10   S    
C98   H16   S    
C111  C120  S    
C63   C135  A    
C141  O15   A    
C85   C94   A    
O15   Zn2   S    
C127  O34   A    
C87   C96   A    
C8    C21   A    
C67   N23   S    
C137  O11   A    
C53   C66   A    
O23   Zn1   S    
C107  C115  S    
C38   C47   A    
C77   C128  S    
C44   C51   A    
C77   C86   A    
C13   C101  A    
O10   Zn9   S    
C160  O62   A    
C95   C104  A    
C92   C100  A    
C155  N1    A    
C22   N29   A    
C19   C177  A    
C4    H50   S    
C72   C122  S    
H63   N3    S    
C136  H48   S    
C154  O43   A    
C56   F12   S    
C10   C23   A    
C56   C67   A    
C188  H56   S    
C96   H14   S    
C138  O45   A    
C79   C111  S    
C139  O13   A    
C116  O23   A    
C185  H53   S    
C73   C106  A    
O18   Zn8   S    
C187  H55   S    
C41   C48   A    
C147  O32   A    
O45   Zn5   S    
C77   C110  A    
C61   C152  S    
C85   C149  S    
C28   O60   S    
C42   C49   A    
C18   C180  A    
O14   Zn12  S    
C87   H94   S    
C53   C130  A    
C118  C126  S    
C111  F16   S    
C31   C174  A    
C164  C177  A    
H102  N22   S    
