data_mof_unit_31778.cif
_audit_creation_date              2013-03-05T15:53:43-0500
_audit_creation_method            fapswitch 2.2
_symmetry_space_group_name_H-M    P1
_symmetry_Int_Tables_number       1
_space_group_crystal_system       triclinic
_cell_length_a                    12.957194
_cell_length_b                    13.297795
_cell_length_c                    27.728326
_cell_angle_alpha                 95.120784
_cell_angle_beta                  89.808949
_cell_angle_gamma                 119.124363
_cell_volume                      4152.51215087

loop_
_atom_site_label
_atom_site_type_symbol
_atom_site_description
_atom_site_fract_x
_atom_site_fract_y
_atom_site_fract_z
_atom_type_partial_charge
O1    O     O_R   0.296680 0.802170 0.437540 -0.536747
O2    O     O_R   0.525380 0.838530 0.443500 -0.507873
C1    C     C_R   0.627815 0.896227 0.427097 0.545202
O3    O     O_R   0.702130 0.995190 0.446810 -0.510335
O4    O     O_R   0.661770 0.181390 0.458760 -0.503549
C2    C     C_R   0.600945 0.221436 0.440363 0.542700
O5    O     O_R   0.499820 0.198480 0.455280 -0.467068
O6    O     O_R   0.311660 0.976250 0.449080 -0.435300
C3    C     C_R   0.269289 0.876242 0.425455 0.566420
O7    O     O_R   0.297580 0.804960 0.544440 -0.484356
O8    O     O_R   0.526220 0.841130 0.542590 -0.483008
C4    C     C_R   0.626900 0.899043 0.565038 0.556025
O9    O     O_R   0.703030 0.997990 0.553710 -0.489885
O10   O     O_R   0.662610 0.183990 0.557860 -0.493366
C5    C     C_R   0.601379 0.225046 0.579035 0.543266
O11   O     O_R   0.500730 0.201280 0.562180 -0.516828
O12   O     O_R   0.312500 0.978850 0.548170 -0.495644
C6    C     C_R   0.271588 0.879597 0.563398 0.558730
Cr1   Cr    Cr6+3 0.416430 0.829200 0.492370 1.055744
Cr2   Cr    Cr6+3 0.674630 0.087020 0.504170 1.065900
Cr3   Cr    Cr6+3 0.408920 0.083740 0.503490 1.115482
O13   O     O_3   0.499990 0.999990 0.500010 -0.270771
C7    C     C_1   0.632079 0.265956 0.394058 0.009286
C8    C     C_R   0.774125 0.368364 0.283213 -0.091639
C9    C     C_R   0.784465 0.383208 0.233708 -0.064845
C10   C     C_R   0.570844 0.277745 0.221938 -0.093594
C11   C     C_R   0.560517 0.262967 0.271359 -0.096830
C12   C     C_R   0.661999 0.309154 0.302238 0.031346
C13   C     C_R   0.682786 0.338178 0.202962 0.048471
C14   C     C_1   0.692903 0.363545 0.153147 -0.017146
C15   C     C_1   0.649515 0.290434 0.352838 -0.040419
C16   C     C_1   0.702407 0.392905 0.112692 0.024587
H1    H     H_    0.853241 0.403430 0.306596 0.122455
H2    H     H_    0.871519 0.431264 0.219569 0.138994
H3    H     H_    0.491582 0.243653 0.198706 0.132615
H4    H     H_    0.473332 0.215908 0.285537 0.139675
C17   C     C_R   0.209153 0.762486 0.346536 -0.167384
C18   C     C_R   0.199509 0.759140 0.296808 -0.002924
C19   C     C_R   0.185679 0.754229 0.196331 0.012665
C20   C     C_R   0.206614 0.673497 0.217147 -0.119236
C21   C     C_R   0.211527 0.674776 0.267183 -0.119113
C22   C     C_R   0.167695 0.745050 0.146499 -0.117415
H5    H     H_    0.172051 0.675984 0.124230 0.158967
H6    H     H_    0.225019 0.698008 0.361177 0.147364
H7    H     H_    0.215360 0.607180 0.194760 0.138404
H8    H     H_    0.225310 0.610123 0.282755 0.117786
C23   C     C_R   0.128677 0.813996 0.126152 -0.005392
C24   C     C_R   0.188250 0.935856 0.357290 0.195637
C25   C     C_R   0.171930 0.929598 0.306532 -0.003140
C26   C     C_R   0.182324 0.843379 0.276480 0.025821
C27   C     C_R   0.146672 0.007552 0.284857 -0.104350
C28   C     C_R   0.134408 0.001445 0.234554 -0.143312
C29   C     C_R   0.147297 0.917741 0.204920 0.002987
C30   C     C_R   0.173229 0.839486 0.225909 0.066507
C31   C     C_R   0.125810 0.905031 0.154882 -0.128626
C32   C     C_R   0.213039 0.854720 0.376876 -0.007176
H9    H     H_    0.096901 0.959402 0.139089 0.144250
H10   H     H_    0.113027 0.061089 0.218816 0.169849
H11   H     H_    0.134471 0.072553 0.306417 0.185366
C33   C     C_R   0.745274 0.947096 0.354792 -0.110746
C34   C     C_R   0.745850 0.939404 0.304624 -0.032870
C35   C     C_R   0.741995 0.928196 0.203511 -0.014028
C36   C     C_R   0.826268 0.030307 0.231344 0.214762
C37   C     C_R   0.830106 0.032579 0.281707 -0.114670
C38   C     C_R   0.749090 0.913896 0.153589 -0.138780
H12   H     H_    0.821473 0.981059 0.136175 0.201092
H13   H     H_    0.813071 0.024725 0.375301 0.153984
H14   H     H_    0.895715 0.109750 0.303196 0.151365
C39   C     C_R   0.675446 0.807670 0.126789 -0.023270
C40   C     C_R   0.563301 0.763089 0.351284 -0.126392
C41   C     C_R   0.566176 0.751350 0.300839 0.024746
C42   C     C_R   0.655916 0.841495 0.277308 0.057463
C43   C     C_R   0.477213 0.654309 0.273478 -0.139376
C44   C     C_R   0.478195 0.645159 0.223077 -0.099785
C45   C     C_R   0.568790 0.733010 0.199050 0.007310
C46   C     C_R   0.655362 0.834333 0.226567 -0.008800
C47   C     C_R   0.577777 0.720443 0.148494 0.197750
C48   C     C_R   0.649977 0.863456 0.378112 0.004484
H15   H     H_    0.407902 0.568470 0.203314 0.175923
H16   H     H_    0.406865 0.585272 0.291076 0.116784
H17   H     H_    0.489680 0.698091 0.369244 0.127806
C49   C     C_R   0.738282 0.301143 0.652408 -0.107050
C50   C     C_R   0.752220 0.317300 0.703265 -0.004436
C51   C     C_R   0.772633 0.350050 0.805267 -0.038487
C52   C     C_R   0.869405 0.362818 0.778521 -0.119420
C53   C     C_R   0.859800 0.344287 0.727764 0.206603
C54   C     C_R   0.784397 0.375031 0.855549 -0.129344
H18   H     H_    0.870222 0.407453 0.873764 0.138975
H19   H     H_    0.952647 0.386301 0.797172 0.153737
C55   C     C_R   0.688907 0.369820 0.881514 0.000598
C56   C     C_R   0.537805 0.270178 0.657271 -0.116711
C57   C     C_R   0.547760 0.281925 0.707246 0.015234
C58   C     C_R   0.654791 0.305462 0.730565 0.028914
C59   C     C_R   0.450244 0.266584 0.734073 -0.130345
C60   C     C_R   0.458592 0.275961 0.784285 -0.132277
C61   C     C_R   0.565551 0.304008 0.808051 0.020607
C62   C     C_R   0.664065 0.318460 0.781279 0.053339
C63   C     C_R   0.577802 0.326131 0.858117 -0.125326
C64   C     C_R   0.630118 0.273791 0.629643 -0.013876
H20   H     H_    0.503413 0.320058 0.878283 0.135663
H21   H     H_    0.382637 0.264846 0.804521 0.120248
H22   H     H_    0.367288 0.246724 0.716183 0.128262
C65   C     C_1   0.221260 0.863122 0.610066 0.032219
C66   C     C_R   0.077586 0.745688 0.718152 -0.064437
C67   C     C_R   0.063494 0.735383 0.767801 -0.078463
C68   C     C_R   0.232426 0.927079 0.785786 -0.088415
C69   C     C_R   0.246516 0.937313 0.736112 -0.058515
C70   C     C_R   0.169292 0.846648 0.702197 0.066370
C71   C     C_R   0.141321 0.825685 0.801721 0.040380
C72   C     C_1   0.124568 0.813604 0.852641 -0.053342
C73   C     C_1   0.192062 0.853963 0.651455 -0.002706
C74   C     C_1   0.100946 0.796680 0.894258 -0.006288
H23   H     H_    0.992453 0.656645 0.779754 0.118289
H24   H     H_    0.292880 0.997535 0.811622 0.112870
H25   H     H_    0.319024 0.014846 0.724102 0.129706
C75   C     C_1   0.640839 0.867051 0.611606 0.046740
C76   C     C_R   0.748821 0.838998 0.724834 -0.142271
C77   C     C_R   0.755247 0.828331 0.774191 -0.113598
C78   C     C_R   0.556534 0.799045 0.782025 -0.084875
C79   C     C_R   0.548917 0.810640 0.732390 0.235481
C80   C     C_R   0.646735 0.830804 0.703610 0.025066
C81   C     C_R   0.659607 0.809200 0.802934 -0.005288
C82   C     C_1   0.668604 0.799236 0.853830 -0.043455
C83   C     C_1   0.645619 0.847425 0.652928 0.020916
C84   C     C_1   0.684429 0.789961 0.895638 0.002527
H26   H     H_    0.824165 0.854751 0.703245 0.126608
H27   H     H_    0.835229 0.835513 0.790020 0.126901
H28   H     H_    0.482929 0.784260 0.804573 0.152926
O14   O     O_R   0.820790 0.857990 0.068830 -0.529674
O15   O     O_R   0.016700 0.827330 0.062850 -0.502675
C85   C     C_R   0.065580 0.773254 0.078878 0.548414
O16   O     O_R   0.041970 0.673520 0.060040 -0.507344
O17   O     O_R   0.817980 0.483660 0.048840 -0.497911
C86   C     C_R   0.716877 0.441323 0.067265 0.547138
O18   O     O_R   0.637200 0.461990 0.052510 -0.461709
O19   O     O_R   0.664790 0.681920 0.057970 -0.430548
C87   C     C_R   0.718874 0.783082 0.080583 0.560830
O20   O     O_R   0.815840 0.852920 0.961840 -0.504938
O21   O     O_R   0.012100 0.822630 0.963670 -0.495058
C88   C     C_R   0.056628 0.766007 0.941231 0.546747
O22   O     O_R   0.037010 0.668460 0.953040 -0.502779
O23   O     O_R   0.813390 0.478970 0.949660 -0.506367
C89   C     C_R   0.710272 0.432652 0.929526 0.538679
O24   O     O_R   0.632250 0.456930 0.945520 -0.515694
O25   O     O_R   0.660200 0.677230 0.958780 -0.488532
C90   C     C_R   0.716489 0.776144 0.943029 0.547435
Cr4   Cr    Cr6+3 0.914010 0.832750 0.013970 1.044879
Cr5   Cr    Cr6+3 0.922310 0.578600 0.003000 1.048435
Cr6   Cr    Cr6+3 0.656280 0.574630 0.003870 1.115072
O26   O     O_3   0.830870 0.661990 0.006950 -0.268114
N1    N     N_R   0.182974 0.025172 0.388531 0.073738
O27   O     O_R   0.110834 0.998075 0.423869 -0.329634
O28   O     O_R   0.257597 0.133453 0.384512 -0.339871
N2    N     N_R   0.906471 0.132698 0.209381 0.061082
O29   O     O_R   0.867108 0.170156 0.176070 -0.343372
O30   O     O_R   0.012049 0.200324 0.228903 -0.367851
N3    N     N_R   0.492739 0.617490 0.119903 0.074387
O31   O     O_R   0.483049 0.517670 0.126582 -0.335137
O32   O     O_R   0.432404 0.624993 0.084333 -0.332253
H29   H     H_    0.809049 0.306330 0.630168 0.186266
N4    N     N_R   0.959997 0.353622 0.702063 0.067473
O33   O     O_R   0.949154 0.267651 0.672069 -0.331465
O34   O     O_R   0.065501 0.437308 0.715427 -0.304472
H30   H     H_    0.453720 0.249256 0.640077 0.148194
H31   H     H_    0.018468 0.674378 0.692326 0.127335
N5    N     N_R   0.442221 0.802083 0.712307 0.078907
O35   O     O_R   0.341491 0.739902 0.731499 -0.315134
O36   O     O_R   0.446119 0.864670 0.678136 -0.354712

loop_
_geom_bond_atom_site_label_1
_geom_bond_atom_site_label_2
_geom_bond_distance
_ccdc_geom_bond_type
C16   C86   1.435968 S    
C54   H18   1.084340 S    
N3    O31   1.301337 A    
C40   C48   1.401872 A    
C43   C44   1.392534 A    
C74   C88   1.433329 S    
C39   C47   1.414157 A    
C60   C61   1.397547 A    
C51   C54   1.395333 A    
C66   C70   1.399901 A    
C42   C46   1.401489 A    
N4    O33   1.301183 A    
C79   N5    1.440493 S    
O4    Cr2   1.917036 S    
C52   C53   1.402269 A    
C28   C29   1.399566 A    
C33   C48   1.402172 A    
C10   C11   1.398448 A    
C35   C36   1.416671 A    
C68   H24   1.083574 S    
C51   C62   1.406738 A    
C37   H14   1.084355 S    
C67   H23   1.084062 S    
C17   C18   1.379734 A    
Cr5   O26   1.975294 S    
C84   C90   1.433211 S    
C49   C64   1.401303 A    
O4    C2    1.274618 A    
C82   C84   1.205363 T    
C19   C30   1.412510 A    
C68   C69   1.398802 A    
C3    C32   1.470450 S    
C89   O24   1.269674 A    
C50   C58   1.418775 A    
C9    C13   1.403404 A    
C65   C73   1.205098 T    
C77   C81   1.399413 A    
C40   H17   1.084481 S    
C76   C80   1.400476 A    
O8    Cr1   1.934441 S    
C80   C83   1.443149 S    
C67   C71   1.403388 A    
O22   Cr5   2.027015 S    
C66   H31   1.083590 S    
C17   C32   1.403785 A    
Cr6   O26   1.974798 S    
C33   H13   1.084680 S    
O6    C3    1.278800 A    
C25   C27   1.409142 A    
C61   C63   1.386399 A    
N1    O27   1.301065 A    
C8    C9    1.400933 A    
C40   C41   1.395950 A    
C76   H26   1.083842 S    
O7    Cr1   2.035937 S    
N2    O30   1.301407 A    
C55   C89   1.458024 S    
C35   C38   1.389245 A    
C9    H2    1.083751 S    
C22   C23   1.399972 A    
C78   H28   1.083777 S    
O15   Cr4   1.932729 S    
N3    O32   1.300983 A    
Cr3   O13   1.975180 S    
N5    O36   1.300978 A    
C35   C46   1.414386 A    
C66   C67   1.398232 A    
N4    O34   1.301320 A    
O25   C90   1.272558 A    
C19   C22   1.386675 A    
C29   C31   1.395031 A    
C39   C87   1.471254 S    
C20   H7    1.083944 S    
O7    C6    1.267228 A    
O1    Cr1   2.055111 S    
C44   C45   1.409032 A    
C27   C28   1.395004 A    
O16   Cr5   2.062437 S    
O23   Cr5   1.943862 S    
Cr4   O26   1.973819 S    
O1    C3    1.268253 A    
C51   C52   1.400044 A    
C18   C21   1.400817 A    
C19   C20   1.397987 A    
C41   C43   1.397367 A    
C52   H19   1.084141 S    
O5    Cr3   2.026459 S    
O12   Cr3   1.908691 S    
C23   C85   1.459262 S    
C33   C34   1.385961 A    
C7    C15   1.206837 T    
C34   C37   1.396432 A    
C45   C46   1.416633 A    
C13   C14   1.441492 S    
O10   Cr2   1.937682 S    
C49   H29   1.080784 S    
O20   Cr4   2.047663 S    
C21   H8    1.083391 S    
O21   Cr4   1.923518 S    
C61   C62   1.413409 A    
Cr1   O13   1.974137 S    
C57   C59   1.400500 A    
O12   C6    1.272100 A    
O17   Cr5   1.910666 S    
C26   C30   1.401809 A    
C88   O22   1.268377 A    
C78   C79   1.407589 A    
C45   C47   1.408068 A    
C69   H25   1.082985 S    
N2    O29   1.301520 A    
C2    O5    1.269135 A    
C28   H10   1.082926 S    
C34   C42   1.407028 A    
C24   C25   1.412956 A    
Cr2   O13   1.975311 S    
C25   C26   1.416347 A    
C63   H20   1.084883 S    
C44   H15   1.081330 S    
C31   H9    1.084462 S    
N5    O35   1.301458 A    
C56   H30   1.084641 S    
C24   N1    1.435515 S    
C27   H11   1.081506 S    
C22   H5    1.084873 S    
C69   C70   1.403108 A    
C1    O3    1.264688 A    
C58   C62   1.399733 A    
C56   C57   1.379943 A    
C79   C80   1.419786 A    
C23   C31   1.404584 A    
C78   C81   1.397733 A    
C24   C32   1.416090 A    
O19   Cr6   1.940081 S    
C20   C21   1.387282 A    
C75   C83   1.205983 T    
O9    Cr2   2.035125 S    
O2    Cr1   1.921267 S    
O23   C89   1.272311 A    
C12   C15   1.441645 S    
C8    C12   1.401606 A    
C36   N2    1.439158 S    
C5    C64   1.460875 S    
O19   C87   1.276163 A    
C85   O16   1.268000 A    
O6    Cr3   1.944663 S    
O21   C88   1.274289 A    
O11   Cr3   2.062873 S    
C29   C30   1.408647 A    
C86   O18   1.267995 A    
C18   C26   1.406577 A    
C11   H4    1.084046 S    
C8    H1    1.083441 S    
C70   C73   1.438697 S    
C17   H6    1.084673 S    
O2    C1    1.274438 A    
C41   C42   1.411558 A    
C38   H12   1.081204 S    
O18   Cr6   2.030187 S    
C76   C77   1.395338 A    
C14   C16   1.206800 T    
O17   C86   1.274002 A    
O20   C90   1.265570 A    
C38   C39   1.401208 A    
C2    C7    1.435806 S    
C57   C58   1.409489 A    
C43   H16   1.083609 S    
O15   C85   1.271994 A    
C6    C65   1.433076 S    
N1    O28   1.301271 A    
C59   C60   1.386557 A    
O24   Cr6   2.059448 S    
C72   C74   1.205350 T    
O14   Cr4   2.043724 S    
C53   N4    1.435818 S    
C36   C37   1.394658 A    
O3    Cr2   2.054480 S    
C60   H21   1.083900 S    
C10   H3    1.083656 S    
C50   C53   1.417446 A    
O14   C87   1.271583 A    
C4    O9    1.269358 A    
C59   H22   1.084000 S    
C10   C13   1.400785 A    
C49   C50   1.406163 A    
C77   H27   1.083972 S    
C54   C55   1.404821 A    
C11   C12   1.402461 A    
O10   C5    1.278112 A    
C56   C64   1.401566 A    
C81   C82   1.439547 S    
C71   C72   1.439095 S    
C1    C48   1.459720 S    
C55   C63   1.398459 A    
O25   Cr6   1.914118 S    
C5    O11   1.263161 A    
O8    C4    1.274455 A    
C47   N3    1.435457 S    
C4    C75   1.433639 S    
C68   C71   1.400082 A    
