data_mof_unit_14751.cif
_audit_creation_date              2012-12-10T18:58:45-0500
_audit_creation_method            fapswitch 2.2
_symmetry_space_group_name_H-M    P1
_symmetry_Int_Tables_number       1
_space_group_crystal_system       triclinic
_cell_length_a                    13.008557
_cell_length_b                    10.862238
_cell_length_c                    9.546438
_cell_angle_alpha                 90.81841
_cell_angle_beta                  95.980314
_cell_angle_gamma                 90.146643
_cell_volume                      1341.44199369

loop_
_atom_site_label
_atom_site_type_symbol
_atom_type_description
_atom_site_fract_x
_atom_site_fract_y
_atom_site_fract_z
_atom_type_partial_charge
C1    C     C_R   0.496182 0.262224 0.497809 0.811678
C2    C     C_R   0.027470 0.484902 0.563852 0.025917
C3    C     C_R   0.971648 0.498105 0.429128 0.017805
C4    C     C_R   0.864069 0.505023 0.420438 -0.218193
C5    C     C_R   0.867801 0.478829 0.672578 -0.256054
C6    C     C_R   0.975024 0.473911 0.684446 0.628198
C7    C     C_R   0.470199 0.065532 0.614329 0.122216
C8    C     C_R   0.482864 0.128836 0.490917 -0.181009
C9    C     C_R   0.481792 0.059458 0.362995 -0.010076
C10   C     C_R   0.485337 0.931214 0.368247 -0.249003
C11   C     C_R   0.488191 0.870383 0.497385 -0.116805
C12   C     C_R   0.300574 0.499579 0.473749 0.823687
C13   C     C_R   0.472814 0.938902 0.617801 0.130360
C14   C     C_3   0.530128 0.939321 0.761664 -0.458912
C15   C     C_3   0.525709 0.078802 0.758491 -0.428448
C16   C     C_R   0.587256 0.530982 0.086487 0.273887
C17   C     C_R   0.417354 0.457366 0.061938 -0.016887
C18   C     C_R   0.417416 0.457131 0.913261 -0.062700
C19   C     C_R   0.587484 0.530053 0.939132 0.244486
C20   C     C_3   0.644941 0.648812 0.942394 -0.491537
C21   C     C_3   0.643605 0.650999 0.101095 -0.473114
C22   C     C_R   0.498565 0.737614 0.500380 0.815387
C23   C     C_R   0.699420 0.499164 0.526152 0.842560
C24   C     C_R   0.812093 0.494985 0.540747 -0.151073
C25   C     C_R   0.187855 0.498347 0.457795 -0.100687
C26   C     C_R   0.025236 0.508064 0.307905 -0.000979
C27   C     C_R   0.133129 0.509915 0.324376 -0.205222
C28   C     C_R   0.134885 0.484557 0.576532 -0.188173
Cu1   Cu    Cu3+1 0.499990 0.499980 0.640670 0.953087
Cu2   Cu    Cu3+1 0.500010 0.500020 0.359330 0.981134
H1    H     H_    0.819835 0.520533 0.320538 0.188933
H2    H     H_    0.610083 0.903380 0.761687 0.201374
H3    H     H_    0.474984 0.118990 0.833842 0.210297
H4    H     H_    0.602969 0.123030 0.759110 0.207378
H5    H     H_    0.349805 0.424360 0.107060 0.174312
H6    H     H_    0.349973 0.423582 0.848149 0.157549
H7    H     H_    0.723686 0.637645 0.908702 0.205844
H8    H     H_    0.598209 0.722806 0.889320 0.213839
H9    H     H_    0.721910 0.642760 0.158368 0.201006
H10   H     H_    0.595915 0.726688 0.139316 0.214920
H11   H     H_    0.828401 0.469932 0.766319 0.166161
H12   H     H_    0.174499 0.518609 0.232092 0.183127
H13   H     H_    0.177488 0.474591 0.679486 0.201619
H14   H     H_    0.489610 0.879560 0.271016 0.171471
H15   H     H_    0.483652 0.899339 0.841292 0.209320
N1    N     N_R   0.500660 0.500930 0.148010 -0.200676
N2    N     N_R   0.500660 0.500890 0.852110 -0.196467
O1    O     O_R   0.500000 0.319640 0.618810 -0.581174
O2    O     O_R   0.500010 0.319680 0.381230 -0.554897
O3    O     O_R   0.348990 0.499960 0.599490 -0.595688
O4    O     O_R   0.349000 0.500000 0.361910 -0.589169
O5    O     O_R   0.499990 0.680320 0.618770 -0.579436
O6    O     O_R   0.500000 0.680360 0.381190 -0.589840
O7    O     O_R   0.651000 0.500000 0.638090 -0.590311
O8    O     O_R   0.651010 0.500040 0.400510 -0.581744
C29   C     C_2   0.972107 0.514699 0.162902 0.860101
O9    O     O_2   0.001467 0.588814 0.080272 -0.541679
O10   O     O_R   0.891173 0.433433 0.119091 -0.756537
H16   H     H_    0.860842 0.447832 0.018612 0.337420
F1    F     F_    0.027403 0.458604 0.813633 -0.653178
C30   C     C_2   0.485014 0.114844 0.223278 0.876906
O11   O     O_2   0.410470 0.171658 0.169321 -0.601330
O12   O     O_R   0.573089 0.100005 0.152689 -0.756745
H17   H     H_    0.568498 0.146553 0.061105 0.325766

loop_
_geom_bond_atom_site_label_1
_geom_bond_atom_site_label_2
_ccdc_geom_bond_type
C12   O3    A    
C23   C24   S    
C1    O1    A    
C23   O8    A    
C16   C21   S    
C22   O6    A    
C1    C8    S    
C20   H8    S    
Cu2   O8    S    
C15   H4    S    
C19   C20   S    
C21   H9    S    
Cu2   N1    S    
C12   C25   S    
Cu2   O4    S    
C18   N2    A    
C30   O11   D    
C7    C15   S    
C17   C18   A    
C17   N1    A    
C7    C8    A    
C13   C14   S    
C20   C21   S    
C25   C28   A    
C20   H7    S    
C11   C13   A    
C27   H12   S    
C26   C27   A    
C2    C6    A    
C21   H10   S    
C1    O2    A    
Cu1   N2    S    
C16   C19   A    
C9    C30   S    
C9    C10   A    
C17   H5    S    
Cu2   O2    S    
C29   O10   S    
C2    C3    A    
C14   H15   S    
Cu1   O3    S    
C5    C6    A    
C4    C24   A    
Cu2   O6    S    
C19   N2    A    
C4    H1    S    
C25   C27   A    
Cu1   O7    S    
Cu1   O1    S    
C10   H14   S    
C3    C4    A    
C6    F1    S    
C7    C13   A    
C12   O4    A    
C29   O9    D    
C23   O7    A    
C22   O5    A    
C10   C11   A    
C16   N1    A    
C30   O12   S    
C5    H11   S    
C14   C15   S    
C5    C24   A    
C2    C28   A    
C11   C22   S    
C28   H13   S    
O10   H16   S    
C18   H6    S    
C15   H3    S    
C3    C26   A    
Cu1   Cu2   S    
O12   H17   S    
C14   H2    S    
C8    C9    A    
Cu1   O5    S    
C26   C29   S    
