data_mof_unit_21191.cif
_audit_creation_date              2012-12-11T15:46:57-0500
_audit_creation_method            fapswitch 2.2
_symmetry_space_group_name_H-M    P1
_symmetry_Int_Tables_number       1
_space_group_crystal_system       triclinic
_cell_length_a                    11.553887
_cell_length_b                    11.555556
_cell_length_c                    19.542594
_cell_angle_alpha                 90.518141
_cell_angle_beta                  90.018626
_cell_angle_gamma                 59.938971
_cell_volume                      2258.09138016

loop_
_atom_site_label
_atom_site_type_symbol
_atom_type_description
_atom_site_fract_x
_atom_site_fract_y
_atom_site_fract_z
_atom_type_partial_charge
C1    C     C_R   0.640439 0.117346 0.599229 0.551453
C2    C     C_1   0.652915 0.149752 0.668612 0.005382
C3    C     C_R   0.669575 0.672607 0.190681 0.021639
C4    C     C_R   0.612432 0.746073 0.598621 0.549551
C5    C     C_R   0.544637 0.760260 0.217954 0.006953
C6    C     C_R   0.530088 0.777953 0.287296 0.036388
C7    C     C_R   0.767253 0.636176 0.304061 -0.172052
C8    C     C_R   0.783263 0.619870 0.233498 -0.165735
C9    C     C_3   0.411366 0.770170 0.209354 -0.277427
C10   C     C_3   0.396014 0.788696 0.286145 -0.262492
C11   C     C_R   0.638308 0.707158 0.331212 0.048764
C12   C     C_1   0.641217 0.703954 0.667978 0.005538
C13   C     C_R   0.135377 0.194012 0.192752 0.017460
C14   C     C_R   0.233087 0.218626 0.217369 0.007361
C15   C     C_R   0.265370 0.200891 0.285419 0.034536
C16   C     C_R   0.241006 0.145327 0.598154 0.547739
C17   C     C_R   0.112726 0.119793 0.306024 -0.185530
C18   C     C_R   0.080708 0.136226 0.236489 -0.160241
C19   C     C_3   0.246347 0.340079 0.212431 -0.277894
C20   C     C_3   0.281561 0.321067 0.287594 -0.269624
C21   C     C_R   0.201037 0.159012 0.331361 0.021316
C22   C     C_R   0.669133 0.194060 0.194786 -0.032848
C23   C     C_1   0.126794 0.198717 0.859328 0.003871
C24   C     C_R   0.708594 0.065871 0.217846 -0.000279
C25   C     C_R   0.706221 0.042895 0.286525 -0.017106
C26   C     C_R   0.615402 0.277630 0.312995 0.226799
C27   C     C_R   0.617482 0.301341 0.242492 -0.151415
C28   C     C_R   0.646829 0.113739 0.403751 0.579497
C29   C     C_3   0.836630 0.936509 0.207019 -0.261723
C30   C     C_3   0.835161 0.913510 0.282905 -0.266997
C31   C     C_R   0.665996 0.145382 0.334915 0.034015
C32   C     C_R   0.081803 0.231145 0.928636 0.547680
C33   C     C_R   0.683976 0.604324 0.929519 0.545833
C34   C     C_1   0.171462 0.170362 0.727701 -0.030458
C35   C     C_R   0.708460 0.206654 0.930160 0.547503
C36   C     C_R   0.079732 0.236950 0.125821 0.547005
C37   C     C_R   0.683530 0.612632 0.124783 0.548193
C38   C     C_R   0.708561 0.212820 0.127414 0.549654
C39   C     C_R   0.615879 0.740262 0.402209 0.556821
C40   C     C_R   0.243920 0.140949 0.401622 0.544650
C41   C     C_1   0.670474 0.646376 0.860149 0.004675
C42   C     C_1   0.654787 0.683684 0.728422 -0.030798
C43   C     C_1   0.663508 0.666617 0.799699 -0.030835
C44   C     C_3   0.448248 0.465322 0.364336 -0.121407
C45   C     C_1   0.150209 0.182249 0.798948 -0.030685
C46   C     C_1   0.195221 0.161040 0.667349 0.005000
C47   C     C_1   0.678715 0.191160 0.860808 0.004019
C48   C     C_1   0.658524 0.167266 0.729026 -0.030551
C49   C     C_1   0.665741 0.180840 0.800353 -0.030501
Cr1   Cr    Cr6+3 0.404720 0.198220 0.499960 1.023761
Cr2   Cr    Cr6+3 0.698290 0.897110 0.500380 1.027160
Cr3   Cr    Cr6+3 0.396970 0.904720 0.499610 1.023091
Cr4   Cr    Cr6+3 0.926290 0.152010 0.028150 1.021346
Cr5   Cr    Cr6+3 0.921440 0.451830 0.027490 1.021934
Cr6   Cr    Cr6+3 0.626370 0.446880 0.028730 1.022194
H1    H     H_    0.853985 0.590648 0.337052 0.121118
H2    H     H_    0.883088 0.554751 0.213565 0.143067
H3    H     H_    0.416648 0.675756 0.192117 0.158417
H4    H     H_    0.339953 0.861074 0.180867 0.143971
H5    H     H_    0.316414 0.888373 0.302391 0.159511
H6    H     H_    0.394359 0.705524 0.312418 0.135625
H7    H     H_    0.066892 0.080145 0.339747 0.122311
H8    H     H_    0.006015 0.113081 0.218217 0.142406
H9    H     H_    0.150052 0.432918 0.202291 0.148482
H10   H     H_    0.397816 0.417339 0.390065 0.143936
H11   H     H_    0.403047 0.502400 0.313183 0.084228
H12   H     H_    0.331406 0.323393 0.179074 0.143014
H13   H     H_    0.429125 0.552498 0.396689 0.150181
H14   H     H_    0.386700 0.291269 0.297034 0.144346
H15   H     H_    0.206396 0.403016 0.320794 0.136583
H16   H     H_    0.591046 0.400974 0.226165 0.147404
H17   H     H_    0.922844 0.948226 0.191906 0.154509
H18   H     H_    0.822211 0.864460 0.175231 0.144211
H19   H     H_    0.822561 0.827473 0.295268 0.160065
H20   H     H_    0.917106 0.916938 0.311091 0.134899
O1    O     O_R   0.267750 0.231960 0.575440 -0.505973
O2    O     O_R   0.596230 0.579400 0.952760 -0.504711
O3    O     O_R   0.639160 0.321170 0.958690 -0.492860
O4    O     O_R   0.527290 0.186640 0.570530 -0.492520
O5    O     O_R   0.821370 0.124220 0.104400 -0.523898
O6    O     O_R   0.037020 0.167050 0.097880 -0.512206
O7    O     O_R   0.056310 0.349620 0.102920 -0.523045
O8    O     O_R   0.797790 0.564880 0.097980 -0.513305
O9    O     O_R   0.596000 0.584270 0.104310 -0.525707
O10   O     O_R   0.638950 0.325690 0.099180 -0.507809
O11   O     O_3   0.824700 0.350240 0.028120 -0.254626
O12   O     O_R   0.685950 0.784660 0.430010 -0.508910
O13   O     O_R   0.728110 0.003450 0.576380 -0.505429
O14   O     O_R   0.682980 0.789190 0.570500 -0.494343
O15   O     O_R   0.499300 0.771880 0.575540 -0.503656
O16   O     O_R   0.285350 0.030870 0.569740 -0.493715
O17   O     O_R   0.270960 0.227070 0.423890 -0.526567
O18   O     O_R   0.530270 0.182120 0.430040 -0.498518
O19   O     O_R   0.731320 0.998570 0.424830 -0.524302
O20   O     O_3   0.587462 0.377807 0.360574 -0.556840
O21   O     O_R   0.502510 0.767000 0.423980 -0.520895
O22   O     O_R   0.288320 0.026340 0.429250 -0.507646
O23   O     O_3   0.499990 0.000020 0.499980 -0.258049
O24   O     O_R   0.821590 0.119350 0.952850 -0.504244
O25   O     O_R   0.037230 0.162540 0.957390 -0.493316
O26   O     O_R   0.056530 0.344750 0.951370 -0.503616
O27   O     O_R   0.798000 0.560370 0.957490 -0.493759

loop_
_geom_bond_atom_site_label_1
_geom_bond_atom_site_label_2
_ccdc_geom_bond_type
C25   C31   A    
C23   C45   T    
Cr5   O26   S    
C44   H11   S    
C19   C20   S    
C32   O26   A    
C39   O12   A    
C35   C47   S    
Cr1   O4    S    
C7    C8    A    
C47   C49   T    
Cr4   O24   S    
C7    C11   A    
C26   C27   A    
C13   C18   A    
C28   O19   A    
C1    C2    S    
C5    C6    A    
C30   H19   S    
C18   H8    S    
C29   H18   S    
C22   C38   S    
Cr3   O22   S    
C25   C30   S    
Cr4   O6    S    
C9    H3    S    
C24   C29   S    
C12   C42   T    
Cr3   O15   S    
C36   O7    A    
C37   O9    A    
C19   H12   S    
Cr4   O11   S    
C34   C46   T    
C4    C12   S    
C9    C10   S    
C19   H9    S    
C29   H17   S    
C1    O13   A    
C26   C31   A    
C13   C14   A    
C41   C43   T    
C20   H15   S    
C44   H10   S    
C7    H1    S    
C35   O24   A    
Cr5   O8    S    
C4    O15   A    
Cr4   O25   S    
C15   C20   S    
Cr1   O23   S    
C38   O10   A    
C33   O27   A    
C17   H7    S    
Cr4   O5    S    
C24   C25   A    
C13   C36   S    
C3    C8    A    
C16   C46   S    
C6    C11   A    
Cr5   O11   S    
Cr6   O3    S    
C2    C48   T    
C17   C21   A    
C32   O25   A    
C28   O18   A    
C9    H4    S    
Cr6   O10   S    
C10   H5    S    
C5    C9    S    
C29   C30   S    
Cr1   O1    S    
C8    H2    S    
C36   O6    A    
C17   C18   A    
C34   C45   S    
C40   O17   A    
C11   C39   S    
Cr1   O17   S    
C48   C49   S    
C22   C27   A    
C1    O4    A    
C22   C24   A    
C20   H14   S    
C44   H13   S    
C10   H6    S    
C42   C43   S    
Cr2   O12   S    
Cr5   O7    S    
C27   H16   S    
C4    O14   A    
C26   O20   S    
C16   O1    A    
C14   C19   S    
Cr5   O27   S    
C28   C31   S    
C3    C5    A    
Cr2   O13   S    
C6    C10   S    
Cr1   O18   S    
C35   O3    A    
C33   C41   S    
C23   C32   S    
Cr6   O11   S    
C40   O22   A    
C44   O20   S    
Cr2   O14   S    
C30   H20   S    
C33   O2    A    
C21   C40   S    
C38   O5    A    
Cr2   O23   S    
Cr6   O2    S    
Cr3   O23   S    
Cr3   O21   S    
C39   O21   A    
Cr2   O19   S    
C15   C21   A    
C3    C37   S    
C16   O16   A    
C14   C15   A    
C37   O8    A    
Cr3   O16   S    
Cr6   O9    S    
