data_mof_unit_50174.cif
_audit_creation_date              2012-12-10T18:14:38-0500
_audit_creation_method            fapswitch 2.2
_symmetry_space_group_name_H-M    P1
_symmetry_Int_Tables_number       1
_space_group_crystal_system       triclinic
_cell_length_a                    10.755472
_cell_length_b                    9.498666
_cell_length_c                    27.800573
_cell_angle_alpha                 90.080442
_cell_angle_beta                  91.170491
_cell_angle_gamma                 90.811465
_cell_volume                      2839.29832989

loop_
_atom_site_label
_atom_site_type_symbol
_atom_type_description
_atom_site_fract_x
_atom_site_fract_y
_atom_site_fract_z
_atom_type_partial_charge
C1    C     C_R   0.259657 0.499283 0.500214 0.887747
C2    C     C_R   0.445049 0.603726 0.278181 -0.086744
C3    C     C_R   0.507243 0.497048 0.253991 0.330628
C4    C     C_R   0.507106 0.492845 0.102053 -0.042404
C5    C     C_R   0.395722 0.471291 0.126924 -0.026307
C6    C     C_R   0.284722 0.448680 0.101016 -0.136687
C7    C     C_R   0.618768 0.514775 0.128501 -0.022362
C8    C     C_R   0.503673 0.499756 0.354861 -0.037054
C9    C     C_R   0.501318 0.500289 0.645444 -0.057948
C10   C     C_R   0.391614 0.480437 0.973715 0.043436
C11   C     C_R   0.620684 0.506239 0.975270 0.044182
C12   C     C_R   0.500836 0.499970 0.407664 0.894319
C13   C     C_R   0.505910 0.493837 0.949233 0.071956
C14   C     C_R   0.279748 0.474739 0.945961 -0.199019
C15   C     C_R   0.280439 0.477373 0.896034 -0.134836
C16   C     C_R   0.392371 0.486489 0.871656 -0.028328
C17   C     C_R   0.505409 0.495019 0.898063 -0.042277
C18   C     C_R   0.617928 0.504865 0.873152 -0.032387
C19   C     C_R   0.615304 0.506140 0.822638 0.587884
C20   C     C_R   0.393934 0.488306 0.821178 0.571803
C21   C     C_R   0.498881 0.372782 0.720969 -0.187770
C22   C     C_R   0.497836 0.372681 0.670877 -0.211270
C23   C     C_R   0.739440 0.501201 0.502241 0.794139
C24   C     C_R   0.506114 0.628088 0.671049 -0.303861
C25   C     C_R   0.507386 0.628685 0.721637 0.478845
C26   C     C_R   0.503701 0.500027 0.746358 0.337746
C27   C     C_R   0.392582 0.474397 0.024825 0.043549
C28   C     C_R   0.506781 0.492691 0.050876 0.069705
C29   C     C_R   0.620615 0.511055 0.026404 0.042867
C30   C     C_R   0.282929 0.449864 0.051069 -0.201523
C31   C     C_R   0.729561 0.536465 0.104138 -0.135780
C32   C     C_R   0.732039 0.512780 0.948985 -0.198127
C33   C     C_R   0.730372 0.512449 0.899024 -0.136241
C34   C     C_R   0.500267 0.500094 0.592450 0.799513
C35   C     C_R   0.730736 0.534900 0.054200 -0.202074
C36   C     C_3   0.073993 0.651647 0.509630 -0.393544
C37   C     C_3   0.073327 0.406994 0.542966 -0.376620
C38   C     C_3   0.932103 0.652563 0.515836 0.268562
C39   C     C_3   0.929841 0.393158 0.539885 0.306873
C40   C     C_3   0.062118 0.442490 0.451934 0.678336
C41   C     C_3   0.120830 0.498907 0.500685 -0.150736
C42   C     C_3   0.877151 0.503446 0.503199 -0.058685
C43   C     C_3   0.919889 0.465382 0.451904 -0.580399
C44   C     C_3   0.616076 0.085029 0.523422 -0.248403
C45   C     C_3   0.617744 0.918482 0.521893 -0.259917
C46   C     C_3   0.396392 0.081981 0.529338 -0.305290
C47   C     C_3   0.399390 0.915662 0.531003 -0.293270
C48   C     C_3   0.489439 0.083602 0.450951 0.714013
C49   C     C_3   0.484474 0.914231 0.451195 0.700908
C50   C     C_R   0.398012 0.471994 0.177434 0.546974
C51   C     C_R   0.616845 0.515926 0.178996 0.540379
C52   C     C_R   0.568806 0.392559 0.280374 -0.073805
C53   C     C_R   0.567287 0.394184 0.330515 -0.181082
C54   C     C_R   0.443461 0.605198 0.328302 -0.142222
Cu1   Cu    Cu3+1 0.499860 0.642410 0.500020 0.995850
Cu2   Cu    Cu3+1 0.499860 0.357590 0.500020 1.004195
H1    H     H_    0.393456 0.687306 0.346092 0.220262
H2    H     H_    0.617736 0.310150 0.261987 0.156232
H3    H     H_    0.816519 0.555174 0.123625 0.192618
H4    H     H_    0.823038 0.516055 0.965802 0.135820
H5    H     H_    0.508981 0.727212 0.651849 0.144547
H6    H     H_    0.818277 0.518112 0.880714 0.188391
H7    H     H_    0.819913 0.555461 0.038612 0.138771
H8    H     H_    0.098791 0.720840 0.478907 0.222036
H9    H     H_    0.114507 0.300266 0.542563 0.172555
H10   H     H_    0.121039 0.697715 0.542207 0.209235
H11   H     H_    0.103386 0.456184 0.577769 0.221161
H12   H     H_    0.397673 0.685259 0.258075 0.161136
H13   H     H_    0.893530 0.732998 0.490552 0.113979
H14   H     H_    0.905954 0.284801 0.526628 0.109521
H15   H     H_    0.893873 0.551953 0.426840 0.210498
H16   H     H_    0.868835 0.370158 0.438224 0.230945
H17   H     H_    0.626162 0.121734 0.561355 0.147215
H18   H     H_    0.633622 0.877411 0.558926 0.148316
H19   H     H_    0.699747 0.125485 0.504927 0.207693
H20   H     H_    0.698810 0.884829 0.500840 0.199460
H21   H     H_    0.400786 0.123894 0.566712 0.167052
H22   H     H_    0.411966 0.881215 0.569009 0.166102
H23   H     H_    0.305098 0.115290 0.514297 0.227499
H24   H     H_    0.306853 0.873407 0.519610 0.208740
H25   H     H_    0.198024 0.429902 0.119284 0.191143
H26   H     H_    0.494146 0.272635 0.652124 0.158968
H27   H     H_    0.496010 0.273773 0.740208 0.160261
H28   H     H_    0.192162 0.472535 0.876566 0.189896
H29   H     H_    0.189054 0.470681 0.961582 0.136341
H30   H     H_    0.193629 0.428757 0.034225 0.138101
H31   H     H_    0.617892 0.314797 0.350211 0.173498
N1    N     N_R   0.507463 0.494705 0.202368 -0.470524
N2    N     N_R   0.504350 0.498150 0.797879 -0.450468
N3    N     N_3   0.500250 0.143650 0.501060 -0.167665
N4    N     N_3   0.500250 0.856350 0.501060 -0.160400
O1    O     O_R   0.317570 0.620260 0.500030 -0.564695
O2    O     O_R   0.317570 0.379740 0.500030 -0.543230
O3    O     O_R   0.499900 0.620250 0.430280 -0.513837
O4    O     O_R   0.499900 0.379750 0.430280 -0.502964
O5    O     O_R   0.682190 0.620260 0.500010 -0.591022
O6    O     O_R   0.682190 0.379740 0.500010 -0.596998
O7    O     O_R   0.499860 0.620280 0.569750 -0.599449
O8    O     O_R   0.499860 0.379720 0.569750 -0.611348
O9    O     O_2   0.291828 0.449280 0.201474 -0.501021
O10   O     O_2   0.286126 0.480616 0.795536 -0.517548
O11   O     O_2   0.723205 0.539375 0.204544 -0.514140
O12   O     O_2   0.722583 0.515228 0.798408 -0.510451
O13   O     O_3   0.511801 0.752510 0.747710 -0.708392
H32   H     H_    0.513911 0.833046 0.725064 0.319268
O14   O     O_3   0.906048 0.690176 0.563549 -0.660209
H33   H     H_    0.824588 0.737607 0.563139 0.322311
O15   O     O_3   0.880774 0.412048 0.585960 -0.663639
H34   H     H_    0.801217 0.357951 0.586918 0.312062
Cl1   Cl    Cl    0.128398 0.529432 0.400935 -0.504083
Cl2   Cl    Cl    0.086537 0.257620 0.444096 -0.512142
Cl3   Cl    Cl    0.353114 0.151522 0.419901 -0.467015
Cl4   Cl    Cl    0.338212 0.845349 0.425488 -0.561853
O16   O     O_3   0.594123 0.129930 0.425234 -0.717205
H35   H     H_    0.577292 0.111005 0.390606 0.324355
O17   O     O_3   0.582380 0.864630 0.422995 -0.710347
H36   H     H_    0.556476 0.872524 0.388643 0.327216

loop_
_geom_bond_atom_site_label_1
_geom_bond_atom_site_label_2
_ccdc_geom_bond_type
C10   C27   A    
Cu2   O4    S    
C49   Cl4   S    
C21   C26   A    
C43   H16   S    
Cu1   Cu2   S    
O16   H35   S    
C8    C53   A    
O15   H34   S    
C26   N2    S    
C24   H5    S    
C23   C42   S    
C45   H20   S    
C47   H24   S    
C28   C29   A    
C38   C42   S    
C2    H12   S    
C4    C7    A    
C5    C6    A    
C36   H10   S    
C9    C22   A    
O14   H33   S    
C15   C16   A    
O17   H36   S    
C18   C19   A    
C31   H3    S    
C39   C42   S    
Cu1   N4    S    
C19   O12   S    
C40   C43   S    
C21   H27   S    
C33   H6    S    
C37   H9    S    
C12   O4    A    
C30   H30   S    
C8    C12   S    
Cu2   N3    S    
C38   H13   S    
C6    H25   S    
C48   N3    S    
C21   C22   A    
C27   C30   A    
C12   O3    A    
C36   C41   S    
Cu2   O2    S    
Cu2   O6    S    
C49   N4    S    
Cu1   O3    S    
O13   H32   S    
C4    C28   A    
C23   O5    A    
C17   C18   A    
C40   Cl2   S    
C39   O15   S    
C7    C31   A    
C24   C25   A    
C2    C54   A    
C8    C54   A    
C16   C17   A    
C40   Cl1   S    
C20   O10   S    
C25   C26   A    
C6    C30   A    
C9    C24   A    
C45   H18   S    
C51   O11   S    
C38   O14   S    
C44   H19   S    
Cu1   O1    S    
C19   N2    A    
C16   C20   A    
C34   O8    A    
C53   H31   S    
C52   C53   A    
C52   H2    S    
C1    C41   S    
C48   C49   S    
C48   Cl3   S    
C11   C32   A    
C1    O1    A    
C10   C14   A    
C9    C34   S    
C31   C35   A    
C5    C50   A    
C42   C43   S    
C32   H4    S    
C22   H26   S    
C44   N3    S    
C44   C45   S    
C48   O16   S    
C46   C47   S    
C40   C41   S    
C43   H15   S    
C23   O6    A    
C3    N1    S    
C47   N4    S    
C14   H29   S    
Cu1   O5    S    
C10   C13   A    
C51   N1    A    
C46   H21   S    
C3    C52   A    
C25   O13   S    
C15   H28   S    
C46   N3    S    
C50   N1    A    
C20   N2    A    
C29   C35   A    
C50   O9    S    
Cu2   O8    S    
C13   C17   A    
C32   C33   A    
C36   C38   S    
C2    C3    A    
C7    C51   A    
C37   C39   S    
C11   C13   A    
C46   H23   S    
C37   H11   S    
Cu1   O7    S    
C34   O7    A    
C39   H14   S    
C37   C41   S    
C44   H17   S    
C45   N4    S    
C18   C33   A    
C4    C5    A    
C49   O17   S    
C11   C29   A    
C1    O2    A    
C27   C28   A    
C14   C15   A    
C35   H7    S    
C47   H22   S    
C36   H8    S    
C54   H1    S    
