data_mof_unit_43615.cif
_audit_creation_date              2012-12-10T17:18:52-0500
_audit_creation_method            fapswitch 2.2
_symmetry_space_group_name_H-M    P1
_symmetry_Int_Tables_number       1
_space_group_crystal_system       triclinic
_cell_length_a                    9.603964
_cell_length_b                    10.77032
_cell_length_c                    13.436083
_cell_angle_alpha                 93.238337
_cell_angle_beta                  73.843205
_cell_angle_gamma                 90.036991
_cell_volume                      1332.61038829

loop_
_atom_site_label
_atom_site_type_symbol
_atom_type_description
_atom_site_fract_x
_atom_site_fract_y
_atom_site_fract_z
_atom_type_partial_charge
C1    C     C_R   0.498604 0.737462 0.503591 0.799465
C2    C     C_R   0.433310 0.441969 0.975227 0.056769
C3    C     C_R   0.478162 0.436775 0.865546 0.060543
C4    C     C_R   0.540314 0.435104 0.029443 0.068800
C5    C     C_R   0.682778 0.394651 0.975392 0.176481
C6    C     C_R   0.716794 0.362495 0.869333 -0.254530
C7    C     C_R   0.616370 0.383944 0.814731 -0.193954
C8    C     C_R   0.512061 0.477568 0.133949 -0.274686
C9    C     C_R   0.757420 0.424547 0.133166 -0.210455
C10   C     C_R   0.380925 0.481064 0.812002 -0.102429
C11   C     C_R   0.294742 0.882799 0.672563 -0.188867
C12   C     C_R   0.423755 0.494163 0.699201 0.771056
C13   C     C_R   0.197351 0.953515 0.751870 -0.139835
C14   C     C_R   0.197676 0.082695 0.751869 -0.134154
C15   C     C_R   0.295197 0.141946 0.672421 -0.171431
C16   C     C_R   0.393739 0.072163 0.590414 0.097958
C17   C     C_R   0.393619 0.940843 0.590556 0.097436
C18   C     C_R   0.496121 0.871777 0.510376 -0.102583
C19   C     C_R   0.599864 0.931314 0.434733 -0.195984
C20   C     C_R   0.599709 0.059367 0.434427 -0.204838
C21   C     C_R   0.496103 0.129700 0.509932 -0.086629
C22   C     C_R   0.905150 0.321121 0.373500 -0.155727
C23   C     C_R   0.498842 0.262954 0.502880 0.760274
C24   C     C_R   0.995706 0.222650 0.323985 -0.209104
C25   C     C_R   0.138925 0.221195 0.325398 -0.203653
C26   C     C_R   0.191952 0.319378 0.374859 -0.153873
C27   C     C_R   0.098585 0.411541 0.438258 0.207400
C28   C     C_R   0.949304 0.411956 0.437953 0.206343
C29   C     C_R   0.902891 0.583548 0.559824 -0.058773
C30   C     C_R   0.050844 0.583630 0.559697 -0.061447
C31   C     C_R   0.576862 0.494798 0.300121 0.780201
C32   C     C_R   0.789505 0.387835 0.027922 -0.205334
C33   C     C_R   0.618232 0.469604 0.186892 -0.042515
C34   C     C_R   0.239491 0.517800 0.868489 -0.241313
C35   C     C_R   0.189498 0.498444 0.973521 -0.164222
C36   C     C_R   0.282544 0.449614 0.025527 0.138112
Cu1   Cu    Cu3+1 0.359340 0.500010 0.500010 0.924867
Cu2   Cu    Cu3+1 0.640660 0.499990 0.499990 0.927330
H1    H     H_    0.840714 0.415881 0.172653 0.149666
H2    H     H_    0.293339 0.782931 0.677511 0.136249
H3    H     H_    0.122490 0.907889 0.814269 0.132113
H4    H     H_    0.123132 0.137325 0.814278 0.130674
H5    H     H_    0.293979 0.242405 0.677234 0.150535
H6    H     H_    0.678862 0.103841 0.373530 0.134458
H7    H     H_    0.828687 0.651923 0.608969 0.143354
H8    H     H_    0.802773 0.322742 0.357617 0.190373
H9    H     H_    0.956329 0.150594 0.279698 0.143327
H10   H     H_    0.211959 0.148368 0.281578 0.155599
H11   H     H_    0.306827 0.320530 0.358665 0.195540
H12   H     H_    0.823222 0.325303 0.827633 0.147022
H13   H     H_    0.086987 0.652106 0.608718 0.134155
H14   H     H_    0.897724 0.354457 0.987216 0.127290
H15   H     H_    0.407266 0.518552 0.174508 0.157858
H16   H     H_    0.163935 0.553748 0.830089 0.160358
H17   H     H_    0.074942 0.510678 0.012114 0.144818
H18   H     H_    0.648552 0.354791 0.733421 0.188386
H19   H     H_    0.679348 0.878092 0.374171 0.149438
N1    N     N_R   0.852480 0.498790 0.499000 -0.201995
N2    N     N_R   0.148360 0.498710 0.498970 -0.198404
O1    O     O_R   0.381190 0.680360 0.500010 -0.576364
O2    O     O_R   0.618760 0.680340 0.500000 -0.571484
O3    O     O_R   0.323240 0.499990 0.650990 -0.589916
O4    O     O_R   0.560820 0.499960 0.650980 -0.584270
O5    O     O_R   0.381240 0.319660 0.500000 -0.597533
O6    O     O_R   0.618810 0.319640 0.499990 -0.595143
O7    O     O_R   0.439180 0.500040 0.349020 -0.596988
O8    O     O_R   0.676760 0.500010 0.349010 -0.598445
C37   C     C_3   0.215536 0.362398 0.109239 -0.409162
C38   C     C_3   0.182495 0.238801 0.058690 -0.819699
H20   H     H_    0.139803 0.170672 0.117805 0.236830
H21   H     H_    0.100717 0.252580 0.015954 0.240098
H22   H     H_    0.282894 0.198240 0.003602 0.255928
H23   H     H_    0.289418 0.341073 0.156103 0.213519
H24   H     H_    0.114417 0.404259 0.162407 0.205122

loop_
_geom_bond_atom_site_label_1
_geom_bond_atom_site_label_2
_ccdc_geom_bond_type
C31   O7    A    
C30   H13   S    
C16   C21   A    
C35   C36   A    
C4    C8    A    
C13   H3    S    
Cu1   O3    S    
C19   H19   S    
C31   O8    A    
C1    C18   S    
Cu1   Cu2   S    
C34   C35   A    
C3    C7    A    
C5    C6    A    
C37   H24   S    
C15   C16   A    
C9    H1    S    
C18   C19   A    
C38   H21   S    
C32   H14   S    
C9    C32   A    
Cu2   N1    S    
C19   C20   A    
C16   C17   A    
C31   C33   S    
C24   C25   A    
C14   H4    S    
Cu2   O2    S    
C22   C28   A    
C13   C14   A    
C30   N2    A    
C9    C33   A    
C38   H20   S    
C7    H18   S    
C20   H6    S    
C35   H17   S    
Cu2   O8    S    
C26   H11   S    
C12   O4    A    
C37   C38   S    
C37   H23   S    
C5    C32   A    
C6    H12   S    
C29   H7    S    
C38   H22   S    
C2    C4    A    
C29   C30   A    
C12   O3    A    
Cu2   O6    S    
Cu1   O7    S    
C17   C18   A    
C26   C27   A    
C10   C34   A    
C29   N1    A    
C25   H10   S    
Cu1   N2    S    
C10   C12   S    
C23   O5    A    
C22   H8    S    
C34   H16   S    
C21   C23   S    
C22   C24   A    
C1    O1    A    
Cu1   O5    S    
Cu2   O4    S    
C2    C36   A    
C11   C17   A    
C24   H9    S    
C4    C5    A    
C1    O2    A    
C8    H15   S    
C36   C37   S    
C6    C7    A    
C28   N1    A    
C23   O6    A    
C2    C3    A    
C25   C26   A    
C15   H5    S    
C3    C10   A    
C27   N2    A    
C11   C13   A    
C8    C33   A    
C11   H2    S    
Cu1   O1    S    
C20   C21   A    
C27   C28   A    
C14   C15   A    
