data_mof_unit_59603.cif
_audit_creation_date              2012-12-10T18:55:58-0500
_audit_creation_method            fapswitch 2.2
_symmetry_space_group_name_H-M    P1
_symmetry_Int_Tables_number       1
_space_group_crystal_system       triclinic
_cell_length_a                    10.620589
_cell_length_b                    10.116505
_cell_length_c                    14.958596
_cell_angle_alpha                 89.834616
_cell_angle_beta                  94.34677
_cell_angle_gamma                 88.582306
_cell_volume                      1602.06825827

loop_
_atom_site_label
_atom_site_type_symbol
_atom_type_description
_atom_site_fract_x
_atom_site_fract_y
_atom_site_fract_z
_atom_type_partial_charge
C1    C     C_R   0.260954 0.501440 0.498996 0.827344
C2    C     C_R   0.926250 0.584062 0.439797 -0.182067
C3    C     C_R   0.945496 0.418220 0.558535 -0.218235
C4    C     C_R   0.055682 0.586871 0.440576 -0.225969
C5    C     C_R   0.547576 0.614790 0.097352 -0.178756
C6    C     C_R   0.541985 0.401163 0.911922 -0.173465
C7    C     C_R   0.444726 0.621334 0.900657 -0.183473
C8    C     C_R   0.428765 0.412087 0.089336 -0.173864
C9    C     C_R   0.552101 0.609487 0.189903 -0.199117
C10   C     C_R   0.544837 0.396950 0.820039 -0.220747
C11   C     C_R   0.446640 0.616554 0.808426 -0.195457
C12   C     C_R   0.739192 0.498975 0.499848 0.827615
C13   C     C_R   0.432606 0.407377 0.181574 -0.220800
C14   C     C_R   0.496020 0.504520 0.232068 -0.012807
C15   C     C_R   0.496276 0.503778 0.767884 -0.016074
C16   C     C_R   0.487432 0.514866 0.047562 0.113433
C17   C     C_R   0.491449 0.512980 0.951894 0.114724
C18   C     C_R   0.872082 0.498452 0.498390 0.008573
C19   C     C_R   0.128432 0.503650 0.499539 0.001106
C20   C     C_3   0.613315 0.121056 0.655008 -0.378394
C21   C     C_3   0.734925 0.200376 0.656208 -0.290140
C22   C     C_3   0.824931 0.173249 0.739457 -0.983666
C23   C     C_R   0.499335 0.500636 0.328385 0.821815
C24   C     C_3   0.287717 0.874560 0.408468 -0.384296
C25   C     C_3   0.298243 0.794812 0.321419 -0.270295
C26   C     C_3   0.191734 0.826293 0.249413 -0.981971
C27   C     C_3   0.373262 0.132886 0.348652 -0.387177
C28   C     C_3   0.251366 0.218077 0.353970 -0.267834
C29   C     C_3   0.151354 0.192718 0.277425 -0.976250
C30   C     C_3   0.713749 0.865444 0.591198 -0.368912
C31   C     C_3   0.705736 0.779210 0.675749 -0.256576
C32   C     C_3   0.813604 0.800611 0.747269 -0.969718
C33   C     C_R   0.499372 0.500362 0.671674 0.822447
C34   C     C_R   0.570887 0.067013 0.563709 0.095900
C35   C     C_R   0.411330 0.932049 0.447753 0.096902
C36   C     C_R   0.426387 0.072007 0.437134 0.104805
C37   C     C_R   0.588256 0.927247 0.552274 0.094742
C38   C     C_R   0.074327 0.419359 0.558525 -0.176931
H1    H     H_    0.593498 0.694140 0.064693 0.131971
H2    H     H_    0.868605 0.647385 0.393661 0.137626
H3    H     H_    0.904503 0.358705 0.607262 0.138723
H4    H     H_    0.098241 0.651067 0.394403 0.146682
H5    H     H_    0.772648 0.165368 0.800713 0.267323
H6    H     H_    0.881084 0.081189 0.730444 0.272483
H7    H     H_    0.892308 0.255024 0.749342 0.255053
H8    H     H_    0.785890 0.177459 0.595697 0.220475
H9    H     H_    0.711061 0.307067 0.656116 0.242100
H10   H     H_    0.533379 0.174994 0.681651 0.199020
H11   H     H_    0.627610 0.038705 0.704136 0.196098
H12   H     H_    0.580180 0.318029 0.952023 0.132674
H13   H     H_    0.098377 0.826630 0.278232 0.263472
H14   H     H_    0.206105 0.923170 0.217574 0.272206
H15   H     H_    0.192072 0.749985 0.196176 0.265377
H16   H     H_    0.389643 0.812430 0.292351 0.229926
H17   H     H_    0.291255 0.688519 0.336846 0.238533
H18   H     H_    0.243087 0.819066 0.460347 0.204915
H19   H     H_    0.216418 0.955492 0.395754 0.199544
H20   H     H_    0.193411 0.193517 0.211685 0.263083
H21   H     H_    0.106024 0.096876 0.287330 0.272386
H22   H     H_    0.076497 0.271450 0.276753 0.266189
H23   H     H_    0.405381 0.707899 0.931930 0.131729
H24   H     H_    0.208244 0.200235 0.418214 0.234248
H25   H     H_    0.274342 0.323653 0.348724 0.238814
H26   H     H_    0.449067 0.183890 0.317845 0.200452
H27   H     H_    0.355248 0.054127 0.298475 0.198838
H28   H     H_    0.905979 0.800233 0.717013 0.272226
H29   H     H_    0.798323 0.894912 0.782696 0.269444
H30   H     H_    0.815639 0.719776 0.797824 0.261530
H31   H     H_    0.615301 0.798944 0.706612 0.223809
H32   H     H_    0.713337 0.673819 0.657281 0.245828
H33   H     H_    0.762334 0.813754 0.538399 0.204209
H34   H     H_    0.380552 0.335714 0.050427 0.132290
H35   H     H_    0.781438 0.944929 0.607539 0.197385
H36   H     H_    0.600722 0.685929 0.228438 0.144408
H37   H     H_    0.587129 0.311641 0.790733 0.156963
H38   H     H_    0.408442 0.700226 0.768939 0.149140
H39   H     H_    0.384206 0.329514 0.212622 0.150272
H40   H     H_    0.131713 0.356736 0.605305 0.144340
N1    N     N_R   0.500000 0.857200 0.500000 -0.116156
N2    N     N_R   0.500000 0.142800 0.500000 -0.114525
O1    O     O_R   0.316770 0.614620 0.499990 -0.626332
O2    O     O_R   0.683230 0.385380 0.500010 -0.617457
O3    O     O_R   0.683230 0.614620 0.500010 -0.632099
O4    O     O_R   0.316770 0.385380 0.499990 -0.628555
O5    O     O_R   0.499990 0.614660 0.369060 -0.631992
O6    O     O_R   0.500010 0.385340 0.630940 -0.629035
O7    O     O_R   0.500010 0.614660 0.630940 -0.630688
O8    O     O_R   0.499990 0.385340 0.369060 -0.623901
Zn1   Zn    Zn3+2 0.500000 0.653120 0.500000 0.917526
Zn2   Zn    Zn3+2 0.500000 0.346880 0.500000 0.925013

loop_
_geom_bond_atom_site_label_1
_geom_bond_atom_site_label_2
_ccdc_geom_bond_type
C24   C25   S    
C8    C13   A    
C2    C18   A    
C34   C37   A    
C35   C36   A    
C9    C14   A    
C30   H33   S    
C1    O4    A    
C7    C11   A    
C37   N1    A    
C28   C29   S    
C11   H38   S    
C30   C31   S    
C1    O1    A    
C3    C18   A    
C7    H23   S    
C5    C16   A    
C34   N2    A    
C4    C19   A    
C11   C15   A    
C31   H32   S    
C22   H6    S    
C22   H5    S    
C3    C38   A    
C16   C17   S    
C7    C17   A    
C32   H30   S    
C20   C34   S    
C8    C16   A    
C21   C22   S    
O4    Zn2   S    
O3    Zn1   S    
C13   H39   S    
C8    H34   S    
C24   C35   S    
C1    C19   S    
C29   H21   S    
C25   H16   S    
C36   N2    A    
C30   H35   S    
O5    Zn1   S    
C24   H19   S    
C38   H40   S    
C25   C26   S    
C30   C37   S    
C14   C23   S    
C2    C4    A    
C33   O6    A    
C5    C9    A    
C20   H11   S    
C27   H27   S    
C19   C38   A    
C26   H14   S    
C10   H37   S    
C31   C32   S    
C29   H22   S    
C12   O2    A    
C6    H12   S    
C20   H10   S    
C32   H29   S    
O8    Zn2   S    
C23   O8    A    
C5    H1    S    
O6    Zn2   S    
C9    H36   S    
C26   H15   S    
C29   H20   S    
C32   H28   S    
C21   H8    S    
C6    C17   A    
C3    H3    S    
C25   H17   S    
C6    C10   A    
C27   C36   S    
C24   H18   S    
O2    Zn2   S    
C10   C15   A    
O7    Zn1   S    
C33   O7    A    
O1    Zn1   S    
C26   H13   S    
C4    H4    S    
C35   N1    A    
N2    Zn2   S    
N1    Zn1   S    
C27   H26   S    
C28   H25   S    
C2    H2    S    
C31   H31   S    
C22   H7    S    
C20   C21   S    
C12   O3    A    
C23   O5    A    
C12   C18   S    
C27   C28   S    
C13   C14   A    
C15   C33   S    
C21   H9    S    
C28   H24   S    
