data_mof_unit_8179.cif
_audit_creation_date              2012-12-10T16:48:41-0500
_audit_creation_method            fapswitch 2.2
_symmetry_space_group_name_H-M    P1
_symmetry_Int_Tables_number       1
_space_group_crystal_system       triclinic
_cell_length_a                    7.764671
_cell_length_b                    8.614134
_cell_length_c                    10.562989
_cell_angle_alpha                 88.855172
_cell_angle_beta                  97.68132
_cell_angle_gamma                 93.232892
_cell_volume                      699.005958467

loop_
_atom_site_label
_atom_site_type_symbol
_atom_type_description
_atom_site_fract_x
_atom_site_fract_y
_atom_site_fract_z
_atom_type_partial_charge
C1    C     C_R   0.544426 0.794540 0.498140 0.932887
C2    C     C_R   0.455600 0.205476 0.502046 1.013284
C3    C     C_R   0.568165 0.483606 0.736986 0.948564
C4    C     C_R   0.428362 0.496718 0.263026 0.970675
C5    C     C_2   0.595542 0.448135 0.873092 -0.318524
C6    C     C_2   0.389575 0.467441 0.126908 -0.369742
C7    C     C_2   0.468575 0.373119 0.930692 -0.061656
C8    C     C_2   0.485594 0.370834 0.068956 -0.100743
C9    C     C_2   0.568542 0.955602 0.519944 -0.261239
C10   C     C_2   0.431254 0.044323 0.481134 -0.257737
N1    N     N_2   0.940600 0.458860 0.467170 -0.156540
N2    N     N_2   0.059400 0.541140 0.532830 -0.157634
O1    O     O_R   0.391630 0.738350 0.508060 -0.609601
O2    O     O_R   0.608370 0.261650 0.491940 -0.583233
O3    O     O_R   0.674540 0.711990 0.487010 -0.592166
O4    O     O_R   0.325460 0.288010 0.512990 -0.597280
O5    O     O_R   0.411370 0.508250 0.688780 -0.618563
O6    O     O_R   0.588630 0.491750 0.311220 -0.605901
O7    O     O_R   0.694270 0.481880 0.667740 -0.600638
O8    O     O_R   0.305730 0.518120 0.332260 -0.605155
Zn1   Zn    Zn3+2 0.311100 0.517600 0.514050 1.015959
Zn2   Zn    Zn3+2 0.688900 0.482400 0.485950 1.032749
C11   C     C_2   0.603340 0.255859 0.135863 0.983101
O9    O     O_2   0.565975 0.188124 0.231898 -0.632617
O10   O     O_R   0.752164 0.218542 0.084067 -0.775075
H1    H     H_    0.820481 0.137367 0.136832 0.360393
C12   C     C_2   0.315640 0.283882 0.862491 0.985497
O11   O     O_2   0.172516 0.290399 0.897804 -0.624583
O12   O     O_R   0.337531 0.185045 0.763537 -0.770114
H2    H     H_    0.224953 0.127070 0.727385 0.359157
H3    H     H_    0.291826 0.535238 0.071038 0.181540
H4    H     H_    0.713986 0.495052 0.929145 0.175392
C13   C     C_2   0.723759 0.005931 0.613009 0.939853
O13   O     O_2   0.867264 0.960608 0.601492 -0.594033
O14   O     O_R   0.704164 0.101095 0.715390 -0.761852
H5    H     H_    0.818297 0.126722 0.771486 0.371056
C14   C     C_2   0.276224 0.994148 0.387865 0.974970
O15   O     O_2   0.132614 0.039292 0.399314 -0.594829
O16   O     O_R   0.296304 0.899638 0.285176 -0.778746
H6    H     H_    0.182373 0.874571 0.228677 0.343641
H7    H     H_    0.985923 0.382852 0.406953 0.221210
H8    H     H_    0.014046 0.617070 0.593082 0.218274

loop_
_geom_bond_atom_site_label_1
_geom_bond_atom_site_label_2
_ccdc_geom_bond_type
C6    C8    D    
N1    N2    D    
C3    O7    A    
O4    Zn1   S    
C1    O3    A    
C12   O12   S    
O12   H2    S    
C2    O4    A    
C9    C10   D    
N1    Zn2   S    
O14   H5    S    
C11   O9    D    
C5    H4    S    
C4    O6    A    
O2    Zn2   S    
C13   O13   D    
O1    Zn1   S    
C7    C8    S    
C14   O16   S    
C9    C13   S    
C14   O15   D    
C3    O5    A    
C10   C14   S    
C13   O14   S    
N1    H7    S    
C6    H3    S    
C11   O10   S    
C2    O2    A    
C1    O1    A    
C4    O8    A    
C1    C9    S    
O16   H6    S    
C8    C11   S    
C7    C12   S    
O8    Zn1   S    
C4    C6    S    
O7    Zn2   S    
C12   O11   D    
C5    C7    D    
N2    H8    S    
O10   H1    S    
O6    Zn2   S    
N2    Zn1   S    
O3    Zn2   S    
O5    Zn1   S    
C3    C5    S    
C2    C10   S    
