data_mof_unit_51714.cif
_audit_creation_date              2012-12-11T16:18:07-0500
_audit_creation_method            fapswitch 2.2
_symmetry_space_group_name_H-M    P1
_symmetry_Int_Tables_number       1
_space_group_crystal_system       triclinic
_cell_length_a                    14.031263
_cell_length_b                    14.041831
_cell_length_c                    30.093806
_cell_angle_alpha                 97.052739
_cell_angle_beta                  97.07933
_cell_angle_gamma                 61.377981
_cell_volume                      5151.1380596

loop_
_atom_site_label
_atom_site_type_symbol
_atom_type_description
_atom_site_fract_x
_atom_site_fract_y
_atom_site_fract_z
_atom_type_partial_charge
C1    C     C_R   0.385113 0.712220 0.442521 0.536627
C2    C     C_R   0.798095 0.261663 0.378529 -0.007047
C3    C     C_R   0.103638 0.528811 0.705579 -0.084896
C4    C     C_R   0.032309 0.619390 0.731451 -0.110912
C5    C     C_R   0.043062 0.714173 0.737078 -0.099140
C6    C     C_R   0.124926 0.718708 0.716705 -0.104853
C7    C     C_R   0.196399 0.628343 0.690797 -0.097368
C8    C     C_3   0.522450 0.242423 0.824427 -0.400049
C9    C     C_3   0.496549 0.235204 0.919199 -0.382734
C10   C     C_3   0.461050 0.129222 0.666462 -0.406049
C11   C     C_3   0.242346 0.063170 0.783547 -0.398475
C12   C     C_3   0.793444 0.171813 0.399429 -0.380033
C13   C     C_R   0.827373 0.242459 0.334108 -0.089487
C14   C     C_R   0.398783 0.381207 0.426470 0.547945
C15   C     C_R   0.832669 0.322934 0.313192 0.027657
C16   C     C_R   0.819025 0.419204 0.337294 -0.123708
C17   C     C_R   0.789620 0.439937 0.381234 -0.143138
C18   C     C_R   0.842451 0.393147 0.160808 -0.126810
C19   C     C_R   0.865273 0.387238 0.116562 -0.133048
C20   C     C_R   0.896312 0.200810 0.106555 -0.112179
C21   C     C_R   0.873975 0.205706 0.151074 0.017485
C22   C     C_R   0.357680 0.235467 0.223184 -0.105808
C23   C     C_R   0.850991 0.301795 0.178692 0.057368
C24   C     C_1   0.845268 0.306346 0.226079 -0.025148
C25   C     C_1   0.841440 0.311864 0.265915 -0.033009
C26   C     C_R   0.711354 0.404712 0.442680 0.541423
C27   C     C_R   0.897319 0.289423 0.089706 0.005217
C28   C     C_R   0.362692 0.776012 0.403218 -0.007546
C29   C     C_R   0.449695 0.784392 0.388407 -0.143407
C30   C     C_R   0.443364 0.818101 0.345764 -0.000413
C31   C     C_R   0.348381 0.842352 0.317452 0.015568
C32   C     C_R   0.257683 0.845439 0.333422 -0.131050
C33   C     C_R   0.365179 0.243648 0.270018 -0.107854
C34   C     C_R   0.262468 0.814887 0.376477 -0.021021
C35   C     C_R   0.232986 0.877624 0.159772 -0.124167
C36   C     C_R   0.215400 0.898046 0.114750 -0.137525
C37   C     C_R   0.399039 0.876038 0.115557 -0.008728
C38   C     C_R   0.389606 0.711858 0.568174 0.540665
C39   C     C_R   0.415081 0.855905 0.161145 -0.093286
C40   C     C_R   0.330899 0.860923 0.183269 0.025082
C41   C     C_1   0.341552 0.855020 0.230694 -0.028790
C42   C     C_1   0.345936 0.851052 0.270447 -0.025805
C43   C     C_R   0.295301 0.903298 0.092528 0.034675
C44   C     C_R   0.324176 0.346065 0.293462 0.039123
C45   C     C_R   0.363657 0.361288 0.591192 -0.009335
C46   C     C_R   0.416824 0.257658 0.607608 -0.115789
C47   C     C_R   0.397964 0.241990 0.650006 -0.001689
C48   C     C_R   0.325442 0.332510 0.676425 0.041346
C49   C     C_R   0.264742 0.435303 0.658595 -0.014179
C50   C     C_R   0.401973 0.382789 0.552147 0.540974
C51   C     C_R   0.284037 0.448209 0.615836 -0.141118
C52   C     C_R   0.213405 0.359833 0.824574 -0.144246
C53   C     C_R   0.201787 0.350785 0.868526 -0.151671
C54   C     C_R   0.398275 0.273234 0.885573 0.013028
C55   C     C_R   0.309817 0.329684 0.199661 0.038839
C56   C     C_R   0.410327 0.280124 0.840066 0.036007
C57   C     C_R   0.316537 0.320854 0.809751 0.040760
C58   C     C_1   0.322156 0.321929 0.762776 -0.035569
C59   C     C_1   0.323892 0.324683 0.723315 -0.034696
C60   C     C_R   0.293395 0.302549 0.898787 0.022961
C61   C     C_1   0.762751 0.376008 0.612426 -0.016347
C62   C     C_R   0.713138 0.407716 0.568519 0.545384
C63   C     C_R   0.916850 0.321051 0.719352 -0.110112
C64   C     C_R   0.937482 0.306420 0.765320 -0.112396
C65   C     C_R   0.762436 0.312201 0.767385 -0.108955
C66   C     C_1   0.299841 0.319260 0.151562 -0.059167
C67   C     C_R   0.741855 0.326687 0.721393 -0.107665
C68   C     C_R   0.818727 0.331714 0.697355 0.038485
C69   C     C_R   0.860012 0.302782 0.789464 0.038900
C70   C     C_1   0.881441 0.291314 0.836972 -0.066767
C71   C     C_1   0.793000 0.353684 0.650766 -0.060604
C72   C     C_1   0.907550 0.281691 0.876462 -0.024003
C73   C     C_1   0.375134 0.760649 0.613177 -0.020446
C74   C     C_1   0.364496 0.363880 0.380949 -0.015324
C75   C     C_R   0.391693 0.730015 0.727912 -0.120069
C76   C     C_R   0.377765 0.752086 0.773806 -0.120993
C77   C     C_1   0.342644 0.354251 0.341340 -0.060838
C78   C     C_R   0.294436 0.946433 0.764476 0.017339
C79   C     C_R   0.308335 0.923103 0.718203 -0.090202
C80   C     C_R   0.356113 0.815268 0.699982 0.016894
C81   C     C_R   0.328813 0.859672 0.792290 0.048012
C82   C     C_1   0.311457 0.880654 0.839493 -0.057375
C83   C     C_1   0.365625 0.790313 0.652424 -0.067456
C84   C     C_1   0.292044 0.906265 0.878321 -0.016261
C85   C     C_R   0.950948 0.272749 0.048277 0.541145
C86   C     C_R   0.275271 0.440454 0.269982 -0.105852
C87   C     C_R   0.275277 0.269979 0.065502 0.545373
C88   C     C_1   0.290140 0.302236 0.111576 -0.015146
C89   C     C_R   0.260659 0.954366 0.049185 0.541721
C90   C     C_R   0.952443 0.269036 0.922015 0.541826
C91   C     C_R   0.276781 0.266950 0.939902 0.533779
C92   C     C_R   0.261357 0.951226 0.922785 0.545787
C93   C     C_R   0.267722 0.432300 0.223053 -0.107084
C94   C     C_3   0.881104 0.105592 0.168000 -0.406138
C95   C     C_R   0.161664 0.824277 0.391782 0.060361
C96   C     C_R   0.116660 0.890778 0.430459 -0.063540
C97   C     C_R   0.019185 0.903174 0.443912 -0.114624
C98   C     C_R   0.965802 0.849754 0.418812 -0.109834
C99   C     C_R   0.771512 0.365341 0.401490 0.033209
C100  C     C_R   0.009864 0.783703 0.380239 -0.115894
C101  C     C_R   0.107294 0.771087 0.366648 -0.089208
C102  C     C_3   0.492260 0.870427 0.093251 -0.384171
C103  C     C_R   0.537730 0.823731 0.331013 0.039475
C104  C     C_R   0.522815 0.917739 0.312629 -0.088828
C105  C     C_R   0.611914 0.923798 0.299569 -0.117742
C106  C     C_R   0.716603 0.836412 0.304901 -0.105444
C107  C     C_R   0.732298 0.742705 0.323166 -0.118909
C108  C     C_R   0.643353 0.736281 0.336168 -0.100398
C109  C     C_R   0.186965 0.532196 0.685289 0.034427
Cr1   Cr    Cr6+3 0.581000 0.584320 0.508140 1.018357
Cr2   Cr    Cr6+3 0.339110 0.576430 0.496080 1.030387
Cr3   Cr    Cr6+3 0.579910 0.339270 0.495810 1.007770
Cr4   Cr    Cr6+3 0.082090 0.079210 0.982490 1.016940
Cr5   Cr    Cr6+3 0.082460 0.324610 0.994920 1.019555
Cr6   Cr    Cr6+3 0.323630 0.087860 0.996130 1.007847
H1    H     H_    0.244741 0.520035 0.287938 0.103847
H2    H     H_    0.120748 0.374640 0.877840 0.142678
H3    H     H_    0.141504 0.392819 0.801405 0.110025
H4    H     H_    0.241204 0.528212 0.603000 0.137588
H5    H     H_    0.477063 0.189588 0.588327 0.133986
H6    H     H_    0.976482 0.325521 0.701193 0.102266
H7    H     H_    0.389519 0.155719 0.205306 0.111300
H8    H     H_    0.013267 0.299192 0.782166 0.098871
H9    H     H_    0.702065 0.309540 0.785722 0.103431
H10   H     H_    0.665362 0.335534 0.704690 0.111446
H11   H     H_    0.428795 0.646262 0.714051 0.113127
H12   H     H_    0.919940 0.124940 0.086083 0.126746
H13   H     H_    0.404191 0.685196 0.794824 0.116192
H14   H     H_    0.281091 0.988623 0.696336 0.107758
H15   H     H_    0.404460 0.170380 0.287920 0.099612
H16   H     H_    0.864792 0.456946 0.104405 0.132872
H17   H     H_    0.823835 0.467460 0.181845 0.112153
H18   H     H_    0.825207 0.480910 0.321315 0.108500
H19   H     H_    0.773941 0.518041 0.398244 0.126793
H20   H     H_    0.859936 0.118018 0.203291 0.136242
H21   H     H_    0.824017 0.081898 0.146918 0.126223
H22   H     H_    0.965202 0.037630 0.165721 0.120963
H23   H     H_    0.841178 0.166743 0.315077 0.104742
H24   H     H_    0.156677 0.933477 0.449928 0.099985
H25   H     H_    0.984716 0.954675 0.473669 0.103169
H26   H     H_    0.890171 0.859747 0.429185 0.111922
H27   H     H_    0.968354 0.742529 0.360790 0.101258
H28   H     H_    0.140417 0.719888 0.336620 0.093128
H29   H     H_    0.501559 0.822955 0.060260 0.135938
H30   H     H_    0.477889 0.953655 0.088740 0.166391
H31   H     H_    0.570483 0.829511 0.113845 0.107716
H32   H     H_    0.442378 0.986657 0.308844 0.105279
H33   H     H_    0.599862 0.996445 0.285500 0.101848
H34   H     H_    0.135819 0.917149 0.098299 0.129581
H35   H     H_    0.785553 0.841337 0.294925 0.101670
H36   H     H_    0.813409 0.675037 0.327258 0.095751
H37   H     H_    0.656505 0.663002 0.349931 0.102168
H38   H     H_    0.093966 0.456104 0.701388 0.101053
H39   H     H_    0.968693 0.616053 0.747151 0.108655
H40   H     H_    0.987867 0.784152 0.757171 0.111958
H41   H     H_    0.133234 0.792141 0.721080 0.124555
H42   H     H_    0.259833 0.632883 0.675460 0.108577
H43   H     H_    0.521887 0.247208 0.787906 0.133297
H44   H     H_    0.557894 0.293788 0.841952 0.124415
H45   H     H_    0.168118 0.879902 0.176799 0.105127
H46   H     H_    0.576458 0.156333 0.831835 0.129851
H47   H     H_    0.551324 0.147057 0.912145 0.138912
H48   H     H_    0.541595 0.281226 0.917214 0.120217
H49   H     H_    0.474109 0.249944 0.954372 0.146445
H50   H     H_    0.437198 0.123300 0.699392 0.139825
H51   H     H_    0.446467 0.070856 0.641931 0.130360
H52   H     H_    0.549399 0.104487 0.669627 0.132263
H53   H     H_    0.220700 0.120664 0.757220 0.119323
H54   H     H_    0.166747 0.082627 0.799130 0.139636
H55   H     H_    0.299546 0.076035 0.809427 0.148006
H56   H     H_    0.183525 0.868824 0.311629 0.108268
H57   H     H_    0.833866 0.092852 0.379308 0.117864
H58   H     H_    0.836406 0.160739 0.433454 0.133855
H59   H     H_    0.707537 0.191004 0.401357 0.169227
H60   H     H_    0.525020 0.760211 0.409353 0.131132
H61   H     H_    0.491687 0.840296 0.179874 0.112994
H62   H     H_    0.229696 0.505544 0.205108 0.107033
O1    O     O_R   0.688580 0.499770 0.460490 -0.521708
O2    O     O_R   0.346150 0.177650 0.050510 -0.518489
O3    O     O_R   0.314200 0.996600 0.036060 -0.501638
O4    O     O_R   0.480400 0.672610 0.462660 -0.506318
O5    O     O_R   0.168690 0.969990 0.933130 -0.504880
O6    O     O_R   0.991920 0.175870 0.937430 -0.492961
O7    O     O_R   0.974010 0.342590 0.941330 -0.512690
O8    O     O_R   0.182630 0.317940 0.955040 -0.504028
O9    O     O_R   0.347320 0.174720 0.953250 -0.512148
O10   O     O_R   0.315290 0.993890 0.945900 -0.493873
O11   O     O_3   0.162730 0.163890 0.991180 -0.240141
O12   O     O_R   0.348600 0.476260 0.536540 -0.502448
O13   O     O_R   0.315310 0.685650 0.451800 -0.496404
O14   O     O_R   0.346220 0.474990 0.446280 -0.489129
O15   O     O_R   0.492270 0.312460 0.441630 -0.517218
O16   O     O_R   0.669740 0.350480 0.455640 -0.503357
O17   O     O_R   0.691150 0.501150 0.557860 -0.503726
O18   O     O_R   0.482790 0.673890 0.552920 -0.492401
O19   O     O_R   0.317880 0.687030 0.549170 -0.513280
O20   O     O_R   0.494840 0.313840 0.539010 -0.515689
O21   O     O_R   0.672120 0.351750 0.545910 -0.495969
O22   O     O_3   0.500010 0.500010 0.500010 -0.240662
O23   O     O_R   0.167510 0.972920 0.030390 -0.522474
O24   O     O_R   0.990840 0.178580 0.027590 -0.505528
O25   O     O_R   0.972840 0.345510 0.038590 -0.513592
O26   O     O_R   0.181550 0.320660 0.045200 -0.491415

loop_
_geom_bond_atom_site_label_1
_geom_bond_atom_site_label_2
_ccdc_geom_bond_type
C33   H15   S    
C4    H39   S    
C87   C88   S    
Cr2   O14   S    
C106  H35   S    
C31   C42   S    
C41   C42   T    
C18   H17   S    
C95   C96   A    
C55   C93   A    
C2    C12   S    
C8    C56   S    
C96   H24   S    
C81   C82   S    
C92   O10   A    
C12   H57   S    
C54   C60   A    
C45   C46   A    
C56   C57   A    
C26   C99   S    
C43   C89   S    
Cr5   O8    S    
C14   C74   S    
C49   C109  S    
C28   C29   A    
C86   C93   A    
C8    H46   S    
C67   H10   S    
C102  H30   S    
C66   C88   T    
C30   C31   A    
Cr5   O7    S    
C36   H34   S    
C15   C25   S    
C106  C107  A    
C45   C51   A    
C15   C16   A    
C79   H14   S    
C97   C98   A    
C3    H38   S    
Cr5   O11   S    
C38   O18   A    
C86   H1    S    
C18   C19   A    
C89   O3    A    
Cr3   O21   S    
C9    H48   S    
C2    C13   A    
C35   H45   S    
C103  C104  A    
Cr2   O22   S    
C108  H37   S    
C53   C60   A    
C35   C36   A    
Cr1   O4    S    
C90   O6    A    
C10   H52   S    
C49   C51   A    
C74   C77   T    
C30   C103  S    
Cr1   O17   S    
C1    C28   S    
C51   H4    S    
C107  C108  A    
Cr5   O25   S    
C103  C108  A    
Cr4   O24   S    
C19   C27   A    
C75   C80   A    
Cr3   O22   S    
Cr6   O3    S    
C85   O24   A    
Cr2   O19   S    
C107  H36   S    
C1    O13   A    
C61   C71   T    
C91   O8    A    
C8    H43   S    
C104  H32   S    
C9    H47   S    
C102  H29   S    
C29   H60   S    
C80   C83   S    
C44   C86   A    
C16   H18   S    
C87   O26   A    
C104  C105  A    
C63   H6    S    
C50   O20   A    
C27   C85   S    
C22   H7    S    
C26   O1    A    
C19   H16   S    
C54   C56   A    
C10   C47   S    
C67   C68   A    
C47   C48   A    
C34   C95   S    
C62   O21   A    
C20   H12   S    
C39   C40   A    
Cr6   O9    S    
C1    O4    A    
C78   C79   A    
C16   C17   A    
C65   C67   A    
C58   C59   T    
C5    H40   S    
C105  H33   S    
C87   O2    A    
Cr6   O2    S    
C37   C102  S    
C18   C23   A    
Cr4   O6    S    
C32   C34   A    
C37   C43   A    
C9    H49   S    
C75   C76   A    
C39   H61   S    
C29   C30   A    
C11   C78   S    
Cr3   O15   S    
Cr6   O10   S    
C94   H21   S    
C31   C32   A    
C23   C24   S    
C96   C97   A    
C94   H20   S    
C46   H5    S    
C68   C71   S    
C64   C69   A    
C24   C25   T    
C17   C99   A    
C6    C7    A    
C85   O25   A    
C11   H55   S    
C14   O14   A    
C40   C41   S    
C32   H56   S    
C90   O7    A    
C2    C99   A    
C11   H54   S    
C98   C100  A    
C13   C15   A    
C98   H26   S    
C11   H53   S    
C76   H13   S    
C79   C80   A    
C50   O12   A    
C62   O17   A    
C3    C4    A    
Cr4   O5    S    
C52   H3    S    
Cr3   O20   S    
Cr1   O18   S    
C55   C66   S    
C52   C53   A    
C48   C59   S    
C12   H59   S    
C72   C90   S    
C60   C91   S    
C89   O23   A    
C46   C47   A    
C44   C77   S    
C93   H62   S    
C97   H25   S    
Cr1   O22   S    
C33   C44   A    
C91   O9    A    
C4    C5    A    
C76   C81   A    
C70   C72   T    
Cr2   O12   S    
C22   C55   A    
C7    H42   S    
C20   C27   A    
C10   H51   S    
C64   H8    S    
C105  C106  A    
C63   C68   A    
C82   C84   T    
C75   H11   S    
C13   H23   S    
C21   C23   A    
C35   C40   A    
C14   O15   A    
C37   C39   A    
C100  H27   S    
C102  H31   S    
Cr6   O11   S    
C101  H28   S    
C78   C81   A    
C57   C58   S    
C5    C6    A    
C45   C50   S    
C3    C109  A    
C10   H50   S    
C65   C69   A    
C100  C101  A    
Cr4   O23   S    
C38   O19   A    
C53   H2    S    
C61   C62   S    
C69   C70   S    
Cr3   O16   S    
C52   C57   A    
C28   C34   A    
C63   C64   A    
C65   H9    S    
C7    C109  A    
C21   C94   S    
C20   C21   A    
Cr2   O13   S    
C48   C49   A    
C17   H19   S    
C94   H22   S    
Cr1   O1    S    
Cr5   O26   S    
Cr4   O11   S    
C36   C43   A    
C92   O5    A    
C9    C54   S    
C84   C92   S    
C26   O16   A    
C73   C83   T    
C6    H41   S    
C95   C101  A    
C8    H44   S    
C12   H58   S    
C38   C73   S    
C22   C33   A    
