data_mof_unit_46959.cif
_audit_creation_date              2012-12-11T16:08:30-0500
_audit_creation_method            fapswitch 2.2
_symmetry_space_group_name_H-M    P1
_symmetry_Int_Tables_number       1
_space_group_crystal_system       triclinic
_cell_length_a                    12.976062
_cell_length_b                    13.279685
_cell_length_c                    27.681933
_cell_angle_alpha                 94.938972
_cell_angle_beta                  89.567015
_cell_angle_gamma                 119.025621
_cell_volume                      4152.29170603

loop_
_atom_site_label
_atom_site_type_symbol
_atom_type_description
_atom_site_fract_x
_atom_site_fract_y
_atom_site_fract_z
_atom_type_partial_charge
C1    C     C_R   0.628721 0.894887 0.427548 0.542072
C2    C     C_R   0.131186 0.737581 0.306356 0.014371
C3    C     C_3   0.094393 0.385017 0.325133 -0.239184
C4    C     C_3   0.188640 0.347589 0.321776 -0.502136
C5    C     C_R   0.081816 0.710854 0.207335 -0.019836
C6    C     C_R   0.600867 0.221573 0.440269 0.538527
C7    C     C_R   0.048849 0.613331 0.232889 -0.116071
C8    C     C_R   0.076474 0.626168 0.281998 0.254086
C9    C     C_R   0.041431 0.698706 0.160023 -0.012155
C10   C     C_R   0.095484 0.792561 0.131292 0.019786
C11   C     C_R   0.248553 0.961279 0.354021 -0.138726
C12   C     C_R   0.227465 0.948597 0.304288 0.005286
C13   C     C_R   0.169386 0.836359 0.280276 0.015955
C14   C     C_R   0.604207 0.371916 0.230796 -0.128635
C15   C     C_R   0.268925 0.045825 0.277905 -0.148093
C16   C     C_R   0.253026 0.031743 0.227483 -0.145595
C17   C     C_R   0.191856 0.920405 0.203350 0.013269
C18   C     C_R   0.270261 0.877675 0.426115 0.544344
C19   C     C_R   0.149646 0.822668 0.230171 0.035924
C20   C     C_R   0.169668 0.904079 0.153093 -0.162237
C21   C     C_R   0.216102 0.863177 0.379121 -0.015235
C22   C     C_R   0.773940 0.905526 0.365659 -0.135991
C23   C     C_R   0.796778 0.876459 0.318519 -0.001213
C24   C     C_R   0.829317 0.843854 0.219148 0.007879
C25   C     C_R   0.600723 0.361961 0.280726 -0.166188
C26   C     C_R   0.923616 0.926211 0.249709 -0.133944
C27   C     C_R   0.907720 0.941978 0.299179 -0.140386
C28   C     C_R   0.840234 0.836980 0.168867 -0.140217
C29   C     C_R   0.743593 0.758696 0.138175 -0.018673
C30   C     C_R   0.626545 0.898799 0.565059 0.543322
C31   C     C_R   0.570966 0.750379 0.355176 -0.145715
C32   C     C_R   0.592092 0.720824 0.307851 0.005489
C33   C     C_R   0.704046 0.787219 0.288780 0.054397
C34   C     C_R   0.500362 0.632757 0.277944 -0.141001
C35   C     C_R   0.516854 0.615935 0.228620 -0.143474
C36   C     C_R   0.660341 0.311465 0.301702 0.059372
C37   C     C_R   0.625140 0.687276 0.208563 0.009268
C38   C     C_R   0.720299 0.771050 0.238983 0.061801
C39   C     C_R   0.638047 0.680342 0.158363 -0.137289
C40   C     C_R   0.659398 0.847352 0.383059 -0.013269
C41   C     C_R   0.737230 0.294790 0.652038 -0.131869
C42   C     C_R   0.601894 0.225934 0.578723 0.546954
C43   C     C_R   0.749939 0.313992 0.702658 0.011627
C44   C     C_R   0.767983 0.343037 0.804632 0.008929
C45   C     C_R   0.859576 0.341449 0.777883 -0.132038
C46   C     C_R   0.849948 0.325549 0.727179 -0.121426
C47   C     C_R   0.668342 0.332669 0.201426 -0.015557
C48   C     C_R   0.779140 0.366362 0.855168 -0.137348
C49   C     C_R   0.687916 0.372075 0.880791 -0.006185
C50   C     C_R   0.549640 0.294436 0.655203 -0.132221
C51   C     C_R   0.558271 0.307917 0.705401 0.006558
C52   C     C_R   0.658169 0.316737 0.729384 0.057884
C53   C     C_R   0.465760 0.307403 0.731898 -0.140643
C54   C     C_R   0.271211 0.879421 0.563305 0.547713
C55   C     C_R   0.471900 0.315223 0.782217 -0.141372
C56   C     C_R   0.571454 0.325953 0.806414 0.003694
C57   C     C_R   0.665616 0.327672 0.780153 0.057780
C58   C     C_1   0.679901 0.353166 0.150885 -0.069123
C59   C     C_R   0.581070 0.342332 0.856550 -0.133797
C60   C     C_R   0.634742 0.280353 0.628445 -0.006780
C61   C     C_1   0.222254 0.863924 0.610268 -0.012407
C62   C     C_R   0.070451 0.767729 0.719920 -0.126465
C63   C     C_R   0.056782 0.758831 0.769653 -0.129799
C64   C     C_R   0.253952 0.922946 0.786181 0.011440
C65   C     C_R   0.266661 0.931177 0.736012 -0.093138
C66   C     C_1   0.631667 0.267230 0.393880 -0.012168
C67   C     C_R   0.175587 0.853347 0.703057 0.012529
C68   C     C_R   0.148180 0.835028 0.802890 0.044086
C69   C     C_1   0.648014 0.292609 0.352575 -0.010865
C70   C     C_1   0.129885 0.819630 0.853680 -0.061887
C71   C     C_1   0.195172 0.857167 0.651995 -0.064052
C72   C     C_1   0.104315 0.799701 0.894974 -0.018906
C73   C     C_1   0.641215 0.865084 0.611267 0.002260
C74   C     C_R   0.761928 0.900998 0.730518 0.289859
C75   C     C_R   0.762007 0.893459 0.781189 -0.103446
C76   C     C_R   0.558869 0.740088 0.774906 -0.121431
C77   C     C_R   0.556305 0.749007 0.725016 -0.160094
C78   C     C_R   0.721838 0.268377 0.272201 0.325273
C79   C     C_R   0.656888 0.829423 0.702856 0.051682
C80   C     C_1   0.693833 0.382831 0.110266 -0.031357
C81   C     C_R   0.661430 0.813110 0.803121 -0.003627
C82   C     C_1   0.668480 0.801367 0.854069 -0.055326
C83   C     C_1   0.649279 0.844980 0.652315 -0.004581
C84   C     C_1   0.684370 0.791307 0.895840 -0.013201
C85   C     C_R   0.061325 0.770679 0.079931 0.532296
C86   C     C_R   0.714163 0.436627 0.065733 0.525146
C87   C     C_R   0.756062 0.757702 0.085258 0.559413
C88   C     C_R   0.057492 0.766666 0.941470 0.549758
C89   C     C_R   0.710376 0.433014 0.929367 0.548088
C90   C     C_R   0.729585 0.283898 0.222269 -0.095723
C91   C     C_R   0.153679 0.752354 0.355910 -0.119846
C92   C     C_R   0.716703 0.776492 0.943081 0.557987
C93   C     C_3   0.736390 0.101860 0.273172 0.000522
C94   C     C_3   0.613996 0.018419 0.291176 -0.263262
C95   C     C_3   0.513172 0.999794 0.257022 -0.432890
C96   C     C_3   0.352866 0.006939 0.821039 -0.398414
C97   C     C_3   0.967468 0.998320 0.724396 0.010564
C98   C     C_3   0.035875 0.115783 0.754161 -0.267257
C99   C     C_3   0.145416 0.127543 0.779606 -0.484202
C100  C     C_3   0.924001 0.596425 0.144918 -0.350829
C101  C     C_3   0.132556 0.496777 0.301263 0.000754
Cr1   Cr    Cr6+3 0.416430 0.829200 0.492370 1.020079
Cr2   Cr    Cr6+3 0.674630 0.087020 0.504170 1.031516
Cr3   Cr    Cr6+3 0.408920 0.083740 0.503490 1.017813
Cr4   Cr    Cr6+3 0.914010 0.832750 0.013970 1.013693
Cr5   Cr    Cr6+3 0.922310 0.578600 0.003000 1.008142
Cr6   Cr    Cr6+3 0.656280 0.574630 0.003870 1.015633
H1    H     H_    0.286220 0.107547 0.207569 0.111211
H2    H     H_    0.414333 0.580410 0.292191 0.096202
H3    H     H_    0.783580 0.258768 0.199825 0.101962
H4    H     H_    0.482925 0.703600 0.368685 0.127267
H5    H     H_    0.861289 0.387811 0.873924 0.127772
H6    H     H_    0.803459 0.284583 0.631406 0.131701
H7    H     H_    0.938613 0.352841 0.796135 0.107217
H8    H     H_    0.920895 0.323059 0.707167 0.116700
H9    H     H_    0.509064 0.343713 0.876207 0.134237
H10   H     H_    0.400439 0.316070 0.802316 0.106213
H11   H     H_    0.388291 0.299826 0.713713 0.107223
H12   H     H_    0.315519 0.132498 0.296154 0.108981
H13   H     H_    0.470763 0.284578 0.637317 0.136298
H14   H     H_    0.999975 0.706772 0.694672 0.120850
H15   H     H_    0.558245 0.411797 0.215160 0.128630
H16   H     H_    0.975085 0.691299 0.782246 0.121691
H17   H     H_    0.348112 0.997156 0.722499 0.119544
H18   H     H_    0.839922 0.949545 0.803875 0.105446
H19   H     H_    0.480975 0.676703 0.791448 0.123353
H20   H     H_    0.475370 0.694050 0.703740 0.118696
H21   H     H_    0.550504 0.392563 0.302891 0.118626
H22   H     H_    0.129282 0.678179 0.376217 0.169354
H23   H     H_    0.298862 0.047642 0.372323 0.136907
H24   H     H_    0.002206 0.526452 0.214841 0.126351
H25   H     H_    0.204681 0.977319 0.131542 0.109867
H26   H     H_    0.799139 0.074774 0.285848 0.153066
H27   H     H_    0.738795 0.093300 0.232934 0.119814
H28   H     H_    0.608095 0.933019 0.293252 0.143348
H29   H     H_    0.602174 0.049422 0.328286 0.184507
H30   H     H_    0.506157 0.079651 0.256942 0.166549
H31   H     H_    0.428973 0.930439 0.269362 0.155587
H32   H     H_    0.526237 0.972265 0.219504 0.149885
H33   H     H_    0.430025 0.068769 0.801690 0.140584
H34   H     H_    0.923211 0.894550 0.153467 0.132704
H35   H     H_    0.322066 0.057179 0.845286 0.131838
H36   H     H_    0.382151 0.959088 0.843284 0.143565
H37   H     H_    0.019249 0.998251 0.692253 0.158403
H38   H     H_    0.959998 0.926432 0.744881 0.125758
H39   H     H_    0.062597 0.185951 0.729763 0.162821
H40   H     H_    0.979080 0.127039 0.781873 0.166506
H41   H     H_    0.120455 0.058605 0.804462 0.161928
H42   H     H_    0.191309 0.212670 0.801364 0.136755
H43   H     H_    0.206289 0.121688 0.752518 0.158490
H44   H     H_    0.874223 0.622495 0.121338 0.144849
H45   H     H_    0.843255 0.978663 0.387436 0.134574
H46   H     H_    0.937264 0.525567 0.127254 0.159448
H47   H     H_    0.867600 0.566072 0.176608 0.126977
H48   H     H_    0.216763 0.565848 0.319368 0.124763
H49   H     H_    0.147439 0.481202 0.262231 0.123426
H50   H     H_    0.077203 0.398017 0.363945 0.181901
H51   H     H_    0.011583 0.315164 0.306782 0.214787
H52   H     H_    0.207358 0.334142 0.283237 0.141263
H53   H     H_    0.156980 0.264959 0.338470 0.147270
H54   H     H_    0.271242 0.414203 0.341452 0.145245
H55   H     H_    0.007994 0.982027 0.234996 0.125565
H56   H     H_    0.980156 0.009928 0.321673 0.114793
H57   H     H_    0.564226 0.617213 0.135019 0.135459
H58   H     H_    0.443430 0.550346 0.205810 0.102186
O1    O     O_R   0.296680 0.802170 0.437540 -0.522742
O2    O     O_R   0.637200 0.461990 0.052510 -0.516749
O3    O     O_R   0.664790 0.681920 0.057970 -0.500168
O4    O     O_R   0.525380 0.838530 0.443500 -0.503488
O5    O     O_R   0.815840 0.852920 0.961840 -0.503113
O6    O     O_R   0.012100 0.822630 0.963670 -0.493151
O7    O     O_R   0.037010 0.668460 0.953040 -0.505416
O8    O     O_R   0.813390 0.478970 0.949660 -0.498114
O9    O     O_R   0.632250 0.456930 0.945520 -0.518675
O10   O     O_R   0.660200 0.677230 0.958780 -0.487543
O11   O     O_3   0.830870 0.661990 0.006950 -0.268868
O12   O     O_R   0.662610 0.183990 0.557860 -0.499974
O13   O     O_R   0.702130 0.995190 0.446810 -0.513909
O14   O     O_R   0.661770 0.181390 0.458760 -0.486698
O15   O     O_R   0.499820 0.198480 0.455280 -0.518930
O16   O     O_R   0.311660 0.976250 0.449080 -0.506043
O17   O     O_R   0.297580 0.804960 0.544440 -0.506190
O18   O     O_R   0.526220 0.841130 0.542590 -0.499072
O19   O     O_R   0.703030 0.997990 0.553710 -0.500757
O20   O     O_3   0.778806 0.217269 0.293522 -0.574992
O21   O     O_3   0.857817 0.983486 0.707391 -0.569489
O22   O     O_3   0.043677 0.528948 0.306353 -0.559572
O23   O     O_R   0.500730 0.201280 0.562180 -0.520146
O24   O     O_R   0.312500 0.978850 0.548170 -0.495317
O25   O     O_3   0.499990 0.999990 0.500010 -0.246434
O26   O     O_R   0.820790 0.857990 0.068830 -0.509084
O27   O     O_R   0.016700 0.827330 0.062850 -0.526511
O28   O     O_R   0.041970 0.673520 0.060040 -0.509830
O29   O     O_R   0.817980 0.483660 0.048840 -0.511974

loop_
_geom_bond_atom_site_label_1
_geom_bond_atom_site_label_2
_ccdc_geom_bond_type
C100  H46   S    
C51   C53   A    
C55   C56   A    
C10   C85   S    
C93   C94   S    
C88   O7    A    
C54   O24   A    
C6    O14   A    
C18   C21   S    
C76   H19   S    
C30   O18   A    
Cr4   O26   S    
C89   O8    A    
C99   H41   S    
C97   C98   S    
C18   O1    A    
C7    C8    A    
Cr5   O29   S    
C4    H53   S    
C45   C46   A    
C78   C90   A    
C85   O27   A    
C99   H42   S    
C26   C27   A    
C62   C63   A    
C46   H8    S    
C14   H15   S    
Cr1   O18   S    
C64   C68   A    
C28   C29   A    
C35   C37   A    
C25   H21   S    
C24   C26   A    
C18   O16   A    
C93   H26   S    
C21   C91   A    
C43   C52   A    
C4    H52   S    
C98   H40   S    
C101  H48   S    
C42   O12   A    
C100  H47   S    
C15   C16   A    
C17   C20   A    
C74   O21   S    
C56   C57   A    
C34   C35   A    
C65   H17   S    
C1    O4    A    
C2    C13   A    
C80   C86   S    
C1    C40   S    
C27   H56   S    
C31   C40   A    
Cr6   O3    S    
C45   H7    S    
C31   C32   A    
C92   O5    A    
C16   C17   A    
C65   C67   A    
Cr4   O11   S    
C8    O22   S    
C26   H55   S    
C3    H51   S    
C94   H29   S    
C54   O17   A    
C10   C20   A    
C23   C27   A    
C9    C10   A    
C7    H24   S    
C77   H20   S    
C58   C80   T    
C6    O15   A    
C3    C101  S    
Cr1   O4    S    
C77   C79   A    
Cr3   O16   S    
C22   C40   A    
C92   O10   A    
C88   O6    A    
C41   C43   A    
Cr4   O27   S    
C61   C71   T    
C94   C95   S    
C30   O19   A    
C89   O9    A    
C20   H25   S    
C72   C88   S    
C81   C82   S    
Cr5   O28   S    
C22   H45   S    
C53   C55   A    
C100  H44   S    
C97   O21   S    
Cr3   O23   S    
C99   H43   S    
Cr6   O2    S    
C95   H30   S    
C74   C75   A    
C13   C19   A    
Cr2   O19   S    
Cr1   O17   S    
Cr1   O25   S    
C76   C77   A    
C64   C96   S    
C93   H27   S    
Cr4   O5    S    
C42   C60   S    
C5    C7    A    
C30   C73   S    
C53   H11   S    
C59   H9    S    
C98   H39   S    
C101  H49   S    
C23   C33   A    
Cr2   O14   S    
C11   C21   A    
C51   C52   A    
Cr2   O12   S    
C32   C34   A    
C97   H37   S    
C5    C9    A    
C37   C38   A    
C1    O13   A    
C24   C38   A    
C87   O3    A    
C12   C15   A    
C44   C57   A    
Cr3   O25   S    
C29   C39   A    
C94   H28   S    
Cr5   O7    S    
C50   C51   A    
Cr2   O25   S    
C91   H22   S    
C62   C67   A    
C68   C70   S    
C48   C49   A    
C78   O20   S    
C9    C100  S    
C82   C84   T    
C74   C79   A    
C47   C90   A    
C50   H13   S    
C90   H3    S    
C3    C4    S    
C11   H23   S    
C44   C45   A    
C87   O26   A    
C55   H10   S    
C42   O23   A    
C63   C68   A    
C95   H31   S    
Cr5   O11   S    
Cr4   O6    S    
C48   H5    S    
C22   C23   A    
C97   H38   S    
C2    C8    A    
C86   O2    A    
C24   C28   A    
C41   C60   A    
C49   C89   S    
C54   C61   S    
C76   C81   A    
C96   H33   S    
C63   H16   S    
C11   C12   A    
C14   C47   A    
C5    C19   A    
Cr6   O9    S    
C75   C81   A    
C95   H32   S    
C33   C38   A    
C49   C59   A    
C56   C59   A    
Cr2   O13   S    
C50   C60   A    
C64   C65   A    
C36   C69   S    
C37   C39   A    
C36   C78   A    
C32   C33   A    
C96   H36   S    
C79   C83   S    
C85   O28   A    
Cr3   O15   S    
Cr6   O10   S    
Cr3   O24   S    
C41   H6    S    
C17   C19   A    
Cr5   O8    S    
C15   H12   S    
C67   C71   S    
C14   C25   A    
C2    C91   A    
C43   C46   A    
C29   C87   S    
C52   C57   A    
C16   H1    S    
C25   C36   A    
C96   H35   S    
C66   C69   T    
C6    C66   S    
C12   C13   A    
Cr1   O1    S    
C98   C99   S    
Cr6   O11   S    
C3    H50   S    
C34   H2    S    
C31   H4    S    
C4    H54   S    
C35   H58   S    
C70   C72   T    
C28   H34   S    
C84   C92   S    
C75   H18   S    
C39   H57   S    
C101  O22   S    
C73   C83   T    
C62   H14   S    
C86   O29   A    
C44   C48   A    
C47   C58   S    
C93   O20   S    
