data_mof_unit_39489.cif
_audit_creation_date              2012-12-10T18:04:01-0500
_audit_creation_method            fapswitch 2.2
_symmetry_space_group_name_H-M    P1
_symmetry_Int_Tables_number       1
_space_group_crystal_system       triclinic
_cell_length_a                    10.828811
_cell_length_b                    9.51184
_cell_length_c                    10.843888
_cell_angle_alpha                 90.013523
_cell_angle_beta                  90.411746
_cell_angle_gamma                 90.026225
_cell_volume                      1116.91226839

loop_
_atom_site_label
_atom_site_type_symbol
_atom_type_description
_atom_site_fract_x
_atom_site_fract_y
_atom_site_fract_z
_atom_type_partial_charge
C1    C     C_R   0.262051 0.499961 0.500287 0.781119
C2    C     C_R   0.737960 0.499997 0.500298 0.778588
C3    C     C_R   0.425319 0.074363 0.420905 -0.008414
C4    C     C_R   0.574808 0.074493 0.578977 -0.029285
C5    C     C_R   0.425252 0.925484 0.420978 0.034161
C6    C     C_R   0.574800 0.925606 0.578983 -0.020907
C7    C     C_R   0.500673 0.499970 0.262599 0.795133
C8    C     C_R   0.501826 0.499928 0.737335 0.794009
C9    C     C_R   0.485800 0.620569 0.062028 -0.096699
C10   C     C_R   0.483586 0.619847 0.937434 -0.101014
C11   C     C_R   0.505899 0.499176 0.130119 -0.094547
C12   C     C_R   0.506499 0.499021 0.869825 -0.091335
C13   C     C_R   0.532218 0.374410 0.064918 -0.186875
C14   C     C_R   0.532921 0.374436 0.935549 -0.187140
C15   C     C_3   0.440690 0.770221 0.927923 0.256988
C16   C     C_3   0.440617 0.770019 0.070751 0.237305
C17   C     C_R   0.063825 0.372272 0.501735 -0.186361
C18   C     C_R   0.936106 0.372293 0.501709 -0.188286
C19   C     C_R   0.871801 0.500066 0.500827 -0.015919
C20   C     C_R   0.128232 0.500016 0.500825 -0.016444
C21   C     C_R   0.936212 0.627842 0.500351 -0.194789
C22   C     C_R   0.063941 0.627802 0.500237 -0.195989
Cu1   Cu    Cu3+1 0.500000 0.640660 0.500000 0.953618
Cu2   Cu    Cu3+1 0.500000 0.359340 0.500000 0.941674
H1    H     H_    0.111826 0.272376 0.502282 0.150779
H2    H     H_    0.888020 0.272400 0.502253 0.148360
N1    N     N_R   0.500000 0.852070 0.500000 -0.160647
N2    N     N_R   0.500000 0.147940 0.500000 -0.163410
O1    O     O_R   0.319640 0.618740 0.499990 -0.587349
O2    O     O_R   0.680360 0.618740 0.500010 -0.593699
O3    O     O_R   0.319620 0.381170 0.499990 -0.587709
O4    O     O_R   0.680380 0.381170 0.500010 -0.590076
O5    O     O_R   0.499990 0.618810 0.319660 -0.576138
O6    O     O_R   0.500010 0.618810 0.680340 -0.572785
O7    O     O_R   0.499960 0.381240 0.319650 -0.584962
O8    O     O_R   0.500040 0.381240 0.680350 -0.585997
H3    H     H_    0.551002 0.276965 0.113178 0.172345
H4    H     H_    0.552609 0.277113 0.887676 0.159254
H5    H     H_    0.512354 0.839096 0.886834 0.113781
H6    H     H_    0.346651 0.775710 0.110985 0.109285
O9    O     O_3   0.322081 0.798165 0.874867 -0.568829
C23   C     C_3   0.239298 0.682896 0.876168 0.114745
H7    H     H_    0.232595 0.634920 0.969405 0.120703
H8    H     H_    0.268328 0.602163 0.808322 0.152506
C24   C     C_3   0.111392 0.733731 0.838375 -0.795917
H9    H     H_    0.114723 0.782515 0.745416 0.252976
H10   H     H_    0.046170 0.643614 0.835645 0.200616
H11   H     H_    0.077557 0.812544 0.905730 0.240748
O10   O     O_3   0.520210 0.873148 0.124607 -0.582125
C25   C     C_3   0.647402 0.839302 0.120991 0.107931
H12   H     H_    0.677929 0.815448 0.025577 0.116948
H13   H     H_    0.667987 0.748391 0.182089 0.169959
C26   C     C_3   0.721431 0.964380 0.168168 -0.802368
H14   H     H_    0.693741 0.990171 0.264021 0.255282
H15   H     H_    0.821496 0.938923 0.167468 0.195074
H16   H     H_    0.704705 0.057214 0.108235 0.239260
H17   H     H_    0.888206 0.727740 0.499818 0.148896
H18   H     H_    0.112049 0.727673 0.499574 0.149313
H19   H     H_    0.365482 0.130446 0.357578 0.123879
H20   H     H_    0.634730 0.130693 0.642219 0.115414
H21   H     H_    0.365328 0.869260 0.357765 0.123684
H22   H     H_    0.634682 0.869478 0.642250 0.111680

loop_
_geom_bond_atom_site_label_1
_geom_bond_atom_site_label_2
_ccdc_geom_bond_type
C22   H18   S    
Cu1   O5    S    
C25   H13   S    
Cu1   Cu2   S    
Cu2   O4    S    
C21   H17   S    
Cu1   N1    S    
C14   H4    S    
C11   C13   A    
O9    C23   S    
C26   H15   S    
C13   H3    S    
C6    N1    A    
C18   H2    S    
C2    O2    A    
C6    H22   S    
C8    C12   S    
Cu1   O6    S    
C17   H1    S    
C21   C22   A    
C4    H20   S    
C1    O1    A    
C17   C18   A    
Cu2   O3    S    
C5    H21   S    
C8    O6    A    
C13   C14   A    
C7    C11   S    
C7    O5    A    
C15   H5    S    
Cu2   O8    S    
C23   H8    S    
C16   H6    S    
C9    C11   A    
C4    C6    A    
C3    N2    A    
C19   C21   A    
C9    C16   S    
C12   C14   A    
C18   C19   A    
C10   C12   A    
C10   C15   S    
C24   H10   S    
C8    O8    A    
C24   H9    S    
Cu2   O7    S    
C23   H7    S    
C15   C16   S    
C25   C26   S    
Cu1   O2    S    
Cu1   O1    S    
C1    O3    A    
C17   C20   A    
C16   O10   S    
C15   O9    S    
C2    O4    A    
O10   C25   S    
C9    C10   A    
C26   H16   S    
C4    N2    A    
C1    C20   S    
C24   H11   S    
C25   H12   S    
C2    C19   S    
C5    N1    A    
C7    O7    A    
Cu2   N2    S    
C26   H14   S    
C20   C22   A    
C3    C5    A    
C23   C24   S    
C3    H19   S    
