data_mof_unit_44110.cif
_audit_creation_date              2012-12-10T20:34:13-0500
_audit_creation_method            fapswitch 2.2
_symmetry_space_group_name_H-M    P1
_symmetry_Int_Tables_number       1
_space_group_crystal_system       triclinic
_cell_length_a                    9.921539
_cell_length_b                    10.659519
_cell_length_c                    13.613928
_cell_angle_alpha                 90.25288
_cell_angle_beta                  83.955424
_cell_angle_gamma                 88.851651
_cell_volume                      1431.46990182

loop_
_atom_site_label
_atom_site_type_symbol
_atom_type_description
_atom_site_fract_x
_atom_site_fract_y
_atom_site_fract_z
_atom_type_partial_charge
C1    C     C_R   0.499017 0.739634 0.499217 0.898917
C2    C     C_3   0.284948 0.943012 0.623213 0.167258
C3    C     C_R   0.916392 0.503379 0.586473 0.171287
C4    C     C_R   0.476580 0.499698 0.685395 0.883193
C5    C     C_R   0.939375 0.484639 0.415107 -0.202302
C6    C     C_R   0.082651 0.482408 0.414542 0.250823
C7    C     C_R   0.058620 0.500961 0.586785 0.132903
C8    C     C_3   0.049372 0.599608 0.665846 -0.016290
C9    C     C_3   0.896246 0.603260 0.663788 -0.486437
C10   C     C_R   0.501695 0.260803 0.499476 0.889209
C11   C     C_R   0.523389 0.500006 0.314590 0.903056
C12   C     C_1   0.459542 0.497700 0.788807 -0.189006
C13   C     C_1   0.540198 0.499913 0.211128 -0.182306
C14   C     C_2   0.557458 0.499459 0.019732 -0.159286
C15   C     C_2   0.441361 0.494232 0.980151 -0.153484
C16   C     C_1   0.446710 0.495850 0.876383 0.014257
C17   C     C_1   0.552392 0.499747 0.123517 -0.000382
C18   C     C_3   0.182742 0.327376 0.299641 -0.746825
C19   C     C_3   0.071896 0.428183 0.789625 -0.718363
C20   C     C_3   0.815259 0.854574 0.369447 -0.699430
C21   C     C_1   0.309838 0.140070 0.728800 0.225602
C22   C     C_3   0.142033 0.891752 0.778266 -0.768798
C23   C     C_R   0.429468 0.939171 0.575425 -0.048034
C24   C     C_1   0.187090 0.904166 0.554705 0.149186
C25   C     C_R   0.499769 0.871976 0.497405 -0.139663
C26   C     C_R   0.592099 0.933654 0.428649 0.203346
C27   C     C_R   0.593884 0.064145 0.430376 -0.270170
C28   C     C_R   0.507716 0.129485 0.501493 -0.110750
C29   C     C_R   0.436570 0.066600 0.578215 0.023700
C30   C     C_3   0.298254 0.086785 0.630050 -0.247965
H1    H     H_    0.344036 0.489575 0.024798 0.154363
H2    H     H_    0.084993 0.283964 0.287113 0.211735
H3    H     H_    0.227379 0.277402 0.360273 0.261802
H4    H     H_    0.253844 0.316819 0.231316 0.231205
H5    H     H_    0.182165 0.592771 0.775864 0.240518
H6    H     H_    0.096905 0.416349 0.866683 0.230297
H7    H     H_    0.140274 0.365723 0.740650 0.245472
H8    H     H_    0.965238 0.400454 0.786523 0.231434
H9    H     H_    0.661701 0.898316 0.283411 0.216255
H10   H     H_    0.863184 0.948012 0.364330 0.224719
H11   H     H_    0.868910 0.791544 0.312354 0.226022
H12   H     H_    0.099351 0.686781 0.639559 0.149969
H13   H     H_    0.826538 0.813813 0.443171 0.264411
H14   H     H_    0.304990 0.785067 0.711589 0.213800
H15   H     H_    0.057388 0.856791 0.739463 0.231178
H16   H     H_    0.119980 0.991320 0.798438 0.253759
H17   H     H_    0.145997 0.837902 0.847564 0.238999
H18   H     H_    0.837354 0.570450 0.732488 0.214389
H19   H     H_    0.857784 0.692899 0.634613 0.186154
H20   H     H_    0.654710 0.504341 0.975006 0.157199
H21   H     H_    0.657031 0.113948 0.374152 0.151270
H22   H     H_    0.229602 0.142328 0.586516 0.144676
H23   H     H_    0.894686 0.472952 0.346620 0.159629
H24   H     H_    0.128459 0.508798 0.265465 0.202087
N1    N     N_R   0.857130 0.500860 0.500650 -0.112993
N2    N     N_R   0.142770 0.500820 0.500650 -0.134588
N3    N     N_2   0.161991 0.459225 0.323437 -0.256879
N4    N     N_2   0.090588 0.557905 0.760431 -0.282238
N5    N     N_2   0.673662 0.865827 0.353291 -0.306984
N6    N     N_1   0.319523 0.181956 0.806266 -0.216752
N7    N     N_2   0.270659 0.877085 0.717257 -0.292734
N8    N     N_1   0.110669 0.874202 0.500831 -0.234606
O1    O     O_R   0.385310 0.683210 0.499990 -0.623600
O2    O     O_R   0.614650 0.683240 0.500000 -0.596818
O3    O     O_R   0.368820 0.499950 0.640340 -0.621988
O4    O     O_R   0.598170 0.499990 0.640350 -0.607705
O5    O     O_R   0.385350 0.316760 0.500000 -0.631679
O6    O     O_R   0.614690 0.316790 0.500010 -0.607820
O7    O     O_R   0.401830 0.500010 0.359650 -0.572381
O8    O     O_R   0.631180 0.500050 0.359660 -0.619789
Zn1   Zn    Zn3+2 0.346870 0.499980 0.499990 0.953213
Zn2   Zn    Zn3+2 0.653130 0.500020 0.500010 0.951752

loop_
_geom_bond_atom_site_label_1
_geom_bond_atom_site_label_2
_ccdc_geom_bond_type
C4    O4    A    
C11   O7    A    
C15   H1    S    
C29   C30   S    
C3    C9    S    
C19   H8    S    
C10   O6    A    
H14   N7    S    
C4    C12   S    
C11   C13   S    
C21   C30   S    
C18   N3    S    
C3    C7    A    
N1    Zn2   S    
C6    N3    S    
C2    N7    S    
C13   C17   T    
C2    C30   S    
N2    Zn1   S    
H9    N5    S    
C22   H15   S    
C23   C25   A    
C22   H17   S    
C11   O8    A    
C7    C8    S    
O3    Zn1   S    
C10   O5    A    
C6    N2    A    
C22   N7    S    
C1    C25   S    
C27   H21   S    
C18   H4    S    
C14   C17   S    
C26   C27   A    
C14   H20   S    
C7    N2    A    
C21   N6    T    
H5    N4    S    
C23   C29   A    
C5    H23   S    
C28   C29   A    
C22   H16   S    
C8    H12   S    
C20   H11   S    
O5    Zn1   S    
C19   H6    S    
O2    Zn2   S    
C19   N4    S    
C2    C24   S    
C5    C6    A    
C20   H10   S    
C18   H3    S    
O6    Zn2   S    
C18   H2    S    
C15   C16   S    
C1    O2    A    
C1    O1    A    
C2    C23   S    
C20   H13   S    
C9    H19   S    
C9    H18   S    
C26   N5    S    
C10   C28   S    
C27   C28   A    
O7    Zn1   S    
C30   H22   S    
C4    O3    A    
O8    Zn2   S    
C19   H7    S    
C8    N4    S    
C25   C26   A    
C14   C15   D    
C24   N8    T    
C3    N1    A    
C5    N1    A    
O4    Zn2   S    
C12   C16   T    
O1    Zn1   S    
C8    C9    S    
C20   N5    S    
H24   N3    S    
