data_mof_unit_66959.cif
_audit_creation_date              2013-03-05T15:58:11-0500
_audit_creation_method            fapswitch 2.2
_symmetry_space_group_name_H-M    P1
_symmetry_Int_Tables_number       1
_space_group_crystal_system       triclinic
_cell_length_a                    8.252733
_cell_length_b                    12.788425
_cell_length_c                    14.244692
_cell_angle_alpha                 93.928237
_cell_angle_beta                  91.137296
_cell_angle_gamma                 98.244039
_cell_volume                      1483.6757293

loop_
_atom_site_label
_atom_site_type_symbol
_atom_site_description
_atom_site_fract_x
_atom_site_fract_y
_atom_site_fract_z
_atom_type_partial_charge
P1    P     P_3+3 0.054400 0.427280 0.286870 0.447268
O1    O     O_2   0.887370 0.460630 0.272300 -0.362592
O2    O     O_3   0.129410 0.451380 0.388510 -0.406277
O3    O     O_3   0.670210 0.653170 0.329170 -0.387775
O4    O     O_2   0.766942 0.580211 0.162486 -0.374984
O5    O     O_3   0.028977 0.295204 0.240773 -0.596395
O6    O     O_3   0.718518 0.777960 0.174033 -0.513524
H1    H     H_    0.761376 0.851317 0.307347 0.129876
C1    C     C_3   0.696821 0.960144 0.210019 -0.433383
H2    H     H_    0.691466 0.015980 0.272680 0.186232
H3    H     H_    0.817415 0.976241 0.176301 0.239457
P2    P     P_3+3 0.668300 0.742890 0.573060 0.458001
P3    P     P_3+3 0.133158 0.841486 0.377718 0.423779
O7    O     O_2   0.845380 0.761330 0.544970 -0.365721
O8    O     O_3   0.088930 0.704860 0.376040 -0.384416
O9    O     O_2   0.005806 0.887758 0.440052 -0.390042
O10   O     O_3   0.682782 0.777680 0.693786 -0.583348
O11   O     O_3   0.090261 0.877318 0.264727 -0.547573
C2    C     C_3   0.151284 0.807523 0.198707 0.454024
H4    H     H_    0.080046 0.726885 0.198515 0.149817
H5    H     H_    0.282651 0.803905 0.213642 0.019691
C3    C     C_3   0.134560 0.847312 0.101432 -0.927683
H6    H     H_    0.003602 0.833880 0.077607 0.309608
H7    H     H_    0.179581 0.933639 0.103949 0.269697
C4    C     C_3   0.224162 0.761590 0.657658 0.374920
H8    H     H_    0.354625 0.754889 0.647018 0.086809
H9    H     H_    0.150451 0.730293 0.593132 0.145988
C5    C     C_3   0.204231 0.877459 0.674392 -0.884002
H10   H     H_    0.264400 0.910181 0.742169 0.257612
H11   H     H_    0.258385 0.923411 0.616559 0.234448
H12   H     H_    0.072370 0.884707 0.679037 0.265841
Ba1   Ba    Ba6+2 0.855630 0.555280 0.454520 1.534770
C6    C     C_3   0.042524 0.225140 0.310347 0.640045
H13   H     H_    0.124590 0.259921 0.368948 0.157876
C7    C     C_3   0.103293 0.126354 0.266497 -0.925748
H14   H     H_    0.037773 0.099719 0.198550 0.254705
H15   H     H_    0.085683 0.062447 0.315768 0.269200
H16   H     H_    0.234446 0.142072 0.252216 0.247144
C8    C     C_3   0.706682 0.693690 0.747424 0.296658
H17   H     H_    0.829198 0.670480 0.734176 0.082236
H18   H     H_    0.608784 0.625018 0.732001 0.135515
C9    C     C_3   0.698835 0.737139 0.849781 -0.685037
H19   H     H_    0.790831 0.809345 0.862342 0.241480
H20   H     H_    0.575822 0.760826 0.861775 0.188632
P4    P     P_3+3 0.135310 0.572810 0.713130 0.469354
O12   O     O_2   0.302330 0.539400 0.727760 -0.358684
O13   O     O_3   0.060300 0.548700 0.611500 -0.400923
O14   O     O_3   0.519500 0.346920 0.670840 -0.376331
O15   O     O_3   0.172973 0.710205 0.738044 -0.573598
P5    P     P_3+3 0.062227 0.157719 0.627449 0.471336
O16   O     O_3   0.614310 0.373510 0.452640 -0.386251
O17   O     O_3   0.100780 0.295230 0.623970 -0.352720
O18   O     O_2   0.187586 0.112972 0.562634 -0.380230
O19   O     O_3   0.124109 0.132703 0.740918 -0.492646
Ba2   Ba    Ba6+2 0.334200 0.444810 0.545490 1.547798
P6    P     P_3+3 0.648269 0.651260 0.207277 0.459999
C10   C     C_3   0.676926 0.849968 0.245306 0.435002
H21   H     H_    0.548905 0.829842 0.268289 0.011131
O20   O     O_3   0.575400 0.626570 0.547370 -0.396801
C11   C     C_3   0.497769 0.293426 0.256573 0.324797
H22   H     H_    0.380457 0.322702 0.273419 0.082831
H23   H     H_    0.601162 0.358169 0.273224 0.142325
C12   C     C_3   0.499425 0.258220 0.151684 -0.415584
H24   H     H_    0.414200 0.183209 0.136385 0.245765
H25   H     H_    0.625215 0.243679 0.133584 0.203508
P7    P     P_3+3 0.526705 0.239728 0.427757 0.411440
O21   O     O_2   0.344320 0.238700 0.455090 -0.380170
O22   O     O_3   0.514584 0.204938 0.306886 -0.618991
H26   H     H_    0.207668 0.805207 0.050203 0.225244
C13   C     C_3   0.010608 0.167703 0.803719 0.291624
H27   H     H_    0.985662 0.249420 0.790764 0.075026
H28   H     H_    0.894898 0.111155 0.795154 0.068772
C14   C     C_3   0.075526 0.171031 0.905768 -0.623459
H29   H     H_    0.183505 0.234128 0.917564 0.222352
H30   H     H_    0.978568 0.191520 0.953767 0.118126
P8    P     P_3+3 0.537710 0.342716 0.792302 0.485109
C15   C     C_3   0.543595 0.143118 0.758168 0.500509
H31   H     H_    0.668677 0.176015 0.737653 -0.023497
O23   O     O_2   0.409073 0.406798 0.836209 -0.338042
O24   O     O_3   0.475880 0.212721 0.821845 -0.503713
H32   H     H_    0.462601 0.125941 0.693946 0.134946
H33   H     H_    0.656743 0.050039 0.857662 0.261276
C16   C     C_3   0.555670 0.039723 0.803345 -0.985925
H34   H     H_    0.577066 0.977402 0.747972 0.239753
H35   H     H_    0.440787 0.012956 0.839121 0.298791
C17   C     C_R   0.986960 0.442525 0.059680 -0.121668
C18   C     C_R   0.174256 0.505970 0.199349 0.266487
C19   C     C_R   0.328849 0.556390 0.230219 -0.493001
C20   C     C_R   0.435636 0.607668 0.168274 0.231887
C21   C     C_R   0.382912 0.620842 0.076889 -0.332017
C22   C     C_R   0.233645 0.565527 0.040393 0.088021
C23   C     C_R   0.128627 0.504716 0.100854 -0.015107
H36   H     H_    0.370395 0.550336 0.301910 0.178619
C24   C     C_R   0.052355 0.504049 0.902158 0.024301
C25   C     C_R   0.947843 0.442579 0.962531 0.100389
C26   C     C_R   0.007883 0.501907 0.803645 0.233345
C27   C     C_R   0.854896 0.447968 0.772170 -0.500441
C28   C     C_R   0.748372 0.394585 0.833637 0.300334
C29   C     C_R   0.799738 0.385186 0.926170 -0.370841
C30   C     C_R   0.194234 0.566142 0.943185 -0.078384
H37   H     H_    0.461721 0.670734 0.033381 0.173637
H38   H     H_    0.718853 0.339186 0.971559 0.160251
H39   H     H_    0.815411 0.451088 0.699657 0.170308
H40   H     H_    0.904738 0.393858 0.102510 0.168383
H41   H     H_    0.276360 0.614552 0.899947 0.163813
C31   C     C_R   0.753405 0.176507 0.551142 -0.487502
C32   C     C_R   0.431632 0.813320 0.461215 -0.522891
C33   C     C_R   0.404098 0.993850 0.433513 -0.204769
C34   C     C_R   0.341913 0.886687 0.425294 0.208650
C35   C     C_R   0.578478 0.846145 0.512313 0.294283
C36   C     C_R   0.640509 0.956943 0.525463 -0.066040
C37   C     C_R   0.551787 0.031131 0.484246 -0.074549
C38   C     C_R   0.611348 0.141030 0.496349 0.300120
C39   C     C_R   0.849013 0.105157 0.585269 0.171474
C40   C     C_R   0.789638 0.996286 0.575860 -0.188154
H42   H     H_    0.331625 0.047204 0.403112 0.191336
H43   H     H_    0.863371 0.943783 0.605861 0.184780
H44   H     H_    0.798897 0.260446 0.558653 0.174447
H45   H     H_    0.381393 0.730126 0.454452 0.175817
C41   C     C_3   0.875660 0.195979 0.347066 -0.894213
H46   H     H_    0.789650 0.181739 0.285435 0.272891
H47   H     H_    0.869684 0.124374 0.387825 0.209123
H48   H     H_    0.849032 0.265175 0.392055 0.236174
C42   C     C_2   0.727277 0.659443 0.919188 1.013488
O25   O     O_2   0.845579 0.677662 0.974064 -0.616827
O26   O     O_R   0.611569 0.569769 0.925058 -0.793487
H49   H     H_    0.630061 0.531295 0.983157 0.334479
C43   C     C_3   0.560315 0.974425 0.139929 -0.786052
H50   H     H_    0.444085 0.976070 0.177674 0.248452
H51   H     H_    0.592289 0.051458 0.108244 0.254007
H52   H     H_    0.544270 0.909955 0.082126 0.270233
C44   C     C_3   0.446051 0.339815 0.089552 -0.937035
H53   H     H_    0.318743 0.351550 0.105311 0.263019
H54   H     H_    0.530397 0.415579 0.101251 0.265002
H55   H     H_    0.447422 0.310489 0.014549 0.299481
C45   C     C_2   0.119988 0.065759 0.929117 1.168916
O27   O     O_2   0.255107 0.060453 0.964157 -0.666674
O28   O     O_R   0.006756 0.974030 0.910127 -0.822701
H56   H     H_    0.056035 0.906793 0.919351 0.324327

loop_
_geom_bond_atom_site_label_1
_geom_bond_atom_site_label_2
_geom_bond_distance
_ccdc_geom_bond_type
P1    C18   1.865680 S    
O14   Ba2   2.800150 S    
P7    O22   1.745818 S    
C18   C19   1.392767 A    
C12   H25   1.112712 S    
O26   H49   1.011244 S    
P2    Ba1   3.407335 S    
P7    C38   1.852158 S    
Ba2   O20   2.833451 S    
C14   H30   1.110731 S    
C14   H29   1.114763 S    
O14   P8    1.738901 S    
O4    P6    1.546752 D    
C2    H4    1.111207 S    
P8    O23   1.547713 D    
C17   H40   1.080439 S    
C43   H50   1.111010 S    
P2    C35   1.858419 S    
C39   C40   1.404538 A    
C21   C22   1.400871 A    
C9    C42   1.487316 S    
O8    Ba1   2.817474 S    
C8    H18   1.111440 S    
C15   H31   1.110059 S    
C4    C5    1.517430 S    
C30   H41   1.081884 S    
P5    O19   1.749452 S    
C21   H37   1.079526 S    
P3    O11   1.746655 S    
C31   C39   1.394091 A    
C11   C12   1.531553 S    
O1    Ba1   2.821112 S    
C5    H10   1.104453 S    
C7    H15   1.109162 S    
O11   C2    1.402640 S    
C42   O26   1.391491 S    
C25   C29   1.402298 A    
C15   C16   1.524554 S    
P8    C28   1.839647 S    
C28   C29   1.394882 A    
C33   C34   1.388935 A    
C11   H23   1.110094 S    
P1    O1    1.514754 D    
O10   C8    1.394131 S    
C35   C36   1.434099 A    
P3    C34   1.837350 S    
C6    C7    1.524352 S    
P2    O20   1.587996 S    
O2    Ba2   2.789292 S    
C36   C37   1.428082 A    
C44   H53   1.107580 S    
C40   H43   1.072318 S    
O12   Ba2   2.821640 S    
P5    O17   1.745939 S    
C13   H27   1.120338 S    
C24   C30   1.409138 A    
C22   C30   1.416890 A    
C1    H2    1.109879 S    
Ba1   Ba2   4.573996 S    
C1    C10   1.516178 S    
C41   H48   1.107111 S    
P7    O21   1.560642 D    
C18   C23   1.443877 A    
O3    P6    1.740299 S    
C32   C34   1.392956 A    
O2    Ba1   2.920408 S    
C9    H20   1.113358 S    
O6    P6    1.741363 S    
C32   H45   1.082124 S    
C37   C38   1.418414 A    
C41   H47   1.113149 S    
C27   C28   1.394949 A    
C8    C9    1.530324 S    
P4    O13   1.556472 S    
C1    C43   1.529255 S    
C13   H28   1.111287 S    
C31   C38   1.397168 A    
P1    O5    1.751856 S    
P5    O18   1.544513 D    
C2    C3    1.518934 S    
C45   O28   1.398077 S    
C17   C25   1.414830 A    
C8    H17   1.109948 S    
C4    H8    1.104857 S    
P4    O12   1.515117 D    
P1    Ba1   3.385777 S    
C33   C37   1.409371 A    
C11   H22   1.111719 S    
P1    O2    1.556592 S    
O16   P7    1.768447 S    
P2    O10   1.743946 S    
Ba1   O16   2.834121 S    
H1    C10   1.112229 S    
C16   H34   1.117266 S    
O19   C13   1.405928 S    
C14   C45   1.501955 S    
P4    O15   1.750258 S    
C26   C27   1.398668 A    
C7    H16   1.097841 S    
C13   C14   1.534936 S    
C6    H13   1.092550 S    
O3    Ba1   2.800743 S    
C12   C44   1.519550 S    
C24   C26   1.440869 A    
C1    H3    1.112351 S    
C11   O22   1.402031 S    
C27   H39   1.082008 S    
P6    C20   1.826775 S    
C16   H35   1.107156 S    
P2    O7    1.512846 D    
H33   C16   1.113861 S    
P3    O8    1.731379 S    
Ba1   O13   2.788725 S    
C3    H7    1.111094 S    
C9    H19   1.109965 S    
C43   H52   1.116521 S    
C22   C23   1.423298 A    
C41   H46   1.106346 S    
O13   Ba2   2.921176 S    
C15   O24   1.406947 S    
C19   H36   1.082117 S    
C3    H26   1.115030 S    
C2    H5    1.108751 S    
C5    H12   1.108207 S    
P8    O24   1.749925 S    
O7    Ba1   2.865975 S    
C45   O27   1.225334 D    
C43   H51   1.111261 S    
Ba2   O21   2.866200 S    
O17   Ba2   2.818063 S    
C4    H9    1.110249 S    
O5    C6    1.394099 S    
C33   H42   1.076123 S    
C5    H11   1.108770 S    
C17   C23   1.409125 A    
C10   H21   1.112182 S    
C44   H55   1.108612 S    
C32   C35   1.397107 A    
O16   Ba2   2.912933 S    
C24   C25   1.424462 A    
C4    O15   1.401496 S    
O28   H56   1.017661 S    
C12   H24   1.110935 S    
C29   H38   1.079954 S    
C19   C20   1.389146 A    
P4    Ba2   3.386242 S    
C6    C41   1.488979 S    
C44   H54   1.109472 S    
C15   H32   1.112664 S    
P3    O9    1.544860 D    
C3    H6    1.112174 S    
C36   C40   1.421637 A    
C7    H14   1.107442 S    
Ba1   O20   2.913721 S    
P5    C39   1.863465 S    
C20   C21   1.393146 A    
P4    C26   1.879114 S    
O6    C10   1.404626 S    
C31   H44   1.082491 S    
C42   O25   1.223938 D    
