data_mof_unit_55202.cif
_audit_creation_date              2012-12-10T17:42:39-0500
_audit_creation_method            fapswitch 2.2
_symmetry_space_group_name_H-M    P1
_symmetry_Int_Tables_number       1
_space_group_crystal_system       triclinic
_cell_length_a                    9.95407
_cell_length_b                    10.639178
_cell_length_c                    13.108709
_cell_angle_alpha                 90.377358
_cell_angle_beta                  71.061535
_cell_angle_gamma                 92.538263
_cell_volume                      1311.77098508

loop_
_atom_site_label
_atom_site_type_symbol
_atom_type_description
_atom_site_fract_x
_atom_site_fract_y
_atom_site_fract_z
_atom_type_partial_charge
C1    C     C_R   0.502322 0.739445 0.500731 0.945393
C2    C     C_R   0.441438 0.436267 0.979316 0.099658
C3    C     C_R   0.480629 0.423106 0.867259 -0.032551
C4    C     C_R   0.549575 0.461382 0.025694 -0.016101
C5    C     C_R   0.692890 0.439406 0.964487 -0.058748
C6    C     C_R   0.725193 0.394499 0.859256 0.614204
C7    C     C_R   0.619868 0.386243 0.811109 -0.256224
C8    C     C_R   0.521484 0.517091 0.127510 0.141367
C9    C     C_R   0.770012 0.507189 0.114480 0.143561
C10   C     C_R   0.378126 0.447329 0.816688 -0.028606
C11   C     C_R   0.363764 0.862613 0.704485 0.550992
C12   C     C_R   0.422516 0.483522 0.702314 1.034542
C13   C     C_R   0.275886 0.920738 0.795269 -0.316127
C14   C     C_R   0.248475 0.047464 0.791809 0.062622
C15   C     C_R   0.315418 0.117803 0.697399 0.589693
C16   C     C_R   0.407782 0.060325 0.604266 -0.138908
C17   C     C_R   0.424887 0.930052 0.606366 -0.060805
C18   C     C_R   0.503946 0.871757 0.509824 -0.020286
C19   C     C_R   0.574125 0.939334 0.416039 -0.264122
C20   C     C_R   0.568693 0.067532 0.416538 -0.106578
C21   C     C_R   0.486232 0.127382 0.508872 -0.016117
C22   C     C_R   0.866431 0.723002 0.549647 0.189425
C23   C     C_R   0.495270 0.260442 0.504096 0.924272
C24   C     C_R   0.892890 0.802149 0.627895 0.682705
C25   C     C_R   0.000364 0.774534 0.669931 -0.329756
C26   C     C_R   0.086182 0.673644 0.628328 -0.156225
C27   C     C_R   0.051572 0.589965 0.556336 0.023794
C28   C     C_R   0.918369 0.601189 0.539844 -0.086905
C29   C     C_R   0.943823 0.405729 0.454225 0.568736
C30   C     C_R   0.088781 0.408869 0.450010 0.574409
C31   C     C_R   0.578718 0.508790 0.296204 0.853199
C32   C     C_R   0.802002 0.468436 0.007541 -0.152386
C33   C     C_R   0.626078 0.514926 0.178029 -0.092630
C34   C     C_R   0.233666 0.440328 0.878333 -0.117682
C35   C     C_R   0.193829 0.416018 0.988638 -0.231607
C36   C     C_R   0.296247 0.419395 0.040096 -0.141509
H1    H     H_    0.229597 0.866312 0.868887 0.193563
H2    H     H_    0.627533 0.120499 0.344192 0.157334
H3    H     H_    0.026145 0.838088 0.726357 0.192899
H4    H     H_    0.175682 0.661475 0.654960 0.242375
H5    H     H_    0.911725 0.461251 0.957875 0.180747
H6    H     H_    0.152451 0.448880 0.840692 0.197232
H7    H     H_    0.261931 0.404095 0.126283 0.180256
H8    H     H_    0.083894 0.395601 0.034454 0.172900
H9    H     H_    0.648497 0.348551 0.730478 0.206490
H10   H     H_    0.633630 0.892424 0.342568 0.135498
N1    N     N_R   0.856860 0.501200 0.500990 -0.183591
N2    N     N_R   0.142450 0.501280 0.501020 -0.178413
O1    O     O_R   0.385310 0.683220 0.500000 -0.635195
O2    O     O_R   0.614640 0.683250 0.500010 -0.606234
O3    O     O_R   0.328400 0.499950 0.653610 -0.578709
O4    O     O_R   0.557730 0.499970 0.653620 -0.621799
O5    O     O_R   0.385360 0.316750 0.499990 -0.510048
O6    O     O_R   0.614690 0.316780 0.500000 -0.571333
O7    O     O_R   0.442270 0.500030 0.346380 -0.587180
O8    O     O_R   0.671600 0.500050 0.346390 -0.603096
Zn1   Zn    Zn3+2 0.346880 0.499980 0.499990 1.049314
Zn2   Zn    Zn3+2 0.653120 0.500020 0.500010 1.009517
C37   C     C_3   0.888912 0.552146 0.155223 -0.879190
H11   H     H_    0.856571 0.634415 0.208734 0.236652
H12   H     H_    0.918541 0.475323 0.199605 0.272467
H13   H     H_    0.983322 0.586067 0.087694 0.230344
F1    F     F_    0.393930 0.742056 0.715690 -0.701118
C38   C     C_3   0.151537 0.108689 0.890048 -0.738788
H14   H     H_    0.096091 0.038428 0.953801 0.216306
H15   H     H_    0.215624 0.174622 0.923241 0.251739
H16   H     H_    0.069766 0.160526 0.868768 0.286270
F2    F     F_    0.283588 0.239869 0.696815 -0.685131
F3    F     F_    0.894378 0.310454 0.405230 -0.616069
C39   C     C_3   0.877961 0.789317 0.445597 -0.786661
H17   H     H_    0.988499 0.828341 0.408300 0.221190
H18   H     H_    0.855732 0.724178 0.385954 0.228356
H19   H     H_    0.806168 0.868867 0.460853 0.281240
F4    F     F_    0.832762 0.915545 0.648980 -0.634680
F5    F     F_    0.859681 0.364654 0.801053 -0.667227
F6    F     F_    0.173914 0.317153 0.396901 -0.613222
C40   C     C_3   0.401080 0.606929 0.169495 -0.841121
H20   H     H_    0.434847 0.687458 0.211321 0.228927
H21   H     H_    0.372341 0.648537 0.102311 0.243349
H22   H     H_    0.305441 0.559427 0.227257 0.249141

loop_
_geom_bond_atom_site_label_1
_geom_bond_atom_site_label_2
_ccdc_geom_bond_type
C27   N2    A    
C28   N1    A    
C16   C21   A    
C35   C36   A    
C34   H6    S    
C4    C8    A    
C24   F4    S    
C19   H10   S    
O1    Zn1   S    
N2    Zn1   S    
C40   H20   S    
C1    C18   S    
C29   N1    A    
C7    H9    S    
C30   N2    A    
C18   C19   A    
C3    C7    A    
C5    C6    A    
C15   C16   A    
C20   H2    S    
C34   C35   A    
C9    C32   A    
C19   C20   A    
C16   C17   A    
C32   H5    S    
C31   C33   S    
C39   H17   S    
O3    Zn1   S    
C31   O8    A    
C1    O2    A    
C13   H1    S    
C5    C32   A    
C37   H11   S    
C22   C28   A    
C13   C14   A    
C9    C33   A    
C10   C12   S    
C12   O4    A    
C23   O5    A    
C29   F3    S    
C40   H21   S    
C37   H12   S    
O2    Zn2   S    
C38   H16   S    
C6    F5    S    
C24   C25   A    
O5    Zn1   S    
C25   C26   A    
C9    C37   S    
C38   H15   S    
C2    C4    A    
C29   C30   A    
C30   F6    S    
C14   C38   S    
C39   H19   S    
C17   C18   A    
C26   C27   A    
C10   C34   A    
C35   H8    S    
O4    Zn2   S    
O7    Zn1   S    
C8    C40   S    
C22   C24   A    
C12   O3    A    
C23   O6    A    
O6    Zn2   S    
C40   H22   S    
C2    C36   A    
C11   C17   A    
C37   H13   S    
C4    C5    A    
C6    C7    A    
C11   F1    S    
C38   H14   S    
C21   C23   S    
C2    C3    A    
C3    C10   A    
C25   H3    S    
N1    Zn2   S    
C11   C13   A    
C26   H4    S    
C15   F2    S    
O8    Zn2   S    
C8    C33   A    
C20   C21   A    
C27   C28   A    
C14   C15   A    
C36   H7    S    
C39   H18   S    
C31   O7    A    
C1    O1    A    
C22   C39   S    
