data_mof_unit_54098.cif
_audit_creation_date              2012-12-10T18:58:10-0500
_audit_creation_method            fapswitch 2.2
_symmetry_space_group_name_H-M    P1
_symmetry_Int_Tables_number       1
_space_group_crystal_system       triclinic
_cell_length_a                    10.873558
_cell_length_b                    10.827656
_cell_length_c                    9.542946
_cell_angle_alpha                 90.217464
_cell_angle_beta                  101.145651
_cell_angle_gamma                 90.134289
_cell_volume                      1102.3356364

loop_
_atom_site_label
_atom_site_type_symbol
_atom_type_description
_atom_site_fract_x
_atom_site_fract_y
_atom_site_fract_z
_atom_type_partial_charge
C1    C     C_R   0.498175 0.262484 0.499466 0.866848
C2    C     C_R   0.489394 0.129478 0.498097 -0.014865
C3    C     C_R   0.457953 0.063982 0.368595 -0.172201
C4    C     C_R   0.459263 0.935087 0.368768 -0.165625
C5    C     C_R   0.492737 0.870869 0.498379 -0.033587
C6    C     C_R   0.511592 0.937239 0.626174 0.031027
C7    C     C_3   0.614674 0.932209 0.755674 0.148318
C8    C     C_3   0.607898 0.073536 0.759160 -0.227862
C9    C     C_R   0.561608 0.590603 0.088372 0.109507
C10   C     C_R   0.429654 0.417808 0.058551 -0.046668
C11   C     C_R   0.429368 0.418073 0.909673 -0.023637
C12   C     C_R   0.262210 0.493506 0.444033 0.872767
C13   C     C_R   0.564527 0.588652 0.941452 0.147389
C14   C     C_3   0.703208 0.613387 0.971043 0.088290
C15   C     C_3   0.697967 0.620215 0.128978 0.164499
C16   C     C_R   0.499837 0.737638 0.499971 0.790294
C17   C     C_R   0.737625 0.491682 0.555660 0.892740
C18   C     C_2   0.125795 0.477913 0.418632 -0.358259
C19   C     C_2   0.067896 0.412216 0.507934 -0.047274
C20   C     C_2   0.873676 0.472959 0.580005 -0.346433
C21   C     C_2   0.930429 0.413044 0.484701 -0.067326
C22   C     C_R   0.508282 0.064178 0.626389 -0.004870
Cu1   Cu    Cu3+1 0.499990 0.499980 0.640670 1.009753
Cu2   Cu    Cu3+1 0.500010 0.500020 0.359330 0.990495
H1    H     H_    0.374714 0.349583 0.101948 0.136873
H2    H     H_    0.374399 0.349997 0.841648 0.153903
H3    H     H_    0.729970 0.700844 0.924420 0.117113
H4    H     H_    0.753976 0.548324 0.194983 0.194360
H5    H     H_    0.930010 0.514008 0.675394 0.174687
H6    H     H_    0.070426 0.525872 0.328136 0.171616
H7    H     H_    0.436601 0.111865 0.267376 0.147625
H8    H     H_    0.438147 0.886294 0.267625 0.156167
H9    H     H_    0.586729 0.886632 0.849121 0.079182
H10   H     H_    0.568577 0.108098 0.851206 0.113075
N1    N     N_R   0.500780 0.500930 0.148120 -0.189257
N2    N     N_R   0.500790 0.500890 0.852210 -0.149341
O1    O     O_R   0.500000 0.319640 0.618810 -0.571393
O2    O     O_R   0.500010 0.319680 0.381230 -0.584433
O3    O     O_R   0.320680 0.500000 0.575130 -0.570732
O4    O     O_R   0.320690 0.500040 0.337550 -0.579182
O5    O     O_R   0.499990 0.680320 0.618770 -0.612622
O6    O     O_R   0.500000 0.680360 0.381190 -0.564147
O7    O     O_R   0.679310 0.499960 0.662450 -0.523216
O8    O     O_R   0.679320 0.500000 0.424870 -0.569097
C23   C     C_2   0.862480 0.337345 0.363054 0.903025
O9    O     O_2   0.903392 0.329761 0.252618 -0.576061
O10   O     O_R   0.756359 0.269243 0.377296 -0.719612
H11   H     H_    0.720172 0.220247 0.288014 0.342364
C24   C     C_2   0.724841 0.142918 0.741345 0.985438
O11   O     O_2   0.775931 0.121118 0.640450 -0.510676
O12   O     O_R   0.773284 0.233895 0.841130 -0.711333
H12   H     H_    0.850590 0.275494 0.818221 0.368498
O13   O     O_3   0.771631 0.510336 0.941184 -0.650037
H13   H     H_    0.860994 0.535906 0.963040 0.336672
O14   O     O_3   0.720996 0.739417 0.187959 -0.703196
H14   H     H_    0.664455 0.798820 0.127979 0.314363
C25   C     C_2   0.134072 0.326712 0.619169 0.888180
O15   O     O_2   0.225129 0.268278 0.598777 -0.616639
O16   O     O_R   0.087256 0.307702 0.743909 -0.771285
H15   H     H_    0.138618 0.246020 0.810341 0.329489
O17   O     O_3   0.727568 0.887978 0.723860 -0.667469
H16   H     H_    0.716720 0.797796 0.708265 0.323780

loop_
_geom_bond_atom_site_label_1
_geom_bond_atom_site_label_2
_ccdc_geom_bond_type
C2    C22   A    
C8    C22   S    
O14   H14   S    
C17   O7    A    
C12   O4    A    
C10   N1    A    
C18   H6    S    
Cu1   N2    S    
Cu1   O1    S    
C14   H3    S    
Cu2   O6    S    
Cu2   O2    S    
O10   H11   S    
Cu1   O5    S    
C1    O1    A    
Cu1   Cu2   S    
C14   O13   S    
C12   O3    A    
C2    C3    A    
C9    C15   S    
C17   O8    A    
C7    C8    S    
C8    H10   S    
C13   C14   S    
C19   C25   S    
C3    H7    S    
C7    H9    S    
C15   H4    S    
C4    H8    S    
C1    O2    A    
Cu1   O3    S    
C5    C6    A    
C16   O5    A    
C10   H1    S    
C11   N2    A    
C19   C21   S    
C18   C19   D    
C6    C7    S    
C21   C23   S    
C20   H5    S    
C23   O10   S    
O17   H16   S    
Cu2   O8    S    
C25   O16   S    
Cu2   N1    S    
C10   C11   A    
O12   H12   S    
C6    C22   A    
C16   O6    A    
O16   H15   S    
C17   C20   S    
Cu1   O7    S    
C20   C21   D    
C13   N2    A    
C9    N1    A    
C1    C2    S    
C12   C18   S    
C24   O11   D    
C9    C13   A    
C14   C15   S    
C7    O17   S    
C5    C16   S    
C11   H2    S    
Cu2   O4    S    
C25   O15   D    
C23   O9    D    
C8    C24   S    
C3    C4    A    
O13   H13   S    
C4    C5    A    
C24   O12   S    
C15   O14   S    
