data_mof_unit_17462.cif
_audit_creation_date              2012-10-26T20:47:57-0400
_audit_creation_method            fapswitch 2.2
_symmetry_space_group_name_H-M    P1
_symmetry_Int_Tables_number       1
_space_group_crystal_system       triclinic
_cell_length_a                    15.300807
_cell_length_b                    13.862011
_cell_length_c                    11.113972
_cell_angle_alpha                 88.073504
_cell_angle_beta                  90.523227
_cell_angle_gamma                 87.237728
_cell_volume                      2353.06668117

loop_
_atom_site_label
_atom_site_type_symbol
_atom_type_description
_atom_site_fract_x
_atom_site_fract_y
_atom_site_fract_z
_atom_type_partial_charge
C1    C     C_R   0.329112 0.501430 0.513142 0.545245
C2    C     C_R   0.899116 0.540425 0.612565 0.185661
C3    C     C_R   0.818032 0.435099 0.436725 0.214160
C4    C     C_R   0.806896 0.547750 0.599907 0.182550
C5    C     C_R   0.766193 0.492382 0.513794 -0.021581
C6    C     C_R   0.949360 0.494771 0.523420 -0.033281
C7    C     C_R   0.582305 0.109650 0.558856 -0.206285
C8    C     C_R   0.592817 0.880342 0.519775 -0.200481
C9    C     C_R   0.506010 0.500819 0.259316 0.532327
C10   C     C_R   0.570540 0.211606 0.556722 -0.036737
C11   C     C_R   0.579611 0.779929 0.525802 0.007872
C12   C     C_3   0.581106 0.550245 0.921598 0.497719
C13   C     C_R   0.447212 0.205054 0.427830 0.177944
C14   C     C_R   0.430333 0.807786 0.476988 0.128838
C15   C     C_R   0.471694 0.107741 0.404977 0.238136
C16   C     C_R   0.438612 0.907627 0.500728 0.251095
C17   C     C_R   0.529829 0.055163 0.485444 -0.004867
C18   C     C_R   0.521829 0.946543 0.503517 -0.001052
C19   C     C_R   0.670010 0.497685 0.502481 0.626785
C20   C     C_R   0.496239 0.498149 0.740160 0.579400
C21   C     C_3   0.427975 0.572109 0.068261 -0.115844
C22   C     C_3   0.503137 0.391336 0.075528 -0.081093
C23   C     C_R   0.086097 0.583992 0.505703 0.070994
C24   C     C_3   0.407705 0.553477 0.928634 0.005618
C25   C     C_3   0.507257 0.380151 0.932807 -0.004939
C26   C     C_3   0.595299 0.540283 0.063747 0.476518
C27   C     C_3   0.509288 0.501531 0.119914 0.016771
C28   C     C_3   0.495461 0.493800 0.878030 0.046514
C29   C     C_3   0.436622 0.682029 0.096955 -0.213393
C30   C     C_3   0.351787 0.745229 0.100686 -0.344549
C31   C     C_3   0.372379 0.851221 0.116165 -0.455930
C32   C     C_3   0.544006 0.298288 0.149397 -0.196506
C33   C     C_3   0.630619 0.298164 0.222081 -0.198459
C34   C     C_R   0.096325 0.413393 0.570859 0.003389
C35   C     C_3   0.709451 0.247429 0.163049 -0.400137
C36   C     C_3   0.350155 0.229453 0.411688 -0.183314
C37   C     C_3   0.319568 0.290153 0.299695 -0.283750
C38   C     C_3   0.307979 0.229099 0.189243 -0.436701
C39   C     C_3   0.344850 0.774069 0.431326 -0.201500
C40   C     C_3   0.271736 0.850328 0.391751 -0.264562
C41   C     C_3   0.197181 0.808529 0.320865 -0.466043
C42   C     C_3   0.323980 0.489185 0.928985 -0.295664
C43   C     C_3   0.232229 0.536704 0.955414 -0.317962
C44   C     C_3   0.169072 0.463549 0.005716 -0.445489
C45   C     C_R   0.176022 0.588067 0.528169 0.173165
C46   C     C_3   0.436258 0.300559 0.904981 -0.263890
C47   C     C_3   0.406895 0.276984 0.777774 -0.260842
C48   C     C_3   0.348175 0.190513 0.779625 -0.458906
C49   C     C_3   0.373273 0.644991 0.841497 -0.158412
C50   C     C_3   0.416980 0.742757 0.810017 -0.265600
C51   C     C_3   0.349263 0.823603 0.772652 -0.478990
C52   C     C_3   0.600643 0.333520 0.891822 -0.186218
C53   C     C_3   0.619611 0.223331 0.873951 -0.342439
C54   C     C_3   0.714414 0.202693 0.835498 -0.471899
C55   C     C_3   0.032736 0.676097 0.467778 -0.216779
C56   C     C_R   0.189310 0.416688 0.570708 0.194051
C57   C     C_3   0.001309 0.673419 0.336237 -0.338190
C58   C     C_3   0.942460 0.762171 0.301423 -0.453052
C59   C     C_3   0.051323 0.324190 0.620324 -0.228556
C60   C     C_3   0.058267 0.315895 0.758176 -0.295638
C61   C     C_3   0.007011 0.232100 0.808518 -0.464911
C62   C     C_R   0.230511 0.502412 0.535182 -0.001371
C63   C     C_R   0.045716 0.496369 0.529843 0.008087
C64   C     C_R   0.908184 0.443131 0.433337 0.222204
Cu1   Cu    Cu3+1 0.499990 0.596430 0.500000 0.923659
Cu2   Cu    Cu3+1 0.499990 0.403570 0.500000 0.894921
H1    H     H_    0.631107 0.074130 0.618370 0.110024
H2    H     H_    0.310246 0.742854 0.021096 0.167814
H3    H     H_    0.311778 0.717625 0.174901 0.150684
H4    H     H_    0.465859 0.692946 0.184622 0.200173
H5    H     H_    0.485436 0.715629 0.042019 0.239682
H6    H     H_    0.691502 0.178893 0.123134 0.122227
H7    H     H_    0.739453 0.295579 0.095583 0.196436
H8    H     H_    0.760559 0.227555 0.232061 0.180877
H9    H     H_    0.645798 0.370731 0.249829 0.270088
H10   H     H_    0.620902 0.256673 0.307889 0.142192
H11   H     H_    0.494880 0.275857 0.215531 0.150317
H12   H     H_    0.658214 0.905642 0.530226 0.106316
H13   H     H_    0.544021 0.233083 0.097741 0.111828
H14   H     H_    0.747506 0.328823 0.411929 0.311771
H15   H     H_    0.790584 0.660581 0.697794 0.319637
H16   H     H_    0.278200 0.275148 0.114755 0.110851
H17   H     H_    0.371641 0.197654 0.158963 0.182836
H18   H     H_    0.263481 0.169823 0.209477 0.176905
H19   H     H_    0.254605 0.325124 0.319588 0.141987
H20   H     H_    0.363266 0.349139 0.279537 0.188955
H21   H     H_    0.312282 0.162838 0.416216 0.162965
H22   H     H_    0.329287 0.263758 0.492913 0.191307
H23   H     H_    0.615123 0.252928 0.607291 0.142728
H24   H     H_    0.203802 0.822673 0.223025 0.135412
H25   H     H_    0.194269 0.729639 0.338636 0.185917
H26   H     H_    0.134273 0.845352 0.345513 0.142476
H27   H     H_    0.241651 0.880735 0.473833 0.224617
H28   H     H_    0.298520 0.910124 0.336840 0.215771
H29   H     H_    0.358752 0.723474 0.358633 0.164465
H30   H     H_    0.321254 0.736498 0.509222 0.215301
H31   H     H_    0.464814 0.005427 0.291171 0.319582
H32   H     H_    0.382022 0.018498 0.576986 0.317589
H33   H     H_    0.167789 0.400265 0.947514 0.156911
H34   H     H_    0.636389 0.735007 0.550134 0.184600
H35   H     H_    0.189679 0.438643 0.098186 0.139867
H36   H     H_    0.102085 0.497794 0.009772 0.160850
H37   H     H_    0.237120 0.594007 0.022113 0.154171
H38   H     H_    0.202317 0.568580 0.870607 0.175094
H39   H     H_    0.318312 0.453695 0.842120 0.157985
H40   H     H_    0.330266 0.436139 0.002460 0.144199
H41   H     H_    0.382331 0.126275 0.824410 0.136557
H42   H     H_    0.286488 0.208162 0.827881 0.160266
H43   H     H_    0.331971 0.171433 0.686210 0.145575
H44   H     H_    0.371054 0.339541 0.734877 0.246145
H45   H     H_    0.371073 0.551422 0.123459 0.114449
H46   H     H_    0.462931 0.257625 0.722281 0.200828
H47   H     H_    0.461764 0.230487 0.944043 0.139641
H48   H     H_    0.376314 0.306340 0.957306 0.115337
H49   H     H_    0.309986 0.803149 0.694374 0.181546
H50   H     H_    0.304283 0.840357 0.847611 0.146038
H51   H     H_    0.383276 0.890414 0.748896 0.164349
H52   H     H_    0.454458 0.773521 0.881399 0.190568
H53   H     H_    0.462131 0.735990 0.733970 0.214993
H54   H     H_    0.357915 0.614454 0.753715 0.131286
H55   H     H_    0.307219 0.668795 0.866635 0.121095
H56   H     H_    0.434708 0.382300 0.099893 0.077441
H57   H     H_    0.729273 0.244939 0.752187 0.147734
H58   H     H_    0.760754 0.221436 0.907352 0.156294
H59   H     H_    0.725055 0.124643 0.817853 0.143502
H60   H     H_    0.609370 0.177423 0.954385 0.154928
H61   H     H_    0.577604 0.195702 0.803665 0.157245
H62   H     H_    0.617864 0.364921 0.803311 0.217046
H63   H     H_    0.651516 0.355060 0.953607 0.234519
H64   H     H_    0.636365 0.619618 0.194117 0.338462
H65   H     H_    0.721772 0.509476 0.082087 0.348295
H66   H     H_    0.600380 0.664149 0.813689 0.363904
H67   H     H_    0.409600 0.859346 0.201015 0.160618
H68   H     H_    0.706235 0.555612 0.885216 0.357517
H69   H     H_    0.882882 0.764209 0.357874 0.158254
H70   H     H_    0.977746 0.829369 0.313259 0.147198
H71   H     H_    0.922101 0.758883 0.205551 0.158289
H72   H     H_    0.058471 0.670139 0.275415 0.154984
H73   H     H_    0.963786 0.608370 0.321678 0.182012
H74   H     H_    0.976262 0.688317 0.527716 0.184185
H75   H     H_    0.071344 0.740792 0.478040 0.192495
H76   H     H_    0.936403 0.243395 0.785159 0.156584
H77   H     H_    0.032498 0.162866 0.771661 0.153021
H78   H     H_    0.412254 0.877677 0.040104 0.151764
H79   H     H_    0.014104 0.227577 0.908102 0.150489
H80   H     H_    0.127588 0.304084 0.787144 0.175589
H81   H     H_    0.031820 0.384075 0.797011 0.198383
H82   H     H_    0.980979 0.325630 0.596483 0.163317
H83   H     H_    0.078222 0.257630 0.578538 0.124173
H84   H     H_    0.244186 0.654481 0.640166 0.309516
H85   H     H_    0.211655 0.280927 0.617039 0.311472
H86   H     H_    0.014638 0.415151 0.341654 0.305222
H87   H     H_    0.901710 0.580024 0.778574 0.332116
H88   H     H_    0.311183 0.897370 0.117018 0.149797
N1    N     N_R   0.500020 0.258690 0.500000 -0.273830
N2    N     N_R   0.500020 0.741310 0.500000 -0.271170
O1    O     O_R   0.371450 0.581430 0.500010 -0.537109
O2    O     O_3   0.755379 0.607220 0.670345 -0.710552
O3    O     O_3   0.428587 0.062944 0.314136 -0.730174
O4    O     O_3   0.365174 0.965104 0.525782 -0.745632
O5    O     O_3   0.614498 0.630687 0.110163 -0.705765
O6    O     O_3   0.666599 0.475189 0.091346 -0.749455
O7    O     O_3   0.569994 0.649333 0.890215 -0.709338
O8    O     O_3   0.657324 0.514748 0.863400 -0.719646
O9    O     O_3   0.202158 0.672228 0.574193 -0.752625
O10   O     O_3   0.241080 0.342432 0.621197 -0.764644
O11   O     O_3   0.953720 0.394508 0.344970 -0.662004
O12   O     O_R   0.371450 0.418570 0.500010 -0.478992
O13   O     O_3   0.942034 0.577516 0.709421 -0.719145
O14   O     O_R   0.499980 0.581440 0.317690 -0.520622
O15   O     O_R   0.499980 0.418560 0.317690 -0.531567
O16   O     O_R   0.628540 0.581440 0.499990 -0.476662
O17   O     O_R   0.628540 0.418560 0.499990 -0.535317
O18   O     O_R   0.500010 0.581440 0.682310 -0.497951
O19   O     O_R   0.500010 0.418560 0.682310 -0.538380
O20   O     O_3   0.782193 0.372164 0.360633 -0.675677

loop_
_geom_bond_atom_site_label_1
_geom_bond_atom_site_label_2
_ccdc_geom_bond_type
C7    C10   A    
C54   H57   S    
C35   H8    S    
C34   C56   A    
C55   H75   S    
C38   H17   S    
C16   O4    S    
C24   C42   S    
C40   H27   S    
C31   H67   S    
C20   O19   A    
C1    C62   S    
C30   H3    S    
C52   H62   S    
C48   H42   S    
C53   C54   S    
C36   H22   S    
C25   C28   S    
C9    C27   S    
C26   C27   S    
C29   C30   S    
C22   C32   S    
C12   C28   S    
C23   C45   A    
C52   H63   S    
H31   O3    S    
C37   H19   S    
C36   C37   S    
C64   O11   S    
Cu2   N1    S    
Cu1   O18   S    
C44   H33   S    
C49   H54   S    
C47   H46   S    
C45   C62   A    
C57   H73   S    
C51   H49   S    
C6    C64   A    
C31   H78   S    
C61   H79   S    
C43   H38   S    
C13   N1    A    
C53   H61   S    
C51   H51   S    
C14   C39   S    
C61   H77   S    
C20   O18   A    
C10   H23   S    
C7    C17   A    
C22   C25   S    
Cu2   O17   S    
C60   H81   S    
C38   H18   S    
C59   H82   S    
C23   C63   A    
C41   H24   S    
C21   C27   S    
C59   C60   S    
C38   H16   S    
C8    H12   S    
C9    O14   A    
C2    C6    A    
C60   H80   S    
C21   H45   S    
C33   H9    S    
C22   H56   S    
C59   H83   S    
C36   H21   S    
C54   H59   S    
C4    O2    S    
C46   H48   S    
Cu1   O16   S    
C50   H53   S    
Cu2   O15   S    
C19   O16   A    
H14   O20   S    
C13   C36   S    
Cu1   O1    S    
C39   C40   S    
C44   H36   S    
C31   H88   S    
C20   C28   S    
H65   O6    S    
C58   H70   S    
C3    C64   A    
H84   O9    S    
C21   C29   S    
C26   O6    S    
C8    C18   A    
C55   H74   S    
C12   C26   S    
C11   H34   S    
C6    C63   S    
C2    C4    A    
C43   C44   S    
C19   O17   A    
C15   O3    S    
C37   C38   S    
C12   O8    S    
C37   H20   S    
C33   H10   S    
C47   C48   S    
C49   H55   S    
C17   C18   S    
C50   C51   S    
C42   H40   S    
C39   H29   S    
C11   N2    A    
H64   O5    S    
C40   C41   S    
C41   H25   S    
H32   O4    S    
C35   H6    S    
Cu1   Cu2   S    
C22   C27   S    
C13   C15   A    
C34   C59   S    
C56   C62   A    
Cu2   O19   S    
C9    O15   A    
C42   C43   S    
H87   O13   S    
C47   H44   S    
H86   O11   S    
C52   C53   S    
C58   H71   S    
C29   H4    S    
C24   C49   S    
C15   C17   A    
C54   H58   S    
C46   C47   S    
C35   H7    S    
H15   O2    S    
C46   H47   S    
C14   N2    A    
C50   H52   S    
C24   C28   S    
C40   H28   S    
C4    C5    A    
C3    C5    A    
C10   N1    A    
C44   H35   S    
C23   C55   S    
C5    C19   S    
C58   H69   S    
Cu1   N2    S    
H85   O10   S    
C26   O5    S    
C51   H50   S    
C1    O12   A    
Cu2   O12   S    
Cu1   O14   S    
C32   C33   S    
C55   C57   S    
C25   C52   S    
C3    O20   S    
C12   O7    S    
C57   C58   S    
C30   C31   S    
C8    C11   A    
C1    O1    A    
C34   C63   A    
C33   C35   S    
H68   O8    S    
C57   H72   S    
C48   H43   S    
C14   C16   A    
C32   H11   S    
C42   H39   S    
C43   H37   S    
C39   H30   S    
H66   O7    S    
C53   H60   S    
C2    O13   S    
C7    H1    S    
C48   H41   S    
C61   H76   S    
C41   H26   S    
C16   C18   A    
C49   C50   S    
C21   C24   S    
C56   O10   S    
C60   C61   S    
C29   H5    S    
C45   O9    S    
C25   C46   S    
C30   H2    S    
C32   H13   S    
