data_mof_unit_16083.cif
_audit_creation_date              2012-12-11T15:21:43-0500
_audit_creation_method            fapswitch 2.2
_symmetry_space_group_name_H-M    P1
_symmetry_Int_Tables_number       1
_space_group_crystal_system       triclinic
_cell_length_a                    19.265536
_cell_length_b                    7.137882
_cell_length_c                    17.592987
_cell_angle_alpha                 89.999305
_cell_angle_beta                  109.002708
_cell_angle_gamma                 89.998124
_cell_volume                      2287.45752717

loop_
_atom_site_label
_atom_site_type_symbol
_atom_type_description
_atom_site_fract_x
_atom_site_fract_y
_atom_site_fract_z
_atom_type_partial_charge
O1    O     O_R   0.562310 0.505770 0.439670 -0.541352
O2    O     O_R   0.437690 0.005770 0.560330 -0.541341
O3    O     O_R   0.411650 0.169150 0.405330 -0.516237
O4    O     O_R   0.588350 0.669150 0.594670 -0.516232
C1    C     C_R   0.385400 0.346351 0.381711 0.758848
C2    C     C_R   0.614603 0.846346 0.618285 0.758838
O5    O     O_R   0.560140 0.175610 0.430010 -0.543559
O6    O     O_R   0.439860 0.675610 0.569990 -0.543550
O7    O     O_R   0.587240 0.012100 0.585200 -0.501470
O8    O     O_R   0.412760 0.512100 0.414800 -0.501437
C3    C     C_R   0.580573 0.344607 0.414381 0.727342
C4    C     C_R   0.419428 0.844609 0.585620 0.727302
O9    O     O_3   0.508720 0.341420 0.550890 -0.375265
O10   O     O_3   0.491280 0.841420 0.449110 -0.375253
V1    V     V_3+5 0.498380 0.063930 0.490560 1.620077
V2    V     V_3+5 0.501620 0.563930 0.509440 1.620101
C5    C     C_R   0.180912 0.063167 0.867625 0.543255
C6    C     C_R   0.819157 0.563282 0.132468 0.543360
C7    C     C_R   0.131695 0.915564 0.866345 -0.306113
C8    C     C_R   0.868306 0.415563 0.133661 -0.306274
C9    C     C_R   0.131953 0.754717 0.819596 0.541609
C10   C     C_R   0.867982 0.254601 0.180326 0.541696
C11   C     C_R   0.180047 0.741487 0.774427 -0.010129
C12   C     C_R   0.819901 0.241392 0.225511 -0.010134
C13   C     C_R   0.228804 0.890082 0.775828 -0.102910
C14   C     C_R   0.771197 0.390078 0.224176 -0.102874
C15   C     C_R   0.229442 0.050949 0.822762 -0.108369
C16   C     C_R   0.770613 0.551039 0.177312 -0.108411
C17   C     C_R   0.180017 0.582292 0.727360 -0.080131
C18   C     C_R   0.819894 0.082130 0.272530 -0.080309
C19   C     C_R   0.227559 0.570274 0.682144 -0.129800
C20   C     C_R   0.772359 0.070124 0.317755 -0.129537
C21   C     C_R   0.276240 0.716857 0.683037 0.150588
C22   C     C_R   0.723715 0.216774 0.316909 0.150722
C23   C     C_R   0.276878 0.877913 0.729898 0.043595
C24   C     C_R   0.723123 0.377910 0.270106 0.043543
C25   C     C_R   0.325266 0.026994 0.730556 -0.012603
C26   C     C_R   0.674782 0.527073 0.269507 -0.012594
C27   C     C_R   0.326247 0.185256 0.778477 0.564947
C28   C     C_R   0.673842 0.685412 0.221640 0.564824
C29   C     C_R   0.278897 0.196667 0.824077 -0.186111
C30   C     C_R   0.721199 0.696833 0.176049 -0.186200
C31   C     C_R   0.323858 0.705401 0.637399 -0.083508
C32   C     C_R   0.676091 0.205312 0.362540 -0.083351
C33   C     C_R   0.371198 0.854671 0.636364 -0.109892
C34   C     C_R   0.628803 0.354667 0.363637 -0.109964
C35   C     C_R   0.371509 0.014948 0.683162 -0.164995
C36   C     C_R   0.628544 0.515032 0.316905 -0.164978
H1    H     H_    0.143297 0.466125 0.725419 0.199088
H2    H     H_    0.856577 0.965897 0.274425 0.199132
H3    H     H_    0.226279 0.445780 0.646450 0.149934
H4    H     H_    0.773611 0.945573 0.353409 0.149913
H5    H     H_    0.322907 0.581741 0.601266 0.160684
H6    H     H_    0.676999 0.081574 0.398616 0.160658
H7    H     H_    0.408348 0.129677 0.683115 0.176024
H8    H     H_    0.591753 0.629842 0.317007 0.176064
H9    H     H_    0.280762 0.320983 0.860003 0.195029
H10   H     H_    0.719373 0.821221 0.140174 0.195083
C37   C     C_3   0.763589 0.746913 0.828544 -0.557002
C38   C     C_3   0.236380 0.246778 0.171496 -0.556872
H11   H     H_    0.795287 0.614852 0.832682 0.250360
H12   H     H_    0.204678 0.114752 0.167441 0.250525
H13   H     H_    0.753548 0.759879 0.886900 0.219765
H14   H     H_    0.246378 0.259521 0.113111 0.219830
C39   C     C_3   0.690117 0.725945 0.757983 -0.530946
C40   C     C_3   0.309873 0.225883 0.242035 -0.530912
H15   H     H_    0.642822 0.745654 0.780173 0.167567
H16   H     H_    0.357150 0.245571 0.219815 0.167526
H17   H     H_    0.685919 0.580609 0.734073 0.294699
H18   H     H_    0.314093 0.080565 0.265972 0.294788
H19   H     H_    0.859652 0.740449 0.744414 0.112059
H20   H     H_    0.140328 0.240638 0.255629 0.111946
C41   C     C_3   0.826458 0.871251 0.735568 0.460074
C42   C     C_3   0.173546 0.371387 0.264443 0.460027
C43   C     C_3   0.761735 0.098928 0.802857 0.595494
C44   C     C_3   0.238285 0.598879 0.197102 0.595434
C45   C     C_3   0.809876 0.915840 0.814996 -0.265286
C46   C     C_3   0.190124 0.415828 0.185002 -0.265219
C47   C     C_3   0.685732 0.869540 0.690252 -0.295985
C48   C     C_3   0.314274 0.369550 0.309743 -0.295937
C49   C     C_3   0.754407 0.841996 0.663256 1.092604
C50   C     C_3   0.245600 0.342099 0.336750 1.092605
C51   C     C_3   0.690274 0.071172 0.728767 0.473643
C52   C     C_3   0.309746 0.571144 0.271191 0.473558
H21   H     H_    0.639984 0.091183 0.745011 0.003139
H22   H     H_    0.360028 0.591101 0.254922 0.003148
O11   O     O_R   0.087220 0.271820 0.085230 -0.556514
O12   O     O_R   0.912780 0.771820 0.914770 -0.556519
O13   O     O_R   0.939860 0.595540 0.069990 -0.500373
O14   O     O_R   0.060140 0.095540 0.930010 -0.500426
C53   C     C_R   0.918577 0.426535 0.084836 0.797929
C54   C     C_R   0.081424 0.926534 0.915166 0.798088
O15   O     O_R   0.088340 0.601930 0.094680 -0.508149
O16   O     O_R   0.911660 0.101930 0.905320 -0.508166
O17   O     O_R   0.062310 0.765410 0.939660 -0.526312
O18   O     O_R   0.937690 0.265410 0.060340 -0.526236
C55   C     C_R   0.117122 0.432356 0.116039 0.772824
C56   C     C_R   0.882879 0.932361 0.883959 0.772887
O19   O     O_3   0.991270 0.429630 0.949130 -0.361137
O20   O     O_3   0.008730 0.929630 0.050870 -0.361064
V3    V     V_3+5 0.001620 0.707150 0.009440 1.687291
V4    V     V_3+5 0.998380 0.207150 0.990560 1.687244
F1    F     F_    0.182953 0.216845 0.913997 -0.684394
F2    F     F_    0.817195 0.717118 0.086204 -0.684079
F3    F     F_    0.754007 0.662335 0.633008 -0.633053
F4    F     F_    0.245986 0.162453 0.367010 -0.633123
F5    F     F_    0.802131 0.241489 0.783173 -0.571162
F6    F     F_    0.197906 0.741516 0.216764 -0.571249
C57   C     C_3   0.747435 0.169926 0.881351 -0.409601
C58   C     C_3   0.676855 0.107841 0.897667 -0.409662
C59   C     C_3   0.682805 0.143416 0.985292 -0.671995
H23   H     H_    0.727898 0.058339 0.026214 0.254636
H24   H     H_    0.693638 0.294095 0.000417 0.222117
H25   H     H_    0.630582 0.103539 0.994924 0.232890
H26   H     H_    0.629340 0.190098 0.859396 0.211410
H27   H     H_    0.665082 0.957778 0.884668 0.208198
H28   H     H_    0.794951 0.133823 0.934797 0.182508
H29   H     H_    0.746136 0.325713 0.879893 0.203004
C60   C     C_3   0.252594 0.669806 0.118606 -0.409522
C61   C     C_3   0.323088 0.607292 0.102200 -0.409673
C62   C     C_3   0.317063 0.642647 0.014538 -0.671961
H30   H     H_    0.271837 0.557849 0.973677 0.254805
H31   H     H_    0.306393 0.793374 0.999408 0.222133
H32   H     H_    0.369197 0.602255 0.004818 0.232867
H33   H     H_    0.370681 0.689386 0.140407 0.211355
H34   H     H_    0.334783 0.457217 0.115221 0.208270
H35   H     H_    0.205013 0.634023 0.065179 0.182542
H36   H     H_    0.254042 0.825589 0.120124 0.202996
F7    F     F_    0.688261 0.209496 0.672470 -0.557250
F8    F     F_    0.311776 0.709541 0.327465 -0.557323
F9    F     F_    0.869018 0.011310 0.718392 -0.554459
F10   F     F_    0.131018 0.511552 0.281604 -0.554463
F11   F     F_    0.084236 0.612224 0.816462 -0.630940
F12   F     F_    0.915618 0.111961 0.183365 -0.630803
F13   F     F_    0.752187 0.966782 0.602047 -0.574527
F14   F     F_    0.247841 0.466918 0.397951 -0.574591
F15   F     F_    0.372862 0.329697 0.781133 -0.702600
F16   F     F_    0.627267 0.829929 0.219035 -0.702673

loop_
_geom_bond_atom_site_label_1
_geom_bond_atom_site_label_2
_ccdc_geom_bond_type
C40   H16   S    
C27   F15   S    
C43   F5    S    
C39   C47   S    
C42   F10   S    
C59   H23   S    
O1    C3    A    
C48   C52   S    
O2    C4    A    
C44   C52   S    
C2    O7    A    
C41   F9    S    
O12   V3    S    
C57   H28   S    
C27   C29   A    
C17   H1    S    
O5    C3    A    
C38   C46   S    
C10   F12   S    
C11   C17   A    
C23   C25   A    
C12   C14   A    
C51   F7    S    
O18   V4    S    
C61   H34   S    
O16   C56   A    
C6    C8    A    
C38   H12   S    
C9    F11   S    
C58   C59   S    
O14   V4    S    
C62   H32   S    
C7    C54   S    
C5    C7    A    
C53   O18   A    
C31   H5    S    
C20   H4    S    
C39   H15   S    
C28   F16   S    
C19   C21   A    
C25   C35   A    
C26   C36   A    
C60   H36   S    
O5    V1    S    
C18   H2    S    
C38   C40   S    
C44   F6    S    
C50   F14   S    
C37   C45   S    
C42   C50   S    
C41   C49   S    
C32   C34   A    
C57   H29   S    
C49   F13   S    
C49   F3    S    
C33   C35   A    
C25   C27   A    
C8    C53   S    
C34   C36   A    
C37   H11   S    
C44   C60   S    
C43   C57   S    
C44   C46   S    
C5    C15   A    
C6    C16   A    
C48   C50   S    
O15   V3    S    
H19   C41   S    
C61   H33   S    
C52   F8    S    
C54   O17   A    
C21   C31   A    
O4    V2    S    
C7    C9    A    
C18   C20   A    
O11   V4    S    
C43   C45   S    
C15   C29   A    
O15   C55   A    
O14   C54   A    
C47   C51   S    
O6    C4    A    
O19   V4    S    
C46   C55   S    
C22   C32   A    
C45   C56   S    
C59   H24   S    
O1    V2    S    
C6    F2    S    
C1    C48   S    
O2    V1    S    
C31   C33   A    
C62   H30   S    
C13   C23   A    
H20   C42   S    
C51   H21   S    
C8    C10   A    
C9    C11   A    
C10   C12   A    
O4    C2    A    
O13   C53   A    
C58   H27   S    
O3    V1    S    
C61   C62   S    
C35   H7    S    
C14   C24   A    
C36   H8    S    
C16   C30   A    
O13   V3    S    
C37   H13   S    
C19   H3    S    
C4    C33   S    
O3    C1    A    
C60   C61   S    
C47   C49   S    
C13   C15   A    
C40   C48   S    
C14   C16   A    
C38   H14   S    
C24   C26   A    
O7    V1    S    
C29   H9    S    
C1    O8    A    
C17   C19   A    
O8    V2    S    
C57   C58   S    
C37   C39   S    
C26   C28   A    
C43   C51   S    
C2    C47   S    
C40   H18   S    
C39   H17   S    
C28   C30   A    
O20   V3    S    
C21   C23   A    
C59   H25   S    
C22   C24   A    
C50   F4    S    
C5    F1    S    
C12   C18   A    
C62   H31   S    
C30   H10   S    
C32   H6    S    
C11   C13   A    
O16   V4    S    
O6    V2    S    
C42   C46   S    
O9    V2    S    
C41   C45   S    
O10   V1    S    
C52   H22   S    
C3    C34   S    
C58   H26   S    
O12   C56   A    
O17   V3    S    
C20   C22   A    
O11   C55   A    
C60   H35   S    
