data_mof_unit_7321.cif
_audit_creation_date              2012-12-10T20:27:12-0500
_audit_creation_method            fapswitch 2.2
_symmetry_space_group_name_H-M    P1
_symmetry_Int_Tables_number       1
_space_group_crystal_system       triclinic
_cell_length_a                    10.542139
_cell_length_b                    10.727924
_cell_length_c                    9.909082
_cell_angle_alpha                 89.089602
_cell_angle_beta                  99.751633
_cell_angle_gamma                 91.61604
_cell_volume                      1103.96843016

loop_
_atom_site_label
_atom_site_type_symbol
_atom_type_description
_atom_site_fract_x
_atom_site_fract_y
_atom_site_fract_z
_atom_type_partial_charge
C1    C     C_R   0.505809 0.260210 0.501799 0.868775
C2    C     C_R   0.600063 0.552600 0.088800 0.143301
C3    C     C_R   0.600295 0.550717 0.944648 -0.176530
C4    C     C_R   0.258302 0.502610 0.446297 0.947514
C5    C     C_R   0.392231 0.463942 0.910604 0.160542
C6    C     C_3   0.324056 0.340320 0.893509 -0.191991
C7    C     C_3   0.335357 0.330439 0.048752 -0.180088
C8    C     C_R   0.507327 0.739430 0.500606 0.885146
C9    C     C_R   0.741095 0.506668 0.552899 0.918784
C10   C     C_2   0.120143 0.517673 0.422984 -0.341438
C11   C     C_2   0.068457 0.607150 0.487565 0.139158
C12   C     C_R   0.524600 0.128528 0.506364 -0.153692
C13   C     C_2   0.878403 0.526320 0.573466 -0.078395
C14   C     C_2   0.930149 0.601946 0.486449 -0.256939
C15   C     C_R   0.492173 0.056916 0.614476 0.049261
C16   C     C_R   0.256686 0.076135 0.662922 0.191881
C17   C     C_R   0.167213 0.036042 0.746098 -0.206133
C18   C     C_R   0.035438 0.053282 0.704014 -0.162140
C19   C     C_R   0.991207 0.112236 0.579117 -0.110037
C20   C     C_R   0.078519 0.152491 0.495298 -0.177842
C21   C     C_R   0.210347 0.133859 0.536046 -0.100802
C22   C     C_R   0.581708 0.068167 0.405537 0.115248
C23   C     C_R   0.577732 0.937311 0.402608 -0.282838
C24   C     C_R   0.529659 0.870399 0.506355 -0.114988
C25   C     C_R   0.508306 0.932732 0.620908 0.110723
C26   C     C_3   0.419791 0.910447 0.721085 -0.501890
C27   C     C_3   0.398324 0.050795 0.713830 -0.213586
C28   C     C_R   0.395208 0.458194 0.053245 0.136840
H1    H     H_    0.869756 0.654990 0.407676 0.159652
H2    H     H_    0.672647 0.689446 0.216729 0.179625
H3    H     H_    0.778792 0.637260 0.124247 0.142685
H4    H     H_    0.146533 0.415383 0.881162 0.177709
H5    H     H_    0.144079 0.266645 0.836801 0.211552
H6    H     H_    0.508726 0.240454 0.064545 0.194995
H7    H     H_    0.381254 0.147943 0.083638 0.177052
H8    H     H_    0.132628 0.699853 0.663029 0.183802
H9    H     H_    0.112655 0.789521 0.520173 0.185975
H10   H     H_    0.010125 0.529422 0.743999 0.194158
H11   H     H_    0.013777 0.403212 0.641210 0.231279
H12   H     H_    0.438870 0.093188 0.813460 0.137676
H13   H     H_    0.719682 0.187220 0.358679 0.173808
H14   H     H_    0.674500 0.078581 0.239232 0.160835
H15   H     H_    0.199845 0.990979 0.843938 0.132809
H16   H     H_    0.967742 0.021853 0.768902 0.133628
H17   H     H_    0.889292 0.126438 0.547343 0.125075
H18   H     H_    0.043909 0.197467 0.397986 0.121672
H19   H     H_    0.273703 0.163491 0.466736 0.110770
H20   H     H_    0.681590 0.589911 0.903538 0.156198
H21   H     H_    0.377448 0.273682 0.843347 0.184295
H22   H     H_    0.243123 0.325909 0.089283 0.162077
H23   H     H_    0.059380 0.450714 0.358754 0.117547
H24   H     H_    0.609148 0.888879 0.319529 0.148183
H25   H     H_    0.335013 0.851013 0.678603 0.219965
H26   H     H_    0.471975 0.878411 0.822154 0.187406
N1    N     N_R   0.499160 0.499140 0.142600 -0.097752
N2    N     N_R   0.499160 0.499180 0.856960 -0.120772
N3    N     N_3   0.706108 0.608672 0.178647 -0.420200
N4    N     N_3   0.191224 0.352096 0.826436 -0.439465
N5    N     N_3   0.425136 0.235088 0.108560 -0.381783
N6    N     N_3   0.146504 0.703903 0.561098 -0.444120
N7    N     N_3   0.954519 0.462127 0.683968 -0.469028
N8    N     N_3   0.639714 0.138329 0.306103 -0.417200
O1    O     O_R   0.500020 0.316790 0.614700 -0.623566
O2    O     O_R   0.500000 0.316760 0.385350 -0.565315
O3    O     O_R   0.317820 0.500020 0.571850 -0.571708
O4    O     O_R   0.317800 0.499980 0.342510 -0.621552
O5    O     O_R   0.500000 0.683240 0.614650 -0.615800
O6    O     O_R   0.499980 0.683210 0.385300 -0.631698
O7    O     O_R   0.682200 0.500020 0.657490 -0.612295
O8    O     O_R   0.682180 0.499980 0.428150 -0.607937
Zn1   Zn    Zn3+2 0.500010 0.500020 0.653140 0.951951
Zn2   Zn    Zn3+2 0.499990 0.499980 0.346860 0.959967

loop_
_geom_bond_atom_site_label_1
_geom_bond_atom_site_label_2
_ccdc_geom_bond_type
C17   C18   A    
H5    N4    S    
C23   C24   A    
C19   H17   S    
C24   C25   A    
C16   C21   A    
C18   H16   S    
C22   N8    S    
C5    C28   A    
C3    N2    A    
C6    N4    S    
C5    N2    A    
C15   C27   S    
N1    Zn2   S    
C12   C15   A    
H4    N4    S    
C27   H12   S    
O6    Zn2   S    
N2    Zn1   S    
H10   N7    S    
C16   C27   S    
C17   H15   S    
C2    C3    A    
C26   C27   S    
C2    N3    S    
C13   C14   D    
C9    O8    A    
C4    O4    A    
H3    N3    S    
C23   H24   S    
C6    C7    S    
C1    C12   S    
H13   N8    S    
H14   N8    S    
C10   H23   S    
C26   H26   S    
C7    N5    S    
C8    C24   S    
C28   N1    A    
O1    Zn1   S    
C8    O6    A    
O5    Zn1   S    
C2    N1    A    
O2    Zn2   S    
C6    H21   S    
C5    C6    S    
H11   N7    S    
C11   C14   S    
O4    Zn2   S    
C15   C25   A    
H9    N6    S    
C16   C17   A    
C10   C11   D    
C14   H1    S    
C4    C10   S    
C11   N6    S    
C1    O2    A    
C12   C22   A    
C3    H20   S    
C26   H25   S    
C13   N7    S    
C20   C21   A    
C8    O5    A    
H7    N5    S    
C18   C19   A    
O7    Zn1   S    
C9    C13   S    
C4    O3    A    
C1    O1    A    
O8    Zn2   S    
H8    N6    S    
C25   C26   S    
O3    Zn1   S    
H6    N5    S    
C22   C23   A    
C20   H18   S    
C7    C28   S    
C19   C20   A    
C7    H22   S    
C9    O7    A    
H2    N3    S    
C21   H19   S    
