data_mof_unit_23265.cif
_audit_creation_date              2013-03-05T16:32:26-0500
_audit_creation_method            fapswitch 2.2
_symmetry_space_group_name_H-M    P1
_symmetry_Int_Tables_number       1
_space_group_crystal_system       triclinic
_cell_length_a                    10.639664
_cell_length_b                    10.878412
_cell_length_c                    9.573705
_cell_angle_alpha                 89.56997
_cell_angle_beta                  89.780835
_cell_angle_gamma                 90.403966
_cell_volume                      1108.01888945

loop_
_atom_site_label
_atom_site_type_symbol
_atom_site_description
_atom_site_fract_x
_atom_site_fract_y
_atom_site_fract_z
_atom_type_partial_charge
O1    O     O_R   0.500000 0.319640 0.618810 -0.594852
O2    O     O_R   0.500010 0.319680 0.381230 -0.574606
C1    C     C_R   0.502903 0.263092 0.500458 0.809120
O3    O     O_R   0.316850 0.499950 0.618770 -0.579890
O4    O     O_R   0.316860 0.499990 0.381190 -0.561656
C2    C     C_R   0.259548 0.500487 0.500464 0.827990
Cu1   Cu    Cu3+1 0.499990 0.499980 0.640670 0.997907
Cu2   Cu    Cu3+1 0.500010 0.500020 0.359330 1.010071
O5    O     O_R   0.499990 0.680320 0.618770 -0.551144
O6    O     O_R   0.500000 0.680360 0.381190 -0.568439
O7    O     O_R   0.683140 0.500010 0.618810 -0.579743
O8    O     O_R   0.683150 0.500050 0.381230 -0.601859
C3    C     C_R   0.500851 0.737442 0.498609 0.859508
C4    C     C_R   0.740541 0.500215 0.499675 0.853927
C5    C     C_3   0.040797 0.515418 0.633502 -0.190106
C6    C     C_3   0.957119 0.408172 0.580589 -0.245727
H1    H     H_    0.919024 0.331426 0.645466 0.172449
H2    H     H_    0.075149 0.528393 0.741804 0.189348
C7    C     C_3   0.877355 0.501451 0.499038 -0.105850
C8    C     C_3   0.960349 0.606211 0.550172 0.362566
C9    C     C_3   0.044362 0.595382 0.420421 -0.174006
C10   C     C_3   0.960774 0.487838 0.368440 -0.147262
C11   C     C_3   0.042016 0.394310 0.449870 -0.096450
C12   C     C_3   0.123004 0.501617 0.501976 -0.037812
H3    H     H_    0.082032 0.672884 0.356406 0.182823
H4    H     H_    0.929002 0.475202 0.259524 0.172852
H5    H     H_    0.078969 0.306528 0.408558 0.164167
C13   C     C_R   0.496280 0.060740 0.619677 0.055540
C14   C     C_R   0.510316 0.131088 0.499519 -0.084517
C15   C     C_R   0.529917 0.068857 0.373139 -0.207088
H6    H     H_    0.545553 0.120184 0.277072 0.208554
C16   C     C_R   0.525247 0.940018 0.367714 -0.016046
C17   C     C_R   0.505646 0.870676 0.493799 -0.147935
C18   C     C_R   0.494215 0.936827 0.616651 0.064608
C19   C     C_3   0.467222 0.925368 0.769324 0.184632
C20   C     C_3   0.469088 0.067272 0.772425 -0.481971
H7    H     H_    0.544344 0.880708 0.828613 0.110942
H8    H     H_    0.376699 0.110224 0.794642 0.229407
H9    H     H_    0.549549 0.106006 0.831758 0.190069
C21   C     C_R   0.578702 0.576628 0.072749 0.300702
N1    N     N_R   0.500800 0.500930 0.147930 -0.232795
C22   C     C_R   0.414073 0.432517 0.073158 0.070637
C23   C     C_R   0.415014 0.432871 0.924973 -0.081802
H10   H     H_    0.348351 0.376676 0.868271 0.142577
N2    N     N_R   0.500800 0.500890 0.852020 -0.195831
C24   C     C_R   0.578234 0.577220 0.925508 0.290024
C25   C     C_3   0.718298 0.579227 0.918870 -0.483465
C26   C     C_3   0.718615 0.576254 0.077010 -0.528225
H11   H     H_    0.758498 0.494675 0.872558 0.222456
H12   H     H_    0.755343 0.667006 0.874527 0.243225
H13   H     H_    0.755572 0.488468 0.119359 0.214542
H14   H     H_    0.758207 0.660919 0.124457 0.232740
C27   C     C_2   0.317647 0.355429 0.141283 0.880713
O9    O     O_2   0.210435 0.393950 0.152505 -0.602440
O10   O     O_R   0.345290 0.234543 0.179415 -0.772066
H15   H     H_    0.270409 0.189836 0.222192 0.333723
N3    N     N_R   0.917265 0.723534 0.604395 0.112939
O11   O     O_R   0.998728 0.803143 0.649907 -0.284446
O12   O     O_R   0.798868 0.752112 0.601278 -0.406597
C28   C     C_2   0.538758 0.885633 0.227602 0.877400
O13   O     O_2   0.449406 0.833589 0.173327 -0.540322
O14   O     O_R   0.651486 0.901421 0.154109 -0.761609
H16   H     H_    0.648830 0.863023 0.058045 0.318456
N4    N     N_R   0.342938 0.872089 0.797355 0.163502
O15   O     O_R   0.331591 0.780200 0.884262 -0.309937
O16   O     O_R   0.243887 0.912350 0.732550 -0.303625

loop_
_geom_bond_atom_site_label_1
_geom_bond_atom_site_label_2
_geom_bond_distance
_ccdc_geom_bond_type
C5    H2    1.110374 S    
C15   C16   1.403453 A    
C23   H10   1.083171 S    
C3    C17   1.450289 S    
C19   N4    1.463108 S    
C11   H5    1.110253 S    
O4    Cu2   1.959063 S    
C14   C15   1.406432 A    
N1    C22   1.386048 A    
C7    C8    1.521718 S    
C19   C20   1.544184 S    
C15   H6    1.084032 S    
Cu2   O8    1.960591 S    
C2    C12   1.452939 S    
C16   C17   1.432403 A    
C8    C9    1.533338 S    
O10   H15   1.013925 S    
C20   H8    1.111847 S    
C17   C18   1.388819 A    
C13   C18   1.348531 A    
Cu1   Cu2   2.693461 S    
C25   H11   1.111645 S    
C24   C25   1.491340 S    
C9    C10   1.550718 S    
N4    O15   1.300418 A    
Cu1   O7    1.959062 S    
C23   N2    1.358765 A    
C1    C14   1.438801 S    
N3    O11   1.299639 A    
O14   H16   1.013358 S    
C9    H3    1.110253 S    
O3    Cu1   1.960591 S    
O4    C2    1.292511 A    
Cu1   N2    2.023553 S    
Cu2   O6    1.974506 S    
C21   N1    1.363848 A    
C19   H7    1.112012 S    
C6    C11   1.549489 S    
O8    C4    1.289973 A    
O2    C1    1.293368 A    
C25   H12   1.111190 S    
Cu1   O5    1.971418 S    
C27   O10   1.395770 S    
C22   C27   1.468236 S    
C6    C7    1.537782 S    
C5    C8    1.532939 S    
O7    C4    1.291700 A    
N3    O12   1.300024 A    
O3    C2    1.288339 A    
C6    H1    1.110217 S    
C22   C23   1.418651 A    
C21   C24   1.409638 A    
C11   C12   1.533571 S    
C5    C6    1.551790 S    
C13   C14   1.383886 A    
N2    C24   1.366306 A    
C26   H14   1.111008 S    
C7    C10   1.539181 S    
Cu2   N1    2.023817 S    
C13   C20   1.491937 S    
C28   O14   1.397106 S    
C18   C19   1.492640 S    
C10   H4    1.106642 S    
C9    C12   1.534684 S    
C21   C26   1.489368 S    
C16   C28   1.477041 S    
C10   C11   1.547814 S    
C5    C12   1.539285 S    
O5    C3    1.303346 A    
O1    Cu1   1.974506 S    
C8    N3    1.457700 S    
C27   O9    1.222624 D    
C4    C7    1.455618 S    
C20   H9    1.111447 S    
C26   H13   1.109799 S    
O2    Cu2   1.971420 S    
C25   C26   1.514109 S    
C28   O13   1.222669 D    
O1    C1    1.293707 A    
O6    C3    1.288349 A    
N4    O16   1.301854 A    
