data_mof_unit_65281.cif
_audit_creation_date              2012-12-10T18:19:58-0500
_audit_creation_method            fapswitch 2.2
_symmetry_space_group_name_H-M    P1
_symmetry_Int_Tables_number       1
_space_group_crystal_system       triclinic
_cell_length_a                    41.986244
_cell_length_b                    35.683736
_cell_length_c                    22.042626
_cell_angle_alpha                 90.001527
_cell_angle_beta                  121.699418
_cell_angle_gamma                 90.000065
_cell_volume                      28098.073961

loop_
_atom_site_label
_atom_site_type_symbol
_atom_type_description
_atom_site_fract_x
_atom_site_fract_y
_atom_site_fract_z
_atom_type_partial_charge
C1    C     C_R   0.427670 0.499990 0.927556 0.929483
C2    C     C_R   0.572330 0.499990 0.072445 0.929493
C3    C     C_R   0.927670 0.999990 0.927556 0.929483
C4    C     C_R   0.072329 0.999990 0.072445 0.929493
C5    C     C_2   0.499020 0.496697 0.815567 0.218357
C6    C     C_2   0.500969 0.496704 0.184427 0.218409
C7    C     C_2   0.999020 0.996697 0.815567 0.218357
C8    C     C_2   0.000969 0.996704 0.184427 0.218410
C9    C     C_R   0.171752 0.492019 0.729465 0.370317
C10   C     C_R   0.828247 0.491964 0.270563 0.370128
C11   C     C_R   0.671752 0.992019 0.729465 0.370316
C12   C     C_R   0.328247 0.991964 0.270563 0.370128
C13   C     C_R   0.132756 0.491950 0.687199 -0.191899
C14   C     C_R   0.867243 0.491897 0.312826 -0.192090
C15   C     C_R   0.632756 0.991950 0.687199 -0.191899
C16   C     C_R   0.367243 0.991897 0.312826 -0.192089
C17   C     C_R   0.113830 0.500493 0.614171 -0.175930
C18   C     C_R   0.886171 0.500496 0.385831 -0.175705
C19   C     C_R   0.613830 0.000493 0.614171 -0.175930
C20   C     C_R   0.386171 0.000496 0.385831 -0.175707
C21   C     C_R   0.134702 0.509591 0.582639 0.318653
C22   C     C_R   0.865302 0.509653 0.417343 0.318679
C23   C     C_R   0.634702 0.009592 0.582640 0.318653
C24   C     C_R   0.365302 0.009652 0.417343 0.318678
C25   C     C_R   0.174440 0.507705 0.624192 0.312800
C26   C     C_R   0.825564 0.507768 0.375798 0.312910
C27   C     C_R   0.674440 0.007706 0.624192 0.312802
C28   C     C_R   0.325564 0.007767 0.375798 0.312911
C29   C     C_R   0.192745 0.500020 0.697620 -0.079151
C30   C     C_R   0.807256 0.500023 0.302390 -0.079058
C31   C     C_R   0.692745 0.000020 0.697620 -0.079151
C32   C     C_R   0.307256 0.000023 0.302390 -0.079059
C33   C     C_1   0.233135 0.500103 0.738804 0.084260
C34   C     C_1   0.766866 0.500106 0.261209 0.084251
C35   C     C_1   0.733135 0.000103 0.738804 0.084260
C36   C     C_1   0.266866 0.000106 0.261209 0.084251
C37   C     C_1   0.266834 0.500618 0.771772 0.034040
C38   C     C_1   0.733167 0.500622 0.228242 0.034016
C39   C     C_1   0.766834 0.000618 0.771772 0.034040
C40   C     C_1   0.233167 0.000622 0.228242 0.034017
C41   C     C_R   0.326954 0.479695 0.870651 -0.223233
C42   C     C_R   0.673047 0.479696 0.129360 -0.223245
C43   C     C_R   0.826954 0.979695 0.870651 -0.223232
C44   C     C_R   0.173047 0.979696 0.129360 -0.223245
C45   C     C_R   0.499252 0.499599 0.881781 0.920646
C46   C     C_R   0.500745 0.499601 0.118217 0.920569
C47   C     C_R   0.999252 0.999599 0.881781 0.920647
C48   C     C_R   0.000745 0.999601 0.118217 0.920569
C49   C     C_R   0.366036 0.479065 0.909776 0.384146
C50   C     C_R   0.633965 0.479064 0.090232 0.384153
C51   C     C_R   0.866036 0.979065 0.909776 0.384146
C52   C     C_R   0.133965 0.979064 0.090232 0.384153
C53   C     C_R   0.386095 0.500042 0.885805 -0.337910
C54   C     C_R   0.613905 0.500043 0.114199 -0.337918
C55   C     C_R   0.886095 0.000042 0.885805 -0.337910
C56   C     C_R   0.113905 0.000044 0.114199 -0.337918
C57   C     C_R   0.365888 0.521514 0.821958 0.294734
C58   C     C_R   0.634111 0.521517 0.178048 0.294701
C59   C     C_R   0.865888 0.021514 0.821958 0.294735
C60   C     C_R   0.134111 0.021517 0.178048 0.294701
C61   C     C_R   0.326430 0.523401 0.785423 0.377998
C62   C     C_R   0.673569 0.523404 0.214587 0.377981
C63   C     C_R   0.826430 0.023401 0.785423 0.377997
C64   C     C_R   0.173569 0.023405 0.214587 0.377981
C65   C     C_R   0.307132 0.501623 0.809632 -0.119146
C66   C     C_R   0.692868 0.501626 0.190379 -0.119148
C67   C     C_R   0.807132 0.001623 0.809632 -0.119147
C68   C     C_R   0.192868 0.001626 0.190379 -0.119148
C69   C     C_R   0.500016 0.692780 0.500192 -0.099059
C70   C     C_R   0.000016 0.192780 0.500194 -0.099060
C71   C     C_R   0.504342 0.633834 0.559631 0.280159
C72   C     C_R   0.495677 0.633897 0.440549 0.278987
C73   C     C_R   0.004342 0.133833 0.559632 0.280164
C74   C     C_R   0.995677 0.133898 0.440550 0.278983
C75   C     C_1   0.999959 0.267030 0.500509 0.027434
C76   C     C_1   0.499959 0.767030 0.500505 0.027427
C77   C     C_R   0.999929 0.307611 0.500923 -0.242812
C78   C     C_R   0.499930 0.807611 0.500916 -0.242809
C79   C     C_R   0.500000 0.427685 0.500001 0.973723
C80   C     C_R   1.000000 0.927685 0.500001 0.973723
C81   C     C_R   0.507741 0.673338 0.561645 0.300384
C82   C     C_R   0.492295 0.673406 0.438673 0.302450
C83   C     C_R   0.007741 0.173338 0.561647 0.300376
C84   C     C_R   0.992295 0.173407 0.438675 0.302457
C85   C     C_R   0.499963 0.502908 0.617007 0.974353
C86   C     C_R   0.500038 0.502925 0.382996 0.974096
C87   C     C_R   0.999963 0.002908 0.617007 0.974354
C88   C     C_R   0.000037 0.002925 0.382996 0.974094
C89   C     C_R   0.500001 0.572268 0.500000 0.968357
C90   C     C_R   0.000001 0.072268 0.500000 0.968357
C91   C     C_R   0.999993 0.428040 0.499995 1.005394
C92   C     C_R   0.499993 0.928040 0.499995 1.005394
C93   C     C_R   0.072245 0.500534 0.572235 0.919518
C94   C     C_R   0.927756 0.500535 0.427765 0.919562
C95   C     C_R   0.572245 0.000534 0.572235 0.919519
C96   C     C_R   0.427756 0.000536 0.427765 0.919562
C97   C     C_R   1.000000 0.572293 0.500000 0.798708
C98   C     C_R   0.500000 0.072293 0.500000 0.798708
C99   C     C_R   0.997331 0.673126 0.442155 0.388068
C100  C     C_R   0.002666 0.673128 0.557846 0.388068
C101  C     C_R   0.497331 0.173126 0.442155 0.388068
C102  C     C_R   0.502666 0.173128 0.557846 0.388069
C103  C     C_R   0.997414 0.633694 0.442628 -0.270515
C104  C     C_R   0.002584 0.633695 0.557373 -0.270493
C105  C     C_R   0.497414 0.133694 0.442628 -0.270515
C106  C     C_R   0.502584 0.133696 0.557373 -0.270493
C107  C     C_R   0.999999 0.613764 0.500001 -0.101215
C108  C     C_R   0.499999 0.113764 0.500001 -0.101216
C109  C     C_R   0.999998 0.692629 0.500000 0.021590
C110  C     C_R   0.499998 0.192629 0.500000 0.021590
C111  C     C_1   0.999998 0.732973 0.500000 0.228342
C112  C     C_1   0.499998 0.232972 0.500000 0.228341
C113  C     C_R   0.999978 0.386634 0.500030 -0.434147
C114  C     C_R   0.499978 0.886634 0.500030 -0.434148
C115  C     C_1   0.499998 0.266716 0.499999 0.258150
C116  C     C_1   0.999998 0.766716 0.499999 0.258150
C117  C     C_R   0.473131 0.326793 0.438409 0.321900
C118  C     C_R   0.526867 0.326794 0.561589 0.321896
C119  C     C_R   0.973131 0.826793 0.438409 0.321900
C120  C     C_R   0.026867 0.826794 0.561589 0.321896
C121  C     C_R   0.476896 0.366063 0.435554 0.277713
C122  C     C_R   0.523103 0.366065 0.564445 0.277730
C123  C     C_R   0.976896 0.866063 0.435554 0.277713
C124  C     C_R   0.023103 0.866065 0.564445 0.277730
C125  C     C_R   0.499999 0.386042 0.500000 -0.385660
C126  C     C_R   0.999999 0.886042 0.500000 -0.385660
C127  C     C_R   0.499999 0.307213 0.499999 -0.274604
C128  C     C_R   0.999999 0.807213 0.499999 -0.274604
C129  C     C_R   0.965542 0.327430 0.462794 0.368382
C130  C     C_R   0.034323 0.327425 0.538906 0.368240
C131  C     C_R   0.465542 0.827430 0.462788 0.368381
C132  C     C_R   0.534323 0.827425 0.538901 0.368241
C133  C     C_R   0.965647 0.366933 0.462639 0.354553
C134  C     C_R   0.034283 0.366920 0.537837 0.354502
C135  C     C_R   0.465647 0.866933 0.462637 0.354554
C136  C     C_R   0.534283 0.866920 0.537836 0.354504
C137  C     C_1   0.499985 0.733245 0.500285 0.214683
C138  C     C_1   0.999985 0.233245 0.500287 0.214686
C139  C     C_R   0.500004 0.613869 0.500056 -0.334824
C140  C     C_R   0.000004 0.113869 0.500056 -0.334824
C141  C     C_2   0.528646 0.510669 0.746830 0.369881
C142  C     C_2   0.471356 0.510710 0.253177 0.369805
C143  C     C_2   0.028646 0.010669 0.746830 0.369881
C144  C     C_2   0.971356 0.010711 0.253177 0.369805
C145  C     C_2   0.499006 0.512260 0.680241 -0.144570
C146  C     C_2   0.500995 0.512294 0.319770 -0.144769
C147  C     C_2   0.999006 0.012260 0.680241 -0.144569
C148  C     C_2   0.000995 0.012294 0.319770 -0.144770
C149  C     C_2   0.522744 0.518226 0.806364 0.166299
C150  C     C_2   0.477263 0.518255 0.193645 0.166461
C151  C     C_2   0.022744 0.018226 0.806364 0.166298
C152  C     C_2   0.977263 0.018256 0.193646 0.166461
Cu1   Cu    Cu3+1 0.500000 0.537250 0.000000 1.203665
Cu2   Cu    Cu3+1 0.000000 0.037250 0.000000 1.203665
Cu3   Cu    Cu3+1 0.500000 0.462730 0.000000 1.230345
Cu4   Cu    Cu3+1 0.000000 0.962730 0.000000 1.230345
Cu5   Cu    Cu3+1 0.537260 0.499990 0.537250 1.187839
Cu6   Cu    Cu3+1 0.462740 0.499990 0.462750 1.187830
Cu7   Cu    Cu3+1 0.037260 0.999990 0.537250 1.187840
Cu8   Cu    Cu3+1 0.962740 0.999990 0.462750 1.187830
Cu9   Cu    Cu3+1 1.000000 0.500090 0.438970 1.105903
Cu10  Cu    Cu3+1 1.000000 0.500090 0.561030 1.105116
Cu11  Cu    Cu3+1 0.500000 0.000090 0.438970 1.105901
Cu12  Cu    Cu3+1 0.500000 0.000090 0.561030 1.105119
H1    H     H_    0.311592 0.463246 0.888246 0.223701
H2    H     H_    0.688410 0.463246 0.111767 0.223694
H3    H     H_    0.811592 0.963246 0.888246 0.223701
H4    H     H_    0.188410 0.963246 0.111767 0.223694
H5    H     H_    0.995344 0.618651 0.398011 0.176097
H6    H     H_    0.004654 0.618653 0.601990 0.176099
H7    H     H_    0.495344 0.118651 0.398011 0.176097
H8    H     H_    0.504654 0.118654 0.601990 0.176099
H9    H     H_    0.472375 0.521893 0.671444 0.159664
H10   H     H_    0.527630 0.521920 0.328572 0.159668
H11   H     H_    0.972375 0.021893 0.671444 0.159664
H12   H     H_    0.027630 0.021920 0.328573 0.159668
H13   H     H_    0.117135 0.485225 0.712261 0.231042
H14   H     H_    0.882864 0.485126 0.287781 0.231136
H15   H     H_    0.617135 0.985225 0.712261 0.231042
H16   H     H_    0.382864 0.985127 0.287781 0.231135
O1    O     O_R   0.445630 0.531460 0.945630 -0.549451
O2    O     O_R   0.554370 0.531460 0.054370 -0.549458
O3    O     O_R   0.945630 0.031460 0.945630 -0.549451
O4    O     O_R   0.054370 0.031460 0.054370 -0.549458
O5    O     O_R   0.054370 0.500090 0.502830 -0.505665
O6    O     O_R   0.945630 0.500090 0.497170 -0.505845
O7    O     O_R   0.554370 0.000090 0.502830 -0.505665
O8    O     O_R   0.445630 0.000090 0.497170 -0.505844
O9    O     O_R   0.054360 0.500110 0.605880 -0.599236
O10   O     O_R   0.945640 0.500110 0.394120 -0.599064
O11   O     O_R   0.554360 0.000110 0.605880 -0.599236
O12   O     O_R   0.445640 0.000110 0.394120 -0.599064
O13   O     O_R   0.000010 0.554450 0.448450 -0.593130
O14   O     O_R   0.999990 0.554450 0.551550 -0.593071
O15   O     O_R   0.500010 0.054450 0.448450 -0.593129
O16   O     O_R   0.499990 0.054450 0.551550 -0.593071
O17   O     O_R   0.445610 0.468530 0.945600 -0.538003
O18   O     O_R   0.554390 0.468530 0.054400 -0.538003
O19   O     O_R   0.945610 0.968530 0.945600 -0.538003
O20   O     O_R   0.054390 0.968530 0.054400 -0.538003
O21   O     O_R   0.500010 0.531460 0.910980 -0.545359
O22   O     O_R   0.499990 0.531460 0.089020 -0.545303
O23   O     O_R   0.000010 0.031460 0.910980 -0.545359
O24   O     O_R   0.999990 0.031460 0.089020 -0.545303
O25   O     O_R   0.499990 0.468530 0.910950 -0.532691
O26   O     O_R   0.500010 0.468530 0.089050 -0.532674
O27   O     O_R   0.999990 0.968530 0.910950 -0.532691
O28   O     O_R   0.000010 0.968530 0.089050 -0.532674
O29   O     O_R   0.531450 0.445630 0.531430 -0.548530
O30   O     O_R   0.468550 0.445630 0.468570 -0.548534
O31   O     O_R   0.031450 0.945630 0.531430 -0.548530
O32   O     O_R   0.968550 0.945630 0.468570 -0.548534
O33   O     O_R   0.531450 0.499990 0.620480 -0.509028
O34   O     O_R   0.468550 0.499990 0.379520 -0.509061
O35   O     O_R   0.031450 0.999990 0.620480 -0.509028
O36   O     O_R   0.968550 0.999990 0.379520 -0.509061
O37   O     O_R   0.468510 0.499990 0.557540 -0.584453
O38   O     O_R   0.531490 0.499990 0.442460 -0.584471
O39   O     O_R   0.968510 0.999990 0.557540 -0.584453
O40   O     O_R   0.031490 0.999990 0.442460 -0.584471
O41   O     O_R   0.531470 0.554350 0.531480 -0.563273
O42   O     O_R   0.468530 0.554350 0.468520 -0.563272
O43   O     O_R   0.031470 0.054350 0.531480 -0.563273
O44   O     O_R   0.968530 0.054350 0.468520 -0.563272
O45   O     O_R   0.999980 0.445730 0.448470 -0.541623
O46   O     O_R   0.000020 0.445730 0.551530 -0.543208
O47   O     O_R   0.499980 0.945730 0.448470 -0.541629
O48   O     O_R   0.500020 0.945730 0.551530 -0.543202
O49   O     O_3   0.518036 0.693776 0.622338 -0.640091
H17   H     H_    0.537270 0.679122 0.663627 0.383393
O50   O     O_3   0.482008 0.693910 0.378058 -0.637539
H18   H     H_    0.462786 0.679282 0.336710 0.383361
O51   O     O_3   0.018036 0.193775 0.622340 -0.640100
H19   H     H_    0.037270 0.179122 0.663628 0.383393
O52   O     O_3   0.982008 0.193911 0.378059 -0.637529
H20   H     H_    0.962786 0.179282 0.336711 0.383360
S1    S     S_3+6 0.388461 0.452583 0.989779 0.042843
O53   O     O_2   0.406334 0.418508 0.979983 -0.228971
O54   O     O_2   0.417974 0.476128 0.049238 -0.317942
O55   O     O_3   0.357364 0.438791 0.011444 -0.510412
H21   H     H_    0.372446 0.425600 0.057626 0.394481
S2    S     S_3+6 0.611541 0.452576 0.010234 0.042838
O56   O     O_2   0.593675 0.418499 0.020040 -0.228977
O57   O     O_2   0.582024 0.476114 0.950772 -0.317897
O58   O     O_3   0.642639 0.438786 0.988567 -0.510414
H22   H     H_    0.627558 0.425591 0.942388 0.394472
S3    S     S_3+6 0.888461 0.952583 0.989779 0.042843
O59   O     O_2   0.906334 0.918508 0.979984 -0.228971
O60   O     O_2   0.917974 0.976128 0.049238 -0.317942
O61   O     O_3   0.857364 0.938791 0.011444 -0.510412
H23   H     H_    0.872446 0.925600 0.057627 0.394481
S4    S     S_3+6 0.111541 0.952576 0.010234 0.042838
O62   O     O_2   0.093675 0.918499 0.020040 -0.228977
O63   O     O_2   0.082024 0.976113 0.950772 -0.317896
O64   O     O_3   0.142639 0.938786 0.988567 -0.510414
H24   H     H_    0.127558 0.925591 0.942388 0.394472
S5    S     S_3+6 0.389458 0.544919 0.785122 0.101637
O65   O     O_2   0.407215 0.580082 0.826921 -0.195794
O66   O     O_2   0.419469 0.519956 0.789961 -0.327757
O67   O     O_3   0.360436 0.556601 0.699011 -0.395211
H25   H     H_    0.354364 0.532598 0.672593 0.375631
S6    S     S_3+6 0.610540 0.544918 0.214885 0.101671
O68   O     O_2   0.592779 0.580079 0.173085 -0.195730
O69   O     O_2   0.580531 0.519951 0.210046 -0.327796
O70   O     O_3   0.639561 0.556604 0.300996 -0.395132
H26   H     H_    0.645635 0.532602 0.327414 0.375618
S7    S     S_3+6 0.889458 0.044919 0.785122 0.101637
O71   O     O_2   0.907215 0.080082 0.826921 -0.195794
O72   O     O_2   0.919469 0.019956 0.789961 -0.327757
O73   O     O_3   0.860436 0.056601 0.699011 -0.395212
H27   H     H_    0.854364 0.032598 0.672593 0.375632
S8    S     S_3+6 0.110540 0.044918 0.214885 0.101671
O74   O     O_2   0.092779 0.080079 0.173085 -0.195731
O75   O     O_2   0.080531 0.019951 0.210046 -0.327796
O76   O     O_3   0.139561 0.056604 0.300996 -0.395132
H28   H     H_    0.145635 0.032602 0.327414 0.375618
O77   O     O_3   0.307883 0.546725 0.726673 -0.638380
H29   H     H_    0.280763 0.547377 0.708316 0.359622
O78   O     O_3   0.692116 0.546729 0.273338 -0.638359
H30   H     H_    0.719236 0.547382 0.291697 0.359663
O79   O     O_3   0.807883 0.046725 0.726673 -0.638380
H31   H     H_    0.780763 0.047378 0.708316 0.359622
O80   O     O_3   0.192116 0.046729 0.273338 -0.638359
H32   H     H_    0.219236 0.047383 0.291697 0.359662
S9    S     S_3+6 0.502197 0.609766 0.628035 0.005399
O81   O     O_2   0.469347 0.583517 0.593848 -0.314377
O82   O     O_2   0.537683 0.587745 0.671854 -0.312383
O83   O     O_3   0.496526 0.638992 0.681544 -0.460192
H33   H     H_    0.496977 0.622602 0.718266 0.389919
S10   S     S_3+6 0.497798 0.609896 0.372054 0.005708
O84   O     O_2   0.530620 0.583611 0.406137 -0.314238
O85   O     O_2   0.462292 0.587915 0.328153 -0.312153
O86   O     O_3   0.503498 0.639180 0.318659 -0.459888
H34   H     H_    0.503036 0.622828 0.281879 0.390018
S11   S     S_3+6 0.002197 0.109765 0.628036 0.005398
O87   O     O_2   0.969347 0.083517 0.593847 -0.314378
O88   O     O_2   0.037683 0.087745 0.671854 -0.312384
O89   O     O_3   0.996526 0.138991 0.681544 -0.460193
H35   H     H_    0.996977 0.122601 0.718266 0.389919
S12   S     S_3+6 0.997798 0.109897 0.372055 0.005709
O90   O     O_2   0.030620 0.083612 0.406137 -0.314238
O91   O     O_2   0.962292 0.087916 0.328153 -0.312152
O92   O     O_3   0.003498 0.139180 0.318660 -0.459888
H36   H     H_    0.003036 0.122829 0.281879 0.390018
O93   O     O_3   0.994669 0.693129 0.385983 -0.666525
H37   H     H_    0.992974 0.675316 0.349864 0.346279
O94   O     O_3   0.005327 0.693132 0.614017 -0.666519
H38   H     H_    0.007022 0.675320 0.650136 0.346280
O95   O     O_3   0.494669 0.193129 0.385983 -0.666525
H39   H     H_    0.492975 0.175316 0.349864 0.346279
O96   O     O_3   0.505327 0.193132 0.614017 -0.666520
H40   H     H_    0.507022 0.175320 0.650136 0.346281
S13   S     S_3+6 0.434879 0.301742 0.367042 0.101681
O97   O     O_2   0.447748 0.284226 0.321516 -0.202151
O98   O     O_2   0.422051 0.271266 0.396462 -0.276279
O99   O     O_3   0.398124 0.329966 0.316726 -0.433601
H41   H     H_    0.380280 0.314412 0.275437 0.388851
S14   S     S_3+6 0.565121 0.301745 0.632952 0.101680
O100  O     O_2   0.552254 0.284229 0.678480 -0.202137
O101  O     O_2   0.577947 0.271269 0.603528 -0.276292
O102  O     O_3   0.601875 0.329971 0.683266 -0.433599
H42   H     H_    0.619721 0.314418 0.724554 0.388860
S15   S     S_3+6 0.934878 0.801742 0.367042 0.101681
O103  O     O_2   0.947748 0.784226 0.321516 -0.202151
O104  O     O_2   0.922051 0.771266 0.396462 -0.276279
O105  O     O_3   0.898124 0.829966 0.316726 -0.433602
H43   H     H_    0.880280 0.814411 0.275437 0.388851
S16   S     S_3+6 0.065121 0.801745 0.632952 0.101680
O106  O     O_2   0.052254 0.784229 0.678480 -0.202137
O107  O     O_2   0.077947 0.771269 0.603528 -0.276292
O108  O     O_3   0.101875 0.829971 0.683266 -0.433599
H44   H     H_    0.119720 0.814418 0.724554 0.388860
S17   S     S_3+6 0.456606 0.389755 0.351937 0.114632
O109  O     O_2   0.419635 0.406327 0.333373 -0.207556
O110  O     O_2   0.482189 0.420644 0.357194 -0.283609
O111  O     O_3   0.450276 0.360658 0.286482 -0.424800
H45   H     H_    0.438020 0.376156 0.242662 0.394607
S18   S     S_3+6 0.543393 0.389757 0.648064 0.114613
O112  O     O_2   0.580363 0.406334 0.666626 -0.207548
O113  O     O_2   0.517808 0.420643 0.642811 -0.283712
O114  O     O_3   0.549727 0.360661 0.713519 -0.424781
H46   H     H_    0.561979 0.376160 0.757339 0.394598
S19   S     S_3+6 0.956606 0.889755 0.351937 0.114632
O115  O     O_2   0.919635 0.906327 0.333373 -0.207556
O116  O     O_2   0.982190 0.920644 0.357194 -0.283609
O117  O     O_3   0.950276 0.860658 0.286482 -0.424801
H47   H     H_    0.938020 0.876156 0.242662 0.394608
S20   S     S_3+6 0.043393 0.889757 0.648064 0.114613
O118  O     O_2   0.080363 0.906334 0.666626 -0.207548
O119  O     O_2   0.017808 0.920643 0.642811 -0.283713
O120  O     O_3   0.049727 0.860661 0.713519 -0.424780
H48   H     H_    0.061979 0.876160 0.757339 0.394598
O121  O     O_3   0.931327 0.309319 0.425031 -0.604367
H49   H     H_    0.934268 0.281834 0.429951 0.346579
O122  O     O_3   0.068493 0.309298 0.577397 -0.604443
H50   H     H_    0.065294 0.281925 0.578213 0.346915
O123  O     O_3   0.431328 0.809319 0.425021 -0.604369
H51   H     H_    0.434270 0.781833 0.429917 0.346583
O124  O     O_3   0.568493 0.809299 0.577389 -0.604444
H52   H     H_    0.565296 0.781924 0.578188 0.346915
O125  O     O_3   0.563629 0.501174 0.759933 -0.635558
H53   H     H_    0.581083 0.499813 0.812317 0.363474
O126  O     O_3   0.436369 0.501226 0.240068 -0.635586
H54   H     H_    0.418916 0.499869 0.187683 0.363483
O127  O     O_3   0.063629 0.001174 0.759933 -0.635558
H55   H     H_    0.081083 0.999813 0.812317 0.363474
O128  O     O_3   0.936369 0.001226 0.240068 -0.635586
H56   H     H_    0.918916 0.999870 0.187683 0.363483
S21   S     S_3+6 0.922590 0.392219 0.415738 0.062152
O129  O     O_2   0.919587 0.416948 0.467698 -0.299714
O130  O     O_2   0.922912 0.416241 0.360078 -0.305101
O131  O     O_3   0.884719 0.364247 0.375347 -0.408333
H57   H     H_    0.863097 0.381576 0.351417 0.377058
S22   S     S_3+6 0.077378 0.392176 0.584096 0.062242
O132  O     O_2   0.080045 0.416991 0.531858 -0.299135
O133  O     O_2   0.077434 0.416108 0.640240 -0.305474
O134  O     O_3   0.115238 0.364168 0.623663 -0.408319
H58   H     H_    0.136886 0.381473 0.647464 0.377039
S23   S     S_3+6 0.422590 0.892219 0.415738 0.062153
O135  O     O_2   0.419589 0.916949 0.467700 -0.299712
O136  O     O_2   0.422911 0.916241 0.360077 -0.305102
O137  O     O_3   0.384719 0.864247 0.375351 -0.408332
H59   H     H_    0.363097 0.881576 0.351420 0.377058
S24   S     S_3+6 0.577378 0.892176 0.584097 0.062242
O138  O     O_2   0.580046 0.916991 0.531860 -0.299138
O139  O     O_2   0.577433 0.916109 0.640239 -0.305471
O140  O     O_3   0.615238 0.864168 0.623666 -0.408319
H60   H     H_    0.636886 0.881474 0.647468 0.377039
O141  O     O_3   0.544197 0.545188 0.856612 -0.684481
H61   H     H_    0.559196 0.558462 0.840447 0.363349
O142  O     O_3   0.455828 0.545228 0.143410 -0.684412
H62   H     H_    0.440837 0.558514 0.159580 0.363372
O143  O     O_3   0.044197 0.045188 0.856612 -0.684482
H63   H     H_    0.059196 0.058462 0.840448 0.363350
O144  O     O_3   0.955828 0.045228 0.143410 -0.684413
H64   H     H_    0.940837 0.058514 0.159581 0.363373
S25   S     S_3+6 0.474000 0.457300 0.759660 0.043037
O145  O     O_2   0.441293 0.470573 0.689848 -0.274903
O146  O     O_2   0.499806 0.434605 0.746199 -0.235610
O147  O     O_3   0.457082 0.429324 0.797744 -0.476627
H65   H     H_    0.444607 0.408460 0.763579 0.393339
S26   S     S_3+6 0.525958 0.457294 0.240318 0.043074
O148  O     O_2   0.558663 0.470550 0.310150 -0.274918
O149  O     O_2   0.500127 0.434616 0.253736 -0.235590
O150  O     O_3   0.542873 0.429306 0.202243 -0.476612
H66   H     H_    0.555325 0.408433 0.236395 0.393336
S27   S     S_3+6 0.974000 0.957300 0.759660 0.043037
O151  O     O_2   0.941293 0.970574 0.689848 -0.274903
O152  O     O_2   0.999806 0.934605 0.746199 -0.235610
O153  O     O_3   0.957082 0.929324 0.797744 -0.476627
H67   H     H_    0.944607 0.908460 0.763579 0.393339
S28   S     S_3+6 0.025958 0.957294 0.240318 0.043075
O154  O     O_2   0.058663 0.970550 0.310150 -0.274918
O155  O     O_2   0.000127 0.934616 0.253736 -0.235590
O156  O     O_3   0.042873 0.929306 0.202243 -0.476611
H68   H     H_    0.055325 0.908433 0.236395 0.393336
O157  O     O_3   0.187759 0.483767 0.801028 -0.669685
H69   H     H_    0.215359 0.484682 0.825711 0.339647
O158  O     O_3   0.812238 0.483652 0.199022 -0.669688
H70   H     H_    0.784638 0.484571 0.174339 0.339654
O159  O     O_3   0.687759 0.983767 0.801028 -0.669685
H71   H     H_    0.715359 0.984681 0.825711 0.339647
O160  O     O_3   0.312238 0.983653 0.199022 -0.669687
H72   H     H_    0.284638 0.984572 0.174339 0.339654
O161  O     O_3   0.115871 0.521365 0.512479 -0.684861
H73   H     H_    0.132144 0.538731 0.505693 0.342507
O162  O     O_3   0.884138 0.521482 0.487471 -0.685002
H74   H     H_    0.867867 0.538873 0.494215 0.342503
O163  O     O_3   0.615870 0.021366 0.512479 -0.684861
H75   H     H_    0.632144 0.038732 0.505693 0.342508
O164  O     O_3   0.384138 0.021482 0.487471 -0.685003
H76   H     H_    0.367867 0.038872 0.494216 0.342504
O165  O     O_3   0.196113 0.512873 0.594598 -0.697976
H77   H     H_    0.181456 0.505174 0.543889 0.354823
O166  O     O_3   0.803893 0.512992 0.405383 -0.698014
H78   H     H_    0.818551 0.505332 0.456112 0.354801
O167  O     O_3   0.696113 0.012873 0.594598 -0.697977
H79   H     H_    0.681456 0.005175 0.543889 0.354823
O168  O     O_3   0.303893 0.012992 0.405383 -0.698014
H80   H     H_    0.318551 0.005332 0.456112 0.354801

loop_
_geom_bond_atom_site_label_1
_geom_bond_atom_site_label_2
_ccdc_geom_bond_type
C99   C103  A    
C82   O50   S    
Cu5   Cu6   S    
C55   C59   A    
S10   O86   S    
O161  H73   S    
C142  C146  D    
O162  H74   S    
Cu2   O23   S    
S17   O109  D    
Cu9   O10   S    
O123  H51   S    
S25   O146  D    
C152  O144  S    
S3    O61   S    
Cu8   O39   S    
C29   C33   S    
C100  C104  A    
C98   C108  S    
O131  H57   S    
C44   H4    S    
S27   O153  S    
C97   O13   A    
C9    C13   A    
C11   C15   A    
C134  S22   S    
C72   C139  A    
C12   C16   A    
S8    O74   D    
S2    O57   D    
O105  H43   S    
Cu12  O11   S    
C70   C84   A    
C143  O127  S    
S26   O149  D    
C141  C145  D    
S21   O131  S    
C119  C128  A    
C143  C151  S    
C100  C109  A    
C113  C133  A    
O58   H22   S    
C4    C56   S    
C1    C53   S    
C130  C134  A    
C21   O161  S    
C124  S20   S    
C41   C49   A    
Cu9   Cu10  S    
Cu1   O21   S    
C25   C29   A    
S2    O58   S    
C27   C31   A    
S15   O103  D    
C28   C32   A    
C84   O52   S    
C49   S1    S    
C62   C66   A    
C123  C126  A    
Cu3   O25   S    
C101  C110  A    
O167  H79   S    
C24   O164  S    
C17   C21   A    
O99   H41   S    
C19   C23   A    
C122  S18   S    
O49   H17   S    
C10   C30   A    
O122  H50   S    
C16   C20   A    
C48   O28   A    
C12   O160  S    
C88   C148  S    
O126  H54   S    
C77   C129  A    
Cu3   O18   S    
C129  C133  A    
Cu8   O44   S    
C70   C138  S    
O141  H61   S    
C9    O157  S    
O89   H35   S    
O140  H60   S    
O160  H72   S    
S12   O90   D    
C94   O10   A    
S17   O111  S    
C105  H7    S    
S14   O102  S    
C106  H8    S    
O111  H45   S    
Cu12  O8    S    
C75   C138  T    
S24   O139  D    
C90   C140  S    
C57   C61   A    
C119  C123  A    
O143  H63   S    
C59   C63   A    
C22   O162  S    
C59   S7    S    
C60   C64   A    
C90   O43   A    
S9    O82   D    
O127  H55   S    
C80   C126  S    
S8    O76   S    
C49   C53   A    
C146  H10   S    
C57   S5    S    
C142  O126  S    
C130  O122  S    
C99   O93   S    
C51   C55   A    
Cu4   O28   S    
C97   C107  S    
C61   C65   A    
S20   O118  D    
Cu1   O2    S    
Cu7   O40   S    
O124  H52   S    
C114  C136  A    
C103  C107  A    
O150  H66   S    
C73   C83   A    
C104  C107  A    
C135  S23   S    
S4    O62   D    
Cu8   O36   S    
C79   O30   A    
Cu5   O29   S    
O159  H71   S    
C15   H15   S    
C74   S12   S    
O158  H70   S    
Cu7   O31   S    
S11   O88   D    
C117  S13   S    
C76   C137  T    
C118  S14   S    
C148  H12   S    
C7    S27   S    
C64   C68   A    
C149  O141  S    
S28   O154  D    
C8    C152  D    
C85   C145  S    
C109  C111  S    
C89   O41   A    
S7    O73   S    
S13   O98   D    
S5    O65   D    
C86   O38   A    
C78   C132  A    
S22   O132  D    
Cu5   O38   S    
S14   O101  D    
C69   C82   A    
C5    C149  D    
C3    C55   S    
C83   O51   S    
C92   O47   A    
C37   C65   S    
C23   O163  S    
O51   H19   S    
S12   O92   S    
C121  S17   S    
C80   O32   A    
C44   C52   A    
C20   C96   S    
S1    O53   D    
Cu5   O41   S    
Cu10  O46   S    
C8    S28   S    
Cu7   O35   S    
C30   C34   S    
Cu9   O13   S    
C10   C14   A    
S23   O137  S    
C74   C140  A    
C136  S24   S    
S20   O120  S    
C4    O4    A    
S15   O104  D    
S22   O134  S    
C86   O34   A    
C121  C125  A    
O86   H34   S    
C52   S4    S    
O164  H76   S    
C132  C136  A    
Cu2   O3    S    
C98   O16   A    
C75   C77   S    
O153  H67   S    
C14   H14   S    
C42   C50   A    
S4    O64   S    
C28   O168  S    
O102  H42   S    
C119  S15   S    
S19   O116  D    
C91   O46   A    
C22   C26   A    
C91   O45   A    
Cu4   O19   S    
C17   C93   S    
C118  C127  A    
C117  C121  A    
C19   C95   S    
C124  C126  A    
S26   O148  D    
C46   O26   A    
C21   C25   A    
C18   C22   A    
C61   O77   S    
S28   O156  S    
C1    O17   A    
C24   C28   A    
C74   C84   A    
S16   O106  D    
Cu2   O24   S    
S7    O71   D    
Cu12  O16   S    
C26   C30   A    
S6    O68   D    
C43   H3    S    
Cu6   O34   S    
S18   O114  S    
C48   O24   A    
S18   O113  D    
C13   C17   A    
S5    O67   S    
C96   O12   A    
C122  C125  A    
C144  C152  S    
S25   O145  D    
O67   H25   S    
C106  C108  A    
C18   C94   S    
O55   H21   S    
S27   O152  D    
C110  C112  S    
Cu11  Cu12  S    
C4    O20   A    
S8    O75   D    
C62   O78   S    
S1    O55   S    
O80   H32   S    
C103  H5    S    
C81   O49   S    
C3    O3    A    
C16   H16   S    
C71   C81   A    
C58   C62   A    
O137  H59   S    
C69   C137  S    
C5    S25   S    
O76   H28   S    
S19   O115  D    
S6    O70   S    
O121  H49   S    
C95   O7    A    
S23   O135  D    
C15   C19   A    
C50   C54   A    
C87   C147  S    
C141  O125  S    
C147  H11   S    
C99   C109  A    
S10   O84   D    
C14   C18   A    
Cu9   O5    S    
C100  O94   S    
O120  H48   S    
O52   H20   S    
C111  C116  T    
Cu1   Cu3   S    
C88   O36   A    
Cu2   Cu4   S    
Cu3   O17   S    
C144  C148  D    
S3    O60   D    
C2    O18   A    
C58   S6    S    
S16   O108  S    
C86   C146  S    
S12   O91   D    
S17   O110  D    
O94   H38   S    
C132  O124  S    
C94   O6    A    
C2    C54   S    
S25   O147  S    
S11   O87   D    
C11   O159  S    
C53   C57   A    
O147  H65   S    
O61   H23   S    
O163  H75   S    
C5    C45   S    
C151  O143  S    
C33   C37   T    
C56   C60   A    
C7    C47   S    
C97   O14   A    
C35   C39   T    
O168  H80   S    
C8    C48   S    
C90   O44   A    
S9    O81   D    
Cu7   Cu8   S    
Cu11  O15   S    
S20   O119  D    
S2    O56   D    
C47   O23   A    
C26   O166  S    
C70   C83   A    
C117  C127  A    
C7    C151  D    
Cu1   O1    S    
C93   O9    A    
C113  C134  A    
C6    S26   S    
C31   C35   S    
C102  C110  A    
C32   C36   S    
S4    O63   D    
Cu1   O22   S    
C79   O29   A    
C45   O25   A    
C76   C78   S    
O144  H64   S    
C120  C128  A    
C71   C139  A    
S9    O83   S    
C142  C150  S    
S28   O155  D    
O78   H30   S    
S7    O72   D    
C43   C51   A    
S13   O97   D    
Cu6   O37   S    
C13   H13   S    
C102  O96   S    
C77   C130  A    
C41   C65   A    
S22   O133  D    
C69   C81   A    
C6    C150  D    
C88   O40   A    
C46   O22   A    
C92   O48   A    
O93   H37   S    
C40   C68   S    
C87   O35   A    
O73   H27   S    
Cu10  O9    S    
C42   H2    S    
Cu11  O12   S    
C93   O5    A    
Cu6   O30   S    
O96   H40   S    
C27   O167  S    
C96   O8    A    
C51   S3    S    
O128  H56   S    
O108  H44   S    
Cu3   O26   S    
S24   O138  D    
C1    O1    A    
O157  H69   S    
C141  C149  S    
O142  H62   S    
O95   H39   S    
C143  C147  D    
C104  H6    S    
C131  C135  A    
C118  C122  A    
S23   O136  D    
C115  C127  S    
Cu11  O7    S    
C2    O2    A    
Cu4   O27   S    
C85   O37   A    
C72   S10   S    
C38   C66   S    
C89   C139  S    
C41   H1    S    
C3    O19   A    
S27   O151  D    
C23   C27   A    
C123  S19   S    
O70   H26   S    
C9    C29   A    
C11   C31   A    
Cu6   O42   S    
O92   H36   S    
C12   C32   A    
C131  O123  S    
Cu4   O20   S    
S11   O89   S    
Cu9   O45   S    
C101  C105  A    
Cu8   O32   S    
C105  C108  A    
C63   C67   A    
C20   C24   A    
C36   C40   T    
C144  O128  S    
S16   O107  D    
C89   O42   A    
Cu10  O6    S    
S13   O99   S    
S6    O69   D    
O79   H31   S    
C91   C113  S    
Cu2   O4    S    
S5    O66   D    
C78   C131  A    
S14   O100  D    
C85   O33   A    
S26   O150  S    
O156  H68   S    
C150  O142  S    
C114  C135  A    
Cu10  O14   S    
Cu12  O48   S    
C60   S8    S    
O134  H58   S    
C80   O31   A    
C43   C67   A    
C120  S16   S    
C145  H9    S    
S18   O112  D    
C87   O39   A    
S1    O54   D    
C71   S9    S    
C25   O165  S    
C44   C68   A    
O64   H24   S    
S24   O140  S    
C63   O79   S    
S21   O129  D    
C54   C58   A    
C129  O121  S    
C6    C46   S    
C34   C38   T    
C39   C67   S    
C50   S2    S    
S3    O59   D    
C73   C140  A    
C95   O11   A    
O125  H53   S    
Cu5   O33   S    
C47   O27   A    
C73   S11   S    
S15   O105  S    
C133  S21   S    
O83   H33   S    
C64   O80   S    
O117  H47   S    
Cu7   O43   S    
C98   O15   A    
C102  C106  A    
S10   O85   D    
C79   C125  S    
O166  H78   S    
C52   C56   A    
C101  O95   S    
C45   O21   A    
O165  H77   S    
C116  C128  S    
S19   O117  S    
O50   H18   S    
C42   C66   A    
O114  H46   S    
C10   O158  S    
S21   O130  D    
O77   H29   S    
C92   C114  S    
C112  C115  T    
C72   C82   A    
C120  C124  A    
Cu11  O47   S    
