data_mof_unit_44726.cif
_audit_creation_date              2012-12-11T15:29:40-0500
_audit_creation_method            fapswitch 2.2
_symmetry_space_group_name_H-M    P1
_symmetry_Int_Tables_number       1
_space_group_crystal_system       triclinic
_cell_length_a                    21.52618
_cell_length_b                    7.32144
_cell_length_c                    14.301915
_cell_angle_alpha                 89.999918
_cell_angle_beta                  76.042874
_cell_angle_gamma                 89.998515
_cell_volume                      2187.47291007

loop_
_atom_site_label
_atom_site_type_symbol
_atom_type_description
_atom_site_fract_x
_atom_site_fract_y
_atom_site_fract_z
_atom_type_partial_charge
O1    O     O_R   0.464160 0.506670 0.130070 -0.518506
O2    O     O_R   0.535840 0.006670 0.869930 -0.518509
O3    O     O_R   0.589710 0.179080 0.006710 -0.546626
O4    O     O_R   0.410290 0.679080 0.993290 -0.546642
C1    C     C_R   0.615181 0.344976 0.006586 0.725474
C2    C     C_R   0.384819 0.844980 0.993415 0.725433
O5    O     O_R   0.467940 0.177220 0.138010 -0.539449
O6    O     O_R   0.532060 0.677220 0.861990 -0.539447
O7    O     O_R   0.413200 0.002810 0.002170 -0.529000
O8    O     O_R   0.586800 0.502810 0.997830 -0.529006
C3    C     C_R   0.456497 0.345388 0.175908 0.740220
C4    C     C_R   0.543505 0.845387 0.824092 0.740179
O9    O     O_3   0.482180 0.337850 0.955280 -0.363790
O10   O     O_3   0.517820 0.837850 0.044720 -0.363784
V1    V     V_3+5 0.503310 0.064600 0.008300 1.593461
V2    V     V_3+5 0.496690 0.564600 0.991700 1.593436
C5    C     C_R   0.572125 0.853209 0.718943 -0.138958
C6    C     C_R   0.427880 0.353208 0.281058 -0.138952
C7    C     C_R   0.929907 0.860087 0.280952 -0.174800
C8    C     C_R   0.070098 0.360065 0.719047 -0.174730
C9    C     C_R   0.561816 0.857153 0.552263 0.531720
C10   C     C_R   0.438192 0.357175 0.447738 0.531787
C11   C     C_R   0.534046 0.847588 0.652084 -0.076083
C12   C     C_R   0.465961 0.347605 0.347916 -0.076096
C13   C     C_R   0.638650 0.861556 0.685908 -0.232200
C14   C     C_R   0.361356 0.361519 0.314097 -0.232239
C15   C     C_R   0.668718 0.863754 0.586138 0.037590
C16   C     C_R   0.331291 0.363714 0.413868 0.037561
C17   C     C_R   0.629284 0.871908 0.519457 -0.070558
C18   C     C_R   0.370725 0.371920 0.480546 -0.070422
C19   C     C_R   0.736818 0.854884 0.550561 0.071314
C20   C     C_R   0.263192 0.354796 0.449449 0.071351
C21   C     C_R   0.764843 0.876217 0.449667 0.066520
C22   C     C_R   0.235166 0.376166 0.550341 0.066578
C23   C     C_R   0.723948 0.898608 0.387346 -0.182077
C24   C     C_R   0.276061 0.398635 0.612656 -0.182278
C25   C     C_R   0.658214 0.892570 0.421113 -0.066093
C26   C     C_R   0.341795 0.392620 0.578889 -0.066219
C27   C     C_R   0.777507 0.814396 0.611853 -0.166125
C28   C     C_R   0.222509 0.314219 0.388163 -0.166087
C29   C     C_R   0.842838 0.792940 0.575757 -0.064514
C30   C     C_R   0.157181 0.292736 0.424262 -0.064684
C31   C     C_R   0.870674 0.815958 0.477886 0.034339
C32   C     C_R   0.129341 0.315810 0.522126 0.034235
C33   C     C_R   0.832712 0.864189 0.413651 0.089177
C34   C     C_R   0.167298 0.364107 0.586357 0.089249
C35   C     C_R   0.936351 0.786235 0.443809 -0.201588
C36   C     C_R   0.063665 0.286097 0.556200 -0.201847
C37   C     C_R   0.965986 0.801149 0.345900 0.433078
C38   C     C_R   0.034022 0.301091 0.654102 0.433084
C39   C     C_R   0.864180 0.893040 0.315485 -0.273133
C40   C     C_R   0.135826 0.392999 0.684517 -0.273153
H1    H     H_    0.838928 0.938464 0.263194 0.125003
H2    H     H_    0.161076 0.438446 0.736807 0.125008
H3    H     H_    0.871876 0.755917 0.625092 0.199185
H4    H     H_    0.128146 0.255654 0.374932 0.199169
H5    H     H_    0.482638 0.835535 0.678017 0.208350
H6    H     H_    0.517368 0.335556 0.321981 0.208341
H7    H     H_    0.741052 0.911840 0.310472 0.170785
H8    H     H_    0.258955 0.411910 0.689529 0.170805
C41   C     C_3   0.225020 0.743812 0.915468 -0.411925
C42   C     C_3   0.774979 0.243825 0.084553 -0.411964
H9    H     H_    0.201989 0.609062 0.916631 0.227732
H10   H     H_    0.798015 0.109084 0.083403 0.227752
C43   C     C_3   0.295866 0.715606 0.920727 -0.205846
C44   C     C_3   0.704136 0.215602 0.079285 -0.205918
H11   H     H_    0.301048 0.575924 0.948196 0.230261
H12   H     H_    0.698963 0.075918 0.051813 0.230336
H13   H     H_    0.187119 0.648468 0.101784 0.263274
H14   H     H_    0.812895 0.148501 0.898230 0.263266
H15   H     H_    0.289448 0.682105 0.120525 0.201555
H16   H     H_    0.710564 0.182116 0.879481 0.201579
C45   C     C_3   0.201359 0.793660 0.093608 -0.175605
C46   C     C_3   0.798645 0.293687 0.906410 -0.175645
C47   C     C_3   0.220187 0.065376 0.979222 0.252142
C48   C     C_3   0.779800 0.565389 0.020815 0.252127
C49   C     C_3   0.188284 0.869803 0.998872 -0.107932
C50   C     C_3   0.811714 0.369821 0.001150 -0.107895
C51   C     C_3   0.314330 0.856036 0.990763 -0.105728
C52   C     C_3   0.685669 0.356032 0.009248 -0.105711
C53   C     C_3   0.273102 0.811527 0.093354 -0.453401
C54   C     C_3   0.726902 0.311540 0.906658 -0.453330
C55   C     C_3   0.294989 0.051305 0.961987 0.248414
C56   C     C_3   0.705000 0.551302 0.038034 0.248381
O11   O     O_R   0.913210 0.208550 0.002110 -0.514523
O12   O     O_R   0.086790 0.708550 0.997890 -0.514515
O13   O     O_R   0.032060 0.539960 0.861980 -0.544197
O14   O     O_R   0.967940 0.039960 0.138020 -0.544177
C57   C     C_R   0.042825 0.372148 0.824095 0.785045
C58   C     C_R   0.957174 0.872151 0.175904 0.785137
O15   O     O_R   0.910290 0.538020 0.993280 -0.508849
O16   O     O_R   0.089710 0.038020 0.006720 -0.508839
O17   O     O_R   0.964160 0.712340 0.130090 -0.525687
O18   O     O_R   0.035840 0.212340 0.869910 -0.525726
C59   C     C_R   0.883860 0.371212 0.998309 0.738640
C60   C     C_R   0.116139 0.871206 0.001702 0.738743
O19   O     O_3   0.017820 0.379210 0.044690 -0.355318
O20   O     O_3   0.982180 0.879210 0.955310 -0.355381
V3    V     V_3+5 0.996690 0.652500 0.991710 1.663458
V4    V     V_3+5 0.003310 0.152500 0.008290 1.663502
H17   H     H_    0.630764 0.904280 0.367580 0.245514
H18   H     H_    0.369245 0.404382 0.632419 0.245489
H19   H     H_    0.964511 0.747211 0.494036 0.175325
H20   H     H_    0.035509 0.247052 0.505972 0.175508
H21   H     H_    0.222953 0.803578 0.845076 0.185590
H22   H     H_    0.777037 0.303600 0.154946 0.185552
H23   H     H_    0.328405 0.724982 0.847671 0.211264
H24   H     H_    0.671596 0.224979 0.152340 0.211169
S1    S     S_3+6 0.186741 0.239104 0.069266 -0.052374
O21   O     O_2   0.237554 0.336236 0.106150 -0.399441
O22   O     O_2   0.152951 0.374870 0.020728 -0.359128
O23   O     O_3   0.132307 0.157363 0.164438 -0.481982
H25   H     H_    0.111087 0.266720 0.198664 0.393231
S2    S     S_3+6 0.813240 0.739174 0.930808 -0.052382
O24   O     O_2   0.762421 0.836397 0.893967 -0.399400
O25   O     O_2   0.847049 0.874857 0.979367 -0.359221
O26   O     O_3   0.867657 0.657469 0.835600 -0.481918
H26   H     H_    0.888979 0.766817 0.801498 0.393238
H27   H     H_    0.209154 0.115615 0.911615 0.123517
H28   H     H_    0.790826 0.615599 0.088431 0.123578
S3    S     S_3+6 0.334981 0.118776 0.839610 -0.040754
O27   O     O_2   0.329493 0.321895 0.830599 -0.360975
O28   O     O_2   0.404697 0.068823 0.817189 -0.331156
O29   O     O_3   0.301476 0.019848 0.757643 -0.538662
H29   H     H_    0.332532 0.038817 0.694906 0.389788
S4    S     S_3+6 0.664995 0.618757 0.160409 -0.040712
O30   O     O_2   0.670401 0.821904 0.169401 -0.360797
O31   O     O_2   0.595296 0.568589 0.182853 -0.331323
O32   O     O_3   0.698551 0.520015 0.242372 -0.538751
H30   H     H_    0.667405 0.538352 0.305068 0.389844
H31   H     H_    0.312151 0.150307 0.008322 0.141325
H32   H     H_    0.687839 0.650301 0.991695 0.141339
H33   H     H_    0.172558 0.861987 0.158032 0.260781
H34   H     H_    0.827447 0.362026 0.841993 0.260770
H35   H     H_    0.279131 0.921584 0.144160 0.176964
H36   H     H_    0.720870 0.421600 0.855854 0.176935
S5    S     S_3+6 0.048358 0.749191 0.310759 -0.040824
O33   O     O_2   0.066103 0.667444 0.211703 -0.343828
O34   O     O_2   0.085583 0.922005 0.312374 -0.361016
O35   O     O_3   0.067185 0.599251 0.388597 -0.516342
H37   H     H_    0.082400 0.674076 0.436346 0.347369
S6    S     S_3+6 0.951636 0.249320 0.689238 -0.040907
O36   O     O_2   0.933909 0.167182 0.788216 -0.343872
O37   O     O_2   0.914469 0.422348 0.687855 -0.361032
O38   O     O_3   0.932711 0.099828 0.611254 -0.516339
H38   H     H_    0.917481 0.174928 0.563624 0.347405
S7    S     S_3+6 0.512167 0.833286 0.469236 0.060095
O39   O     O_2   0.518156 0.996615 0.404544 -0.328913
O40   O     O_2   0.534600 0.670415 0.406590 -0.314999
O41   O     O_3   0.434783 0.806914 0.527122 -0.479685
H39   H     H_    0.411898 0.789622 0.475425 0.353033
S8    S     S_3+6 0.487841 0.333296 0.530764 0.060088
O42   O     O_2   0.481853 0.496616 0.595462 -0.328821
O43   O     O_2   0.465408 0.170421 0.593405 -0.315086
O44   O     O_3   0.565225 0.306920 0.472878 -0.479708
H40   H     H_    0.588090 0.289261 0.524579 0.352992
H41   H     H_    0.665644 0.868651 0.740267 0.132768
H42   H     H_    0.334358 0.368596 0.259741 0.132791
H43   H     H_    0.760049 0.788435 0.687788 0.169514
H44   H     H_    0.239972 0.288205 0.312234 0.169505

loop_
_geom_bond_atom_site_label_1
_geom_bond_atom_site_label_2
_ccdc_geom_bond_type
C44   H12   S    
C3    C6    S    
S4    O30   D    
C43   C51   S    
C37   S5    S    
C15   C17   A    
C21   C33   A    
C38   S6    S    
S7    O39   D    
O1    C3    A    
C52   C56   S    
O2    C4    A    
C48   C56   S    
C2    O7    A    
S2    O24   D    
C44   C52   S    
C35   C37   A    
O5    C3    A    
S5    O34   D    
C48   H28   S    
C6    C12   A    
C9    S7    S    
C10   C12   A    
C23   C25   A    
C48   C50   S    
S1    O22   D    
O38   H38   S    
C33   C39   A    
C36   H20   S    
C34   C40   A    
O16   C60   A    
C18   C26   A    
C23   H7    S    
C57   O18   A    
C41   H9    S    
C29   H3    S    
S3    O29   S    
C8    C38   A    
C25   H17   S    
C30   H4    S    
C41   C49   S    
C43   H11   S    
C6    C14   A    
C4    C5    S    
H14   C46   S    
C48   S2    S    
C19   C21   A    
H13   C45   S    
C22   C34   A    
C41   H21   S    
O17   V3    S    
C42   H10   S    
C36   C38   A    
O6    V2    S    
C29   C31   A    
S6    O38   S    
C30   C32   A    
C46   C54   S    
C45   C53   S    
O23   H25   S    
C40   H2    S    
C53   H35   S    
O13   V3    S    
C56   S4    S    
C42   C50   S    
S5    O35   S    
C10   S8    S    
C47   S1    S    
C35   H19   S    
C42   C44   S    
C15   C19   A    
C12   H6    S    
C16   C20   A    
S7    O41   S    
C47   H27   S    
O35   H37   S    
C27   C29   A    
S1    O23   S    
C44   H24   S    
C51   C53   S    
C32   C34   A    
S4    O32   S    
O3    C1    A    
C9    C17   A    
C56   H32   S    
C39   H1    S    
C20   C22   A    
O4    V2    S    
C55   H31   S    
O2    V1    S    
C7    C39   A    
C31   C33   A    
C7    C37   A    
S8    O44   S    
O18   V4    S    
C50   C59   S    
O6    C4    A    
O1    V2    S    
C5    C11   A    
C55   S3    S    
C1    C52   S    
O12   V3    S    
C47   C49   S    
S3    O27   D    
O14   V4    S    
O12   C60   A    
C52   C54   S    
O14   C58   A    
C9    C11   A    
C13   H41   S    
S6    O37   D    
O4    C2    A    
C24   C26   A    
O19   V4    S    
O3    V1    S    
O16   V4    S    
C58   O17   A    
O32   H30   S    
C8    C57   S    
C11   H5    S    
S4    O31   D    
C10   C18   A    
C27   H43   S    
S6    O36   D    
C28   H44   S    
S8    O43   D    
C28   C30   A    
C24   H8    S    
S2    O25   D    
C42   H22   S    
C13   C15   A    
S7    O40   D    
S5    O33   D    
C46   C50   S    
C49   C60   S    
C14   C16   A    
O41   H39   S    
C5    C13   A    
C16   C18   A    
O7    V1    S    
C1    O8    A    
C8    C40   A    
C7    C58   S    
O8    V2    S    
S1    O21   D    
C51   C55   S    
O11   C59   A    
C47   C55   S    
C2    C51   S    
C46   H34   S    
O5    V1    S    
C21   C23   A    
C19   C27   A    
C14   H42   S    
C22   C24   A    
C20   C28   A    
C54   H36   S    
S3    O28   D    
S2    O26   S    
O15   C59   A    
C41   C43   S    
S8    O42   D    
C26   H18   S    
O20   V3    S    
C45   H33   S    
O9    V2    S    
C17   C25   A    
O44   H40   S    
O11   V4    S    
O13   C57   A    
C45   C49   S    
O10   V1    S    
O15   V3    S    
O26   H26   S    
C31   C35   A    
C43   H23   S    
H16   C54   S    
C32   C36   A    
O29   H29   S    
H15   C53   S    
