data_mof_unit_48439.cif
_audit_creation_date              2012-12-10T17:41:26-0500
_audit_creation_method            fapswitch 2.2
_symmetry_space_group_name_H-M    P1
_symmetry_Int_Tables_number       1
_space_group_crystal_system       triclinic
_cell_length_a                    15.208899
_cell_length_b                    13.734404
_cell_length_c                    14.319665
_cell_angle_alpha                 90.456952
_cell_angle_beta                  89.241907
_cell_angle_gamma                 89.86822
_cell_volume                      2990.79996682

loop_
_atom_site_label
_atom_site_type_symbol
_atom_type_description
_atom_site_fract_x
_atom_site_fract_y
_atom_site_fract_z
_atom_type_partial_charge
C1    C     C_R   0.329021 0.499922 0.501511 0.825150
C2    C     C_R   0.670910 0.500015 0.499041 0.826075
C3    C     C_R   0.952987 0.498726 0.499700 -0.026637
C4    C     C_R   0.046746 0.497984 0.502575 -0.027087
C5    C     C_R   0.908165 0.475207 0.415466 0.036205
C6    C     C_R   0.091641 0.521756 0.586699 0.035557
C7    C     C_R   0.949172 0.544137 0.663826 -0.288051
C8    C     C_R   0.050354 0.442411 0.341302 -0.287922
C9    C     C_R   0.040313 0.543480 0.668255 0.230448
C10   C     C_R   0.959383 0.447377 0.335559 0.226339
C11   C     C_R   0.424139 0.793835 0.518155 0.008259
C12   C     C_R   0.575840 0.206214 0.481340 0.010354
C13   C     C_R   0.575560 0.792989 0.480449 0.007913
C14   C     C_R   0.423971 0.206942 0.516942 0.004028
C15   C     C_R   0.578224 0.896108 0.480736 -0.060808
C16   C     C_R   0.421011 0.103826 0.515464 -0.059109
C17   C     C_R   0.420502 0.896891 0.514079 -0.061541
C18   C     C_R   0.578829 0.103046 0.482163 -0.061715
C19   C     C_R   0.499513 0.948360 0.497928 0.053172
C20   C     C_R   0.499839 0.051600 0.498806 0.053119
C21   C     C_R   0.657663 0.947374 0.464644 -0.053529
C22   C     C_R   0.340898 0.052546 0.527652 -0.051807
C23   C     C_R   0.340245 0.949108 0.525867 -0.048305
C24   C     C_R   0.658271 0.050627 0.465662 -0.049108
C25   C     C_R   0.499516 0.499799 0.331019 0.837400
C26   C     C_R   0.500283 0.500200 0.668987 0.836985
C27   C     C_1   0.498400 0.499919 0.228800 -0.151777
C28   C     C_1   0.500642 0.500074 0.771222 -0.150729
C29   C     C_1   0.497924 0.500493 0.143358 -0.016514
C30   C     C_1   0.500389 0.499501 0.856680 -0.017618
C31   C     C_1   0.498409 0.500277 0.042730 -0.047285
C32   C     C_1   0.499348 0.499739 0.957311 -0.048268
C33   C     C_R   0.814279 0.478151 0.415426 -0.076211
C34   C     C_R   0.185606 0.522299 0.585682 -0.078621
C35   C     C_R   0.767323 0.500406 0.498386 -0.154650
C36   C     C_R   0.232471 0.498846 0.502845 -0.156683
C37   C     C_R   0.811610 0.523157 0.580978 -0.051531
C38   C     C_R   0.187964 0.471107 0.421727 -0.049287
C39   C     C_R   0.904369 0.522573 0.581534 0.040134
C40   C     C_R   0.095253 0.470878 0.421596 0.043230
Cu1   Cu    Cu3+1 0.500000 0.597420 0.500000 0.938435
Cu2   Cu    Cu3+1 0.500000 0.402580 0.500000 0.937228
H1    H     H_    0.913672 0.560608 0.727870 0.174770
H2    H     H_    0.085689 0.415507 0.280359 0.173091
H3    H     H_    0.366266 0.753025 0.536054 0.145874
H4    H     H_    0.634168 0.247088 0.465247 0.144996
H5    H     H_    0.634158 0.751532 0.464738 0.154023
H6    H     H_    0.365227 0.248460 0.531156 0.153560
N1    N     N_R   0.500000 0.743810 0.500000 -0.181050
N2    N     N_R   0.500000 0.256190 0.500000 -0.180748
O1    O     O_R   0.370260 0.582280 0.500020 -0.591592
O2    O     O_R   0.629740 0.417720 0.499980 -0.592715
O3    O     O_R   0.629740 0.582280 0.499980 -0.592418
O4    O     O_R   0.370260 0.417720 0.500020 -0.593394
O5    O     O_R   0.500000 0.582290 0.376050 -0.563640
O6    O     O_R   0.500000 0.417710 0.623950 -0.563679
O7    O     O_R   0.500000 0.582290 0.623950 -0.551806
O8    O     O_R   0.500000 0.417710 0.376050 -0.552413
C41   C     C_R   0.763630 0.460009 0.329280 0.153911
C42   C     C_R   0.734110 0.365844 0.308245 -0.114753
C43   C     C_R   0.698941 0.345019 0.220762 -0.143045
C44   C     C_R   0.692293 0.418498 0.154300 -0.105844
C45   C     C_R   0.716525 0.513917 0.176971 -0.145688
C46   C     C_R   0.751371 0.534978 0.264711 -0.124018
H7    H     H_    0.741187 0.308354 0.358425 0.141075
H8    H     H_    0.678337 0.271643 0.203966 0.123272
H9    H     H_    0.666894 0.401863 0.085787 0.126085
H10   H     H_    0.709694 0.571110 0.126000 0.123273
H11   H     H_    0.772769 0.608254 0.280604 0.118069
C47   C     C_R   0.236491 0.547181 0.670116 0.161513
C48   C     C_R   0.252813 0.476143 0.737736 -0.139751
C49   C     C_R   0.288305 0.503281 0.823631 -0.135564
C50   C     C_R   0.310895 0.600440 0.840766 -0.106356
C51   C     C_R   0.299886 0.670132 0.771321 -0.148947
C52   C     C_R   0.262530 0.643633 0.686280 -0.109049
H12   H     H_    0.233757 0.401237 0.725767 0.113717
H13   H     H_    0.298021 0.449159 0.877069 0.124735
H14   H     H_    0.337987 0.621442 0.907440 0.126287
H15   H     H_    0.318345 0.745058 0.784146 0.123616
H16   H     H_    0.250881 0.698577 0.634442 0.137671
C53   C     C_R   0.760822 0.548184 0.667373 0.092078
C54   C     C_R   0.754410 0.480871 0.740454 -0.178875
C55   C     C_R   0.719218 0.509594 0.827092 -0.141989
C56   C     C_R   0.688910 0.604944 0.840620 -0.110242
C57   C     C_R   0.691928 0.671049 0.766976 -0.148571
C58   C     C_R   0.728090 0.642945 0.680675 -0.118835
H17   H     H_    0.779939 0.407679 0.731325 0.127924
H18   H     H_    0.715997 0.458236 0.883974 0.127691
H19   H     H_    0.662095 0.627216 0.907866 0.126609
H20   H     H_    0.667531 0.744500 0.777187 0.124977
H21   H     H_    0.732356 0.695401 0.624960 0.137632
C59   C     C_R   0.238523 0.443280 0.335957 0.090298
C60   C     C_R   0.273733 0.349117 0.326689 -0.113652
C61   C     C_R   0.311584 0.318583 0.241953 -0.147117
C62   C     C_R   0.313580 0.381504 0.165744 -0.111513
C63   C     C_R   0.279883 0.475977 0.174930 -0.143564
C64   C     C_R   0.242978 0.507179 0.259988 -0.176780
H22   H     H_    0.270424 0.299064 0.384504 0.142782
H23   H     H_    0.338252 0.245720 0.235011 0.125493
H24   H     H_    0.341985 0.357412 0.099798 0.127031
H25   H     H_    0.282024 0.524801 0.115979 0.129541
H26   H     H_    0.215270 0.579720 0.265905 0.128112
N3    N     N_2   0.078028 0.556322 0.757922 -0.412893
H27   H     H_    0.059791 0.502485 0.804073 0.244618
C65   C     C_3   0.068531 0.652537 0.798709 -0.692475
H28   H     H_    0.106710 0.656619 0.864157 0.231216
H29   H     H_    0.998540 0.668833 0.815592 0.208225
H30   H     H_    0.094675 0.707860 0.750133 0.237652
N4    N     N_2   0.921055 0.417771 0.249815 -0.409885
H31   H     H_    0.931756 0.345155 0.234538 0.242567
C66   C     C_3   0.940804 0.479756 0.170884 -0.684938
H32   H     H_    0.899366 0.457983 0.111034 0.230637
H33   H     H_    0.010907 0.472443 0.149201 0.209810
H34   H     H_    0.926405 0.557123 0.188676 0.229077
C67   C     C_R   0.741024 0.892371 0.452490 0.124358
C68   C     C_R   0.766726 0.856853 0.364054 -0.167498
C69   C     C_R   0.839924 0.795554 0.354784 -0.145548
C70   C     C_R   0.886646 0.768066 0.433773 -0.086040
C71   C     C_R   0.861352 0.803637 0.521930 -0.137503
C72   C     C_R   0.789215 0.866245 0.531247 -0.155218
H35   H     H_    0.729037 0.874987 0.302926 0.116792
H36   H     H_    0.859436 0.767873 0.286615 0.116158
H37   H     H_    0.941854 0.718605 0.426582 0.121612
H38   H     H_    0.896092 0.781237 0.583589 0.124526
H39   H     H_    0.768915 0.891488 0.600096 0.120091
C73   C     C_R   0.256932 0.107537 0.534160 0.114680
C74   C     C_R   0.205311 0.118134 0.454500 -0.142754
C75   C     C_R   0.131041 0.178119 0.457374 -0.136627
C76   C     C_R   0.107507 0.227244 0.539934 -0.087078
C77   C     C_R   0.157697 0.215413 0.620070 -0.137387
C78   C     C_R   0.232348 0.155792 0.617368 -0.189371
H40   H     H_    0.224132 0.082287 0.389603 0.123415
H41   H     H_    0.093125 0.187776 0.394830 0.123924
H42   H     H_    0.050869 0.274996 0.541875 0.120786
H43   H     H_    0.139362 0.253432 0.683894 0.118157
H44   H     H_    0.272111 0.148880 0.679145 0.121358
C79   C     C_R   0.255141 0.896118 0.532853 0.102767
C80   C     C_R   0.201586 0.905688 0.613053 -0.132705
C81   C     C_R   0.123197 0.853403 0.620424 -0.153902
C82   C     C_R   0.099540 0.788319 0.549670 -0.105089
C83   C     C_R   0.151446 0.779546 0.468919 -0.130619
C84   C     C_R   0.228222 0.834502 0.459686 -0.174112
H45   H     H_    0.221071 0.952519 0.670263 0.124180
H46   H     H_    0.081896 0.861714 0.682053 0.122310
H47   H     H_    0.041830 0.743581 0.557992 0.126536
H48   H     H_    0.132652 0.729475 0.413976 0.128186
H49   H     H_    0.268145 0.826943 0.396848 0.128627
C85   C     C_R   0.742456 0.103198 0.450678 0.108783
C86   C     C_R   0.779838 0.156984 0.523927 -0.167530
C87   C     C_R   0.855984 0.211490 0.508117 -0.125038
C88   C     C_R   0.896087 0.210997 0.419785 -0.113593
C89   C     C_R   0.860765 0.155499 0.347299 -0.149060
C90   C     C_R   0.783673 0.102377 0.362339 -0.140673
H50   H     H_    0.748743 0.158451 0.592408 0.125365
H51   H     H_    0.883288 0.254962 0.563990 0.125269
H52   H     H_    0.953626 0.254916 0.407003 0.119598
H53   H     H_    0.891822 0.155705 0.278868 0.120823
H54   H     H_    0.755203 0.062259 0.304862 0.118092

loop_
_geom_bond_atom_site_label_1
_geom_bond_atom_site_label_2
_ccdc_geom_bond_type
C2    C35   S    
C38   C40   A    
C79   C84   A    
C73   C74   A    
C27   C29   T    
C69   C70   A    
Cu1   Cu2   S    
C62   C63   A    
C86   H50   S    
C75   C76   A    
Cu2   O8    S    
C6    C9    A    
C53   C54   A    
C57   C58   A    
C15   C19   A    
C65   H29   S    
C41   C46   A    
C17   C23   A    
C44   H9    S    
C55   C56   A    
C18   C24   A    
C61   H23   S    
C56   H19   S    
C35   C37   A    
C80   H45   S    
N4    C66   S    
C48   H12   S    
C22   C73   S    
C67   C68   A    
C38   C59   S    
C68   C69   A    
C10   N4    S    
C50   C51   A    
C90   H54   S    
C70   C71   A    
Cu1   O5    S    
Cu2   O6    S    
C74   H40   S    
C83   C84   A    
C43   H8    S    
N3    C65   S    
C4    C40   A    
C5    C33   A    
C88   C89   A    
C47   C48   A    
C7    H1    S    
C52   H16   S    
C34   C47   S    
C18   C20   A    
C64   H26   S    
C9    N3    S    
C70   H37   S    
C55   H18   S    
C3    C39   A    
C41   C42   A    
C33   C41   S    
C63   H25   S    
C37   C53   S    
C61   C62   A    
Cu1   N1    S    
C59   C64   A    
C22   C23   A    
C37   C39   A    
C65   H30   S    
C51   C52   A    
C45   C46   A    
C25   O5    A    
C82   C83   A    
C4    C6    A    
C78   H44   S    
C24   C85   S    
C13   H5    S    
C72   H39   S    
C17   C19   A    
C14   H6    S    
C71   H38   S    
C50   H14   S    
C6    C34   A    
C42   C43   A    
C69   H36   S    
C49   H13   S    
C11   N1    A    
C81   H46   S    
C31   C32   T    
C16   C20   A    
C63   C64   A    
C44   C45   A    
C53   C58   A    
C66   H33   S    
C60   C61   A    
C88   H52   S    
C56   C57   A    
C1    O1    A    
Cu1   O3    S    
C2    O2    A    
C83   H48   S    
Cu2   N2    S    
C1    O4    A    
C13   N1    A    
C12   H4    S    
C77   H43   S    
C42   H7    S    
C54   C55   A    
C87   H51   S    
C13   C15   A    
C14   C16   A    
C57   H20   S    
C25   O8    A    
C12   C18   A    
C3    C4    A    
C47   C52   A    
C81   C82   A    
C76   C77   A    
C65   H28   S    
C7    C9    A    
C45   H10   S    
C11   C17   A    
C16   C22   A    
C66   H32   S    
C62   H24   S    
C84   H49   S    
C23   C79   S    
C8    H2    S    
C49   C50   A    
C3    C5    A    
C2    O3    A    
C26   O6    A    
C82   H47   S    
C12   N2    A    
C71   C72   A    
C74   C75   A    
C25   C27   S    
C46   H11   S    
C79   C80   A    
C26   C28   S    
C21   C67   S    
C51   H15   S    
C19   C20   A    
C28   C30   T    
C77   C78   A    
Cu1   O7    S    
C5    C10   A    
C29   C31   S    
C86   C87   A    
Cu2   O4    S    
C30   C32   S    
C14   N2    A    
C73   C78   A    
C36   C38   A    
C59   C60   A    
C33   C35   A    
C89   H53   S    
C66   H34   S    
C34   C36   A    
C85   C86   A    
C43   C44   A    
C26   O7    A    
C11   H3    S    
C80   C81   A    
C76   H42   S    
C15   C21   A    
C48   C49   A    
C89   C90   A    
C8    C10   A    
C67   C72   A    
C85   C90   A    
C21   C24   A    
N4    H31   S    
N3    H27   S    
C7    C39   A    
C87   C88   A    
C68   H35   S    
C8    C40   A    
C75   H41   S    
C60   H22   S    
Cu1   O1    S    
C54   H17   S    
C1    C36   S    
Cu2   O2    S    
C58   H21   S    
