data_mof_unit_16884.cif
_audit_creation_date              2012-12-10T18:57:52-0500
_audit_creation_method            fapswitch 2.2
_symmetry_space_group_name_H-M    P1
_symmetry_Int_Tables_number       1
_space_group_crystal_system       triclinic
_cell_length_a                    10.781116
_cell_length_b                    9.865347
_cell_length_c                    8.907992
_cell_angle_alpha                 90.026352
_cell_angle_beta                  90.456109
_cell_angle_gamma                 89.568528
_cell_volume                      947.392173077

loop_
_atom_site_label
_atom_site_type_symbol
_atom_type_description
_atom_site_fract_x
_atom_site_fract_y
_atom_site_fract_z
_atom_type_partial_charge
C1    C     C_R   0.259846 0.500755 0.507869 0.914004
C2    C     C_R   0.740276 0.498895 0.509945 0.908400
C3    C     C_R   0.499914 0.499982 0.218691 0.926331
C4    C     C_R   0.500065 0.500017 0.781314 0.908866
C5    C     C_1   0.499948 0.499972 0.065388 -0.078591
C6    C     C_1   0.500006 0.500025 0.934597 -0.069013
C7    C     C_R   0.067536 0.378903 0.562738 0.129732
C8    C     C_R   0.934599 0.619808 0.556741 0.123590
C9    C     C_R   0.940783 0.372508 0.537193 0.148116
C10   C     C_R   0.059612 0.625028 0.525879 0.128938
C11   C     C_R   0.872786 0.496194 0.534354 -0.250914
C12   C     C_R   0.127924 0.502071 0.530935 -0.251051
C13   C     C_R   0.542168 0.071493 0.621819 0.514291
C14   C     C_R   0.456611 0.928647 0.378675 0.506745
C15   C     C_R   0.455405 0.072057 0.379316 0.507701
C16   C     C_R   0.539733 0.928325 0.622975 0.507136
N1    N     N_R   0.500000 0.857200 0.500000 -0.259908
N2    N     N_R   0.500000 0.142800 0.500000 -0.258463
O1    O     O_R   0.316770 0.614620 0.499990 -0.587419
O2    O     O_R   0.683230 0.385380 0.500010 -0.589290
O3    O     O_R   0.683230 0.614620 0.500010 -0.593481
O4    O     O_R   0.316770 0.385380 0.499990 -0.583706
O5    O     O_R   0.500010 0.614640 0.285340 -0.552099
O6    O     O_R   0.499990 0.385360 0.714660 -0.554164
O7    O     O_R   0.499990 0.614640 0.714660 -0.553796
O8    O     O_R   0.500010 0.385360 0.285340 -0.552794
Zn1   Zn    Zn3+2 0.500000 0.653120 0.500000 1.103214
Zn2   Zn    Zn3+2 0.500000 0.346880 0.500000 1.106138
I1    I     I_    0.157646 0.208464 0.671751 -0.142970
I2    I     I_    0.853426 0.790771 0.669038 -0.093002
I3    I     I_    0.866855 0.173618 0.492906 -0.139215
I4    I     I_    0.129174 0.820688 0.460249 -0.118254
F1    F     F_    0.586936 0.137832 0.743602 -0.551940
F2    F     F_    0.411014 0.862272 0.257364 -0.550314
F3    F     F_    0.407780 0.139221 0.259211 -0.551846
F4    F     F_    0.575647 0.862104 0.749179 -0.550971

loop_
_geom_bond_atom_site_label_1
_geom_bond_atom_site_label_2
_ccdc_geom_bond_type
C14   F2    S    
C15   N2    A    
C13   F1    S    
C7    I1    S    
O5    Zn1   S    
O7    Zn1   S    
O1    Zn1   S    
C3    O5    A    
C8    I2    S    
C2    O3    A    
C4    O7    A    
O3    Zn1   S    
C1    O4    A    
O4    Zn2   S    
C16   F4    S    
C9    C11   A    
C14   N1    A    
C5    C6    T    
C1    C12   S    
C10   C12   A    
C13   N2    A    
C8    C11   A    
C2    C11   S    
C15   F3    S    
C3    O8    A    
C7    C12   A    
C4    O6    A    
C1    O1    A    
C9    I3    S    
C2    O2    A    
N1    Zn1   S    
C10   I4    S    
N2    Zn2   S    
C4    C6    S    
C13   C16   A    
C7    C9    A    
C14   C15   A    
O2    Zn2   S    
O8    Zn2   S    
C8    C10   A    
O6    Zn2   S    
C16   N1    A    
C3    C5    S    
