data_mof_unit_24939.cif
_audit_creation_date              2012-10-26T21:06:32-0400
_audit_creation_method            fapswitch 2.2
_symmetry_space_group_name_H-M    P1
_symmetry_Int_Tables_number       1
_space_group_crystal_system       triclinic
_cell_length_a                    15.863686
_cell_length_b                    10.826447
_cell_length_c                    9.586199
_cell_angle_alpha                 89.400187
_cell_angle_beta                  88.941582
_cell_angle_gamma                 91.881903
_cell_volume                      1645.13451845

loop_
_atom_site_label
_atom_site_type_symbol
_atom_type_description
_atom_site_fract_x
_atom_site_fract_y
_atom_site_fract_z
_atom_type_partial_charge
C1    C     C_R   0.499813 0.262260 0.500384 0.543352
C2    C     C_R   0.553941 0.578183 0.068726 0.117826
C3    C     C_R   0.339909 0.499696 0.501068 0.546971
C4    C     C_R   0.660091 0.500304 0.498932 0.546971
C5    C     C_3   0.967967 0.407354 0.582319 -0.102466
C6    C     C_3   0.032033 0.592649 0.417682 -0.102463
C7    C     C_3   0.025914 0.392585 0.452737 0.029208
C8    C     C_3   0.974086 0.607418 0.547263 0.029208
C9    C     C_1   0.250161 0.499694 0.503251 -0.040090
C10   C     C_1   0.749838 0.500306 0.496750 -0.040090
C11   C     C_3   0.026047 0.515865 0.632150 -0.102621
C12   C     C_R   0.500187 0.737739 0.499616 0.543352
C13   C     C_3   0.973953 0.484137 0.367851 -0.102619
C14   C     C_3   0.082897 0.499865 0.502025 0.040793
C15   C     C_3   0.917103 0.500137 0.497976 0.040792
C16   C     C_1   0.174596 0.499777 0.503456 -0.074334
C17   C     C_1   0.825404 0.500225 0.496545 -0.074335
C18   C     C_R   0.499748 0.065122 0.373465 -0.140603
C19   C     C_R   0.500252 0.934878 0.626535 -0.140603
C20   C     C_3   0.057979 0.269970 0.399238 -0.254284
C21   C     C_3   0.984831 0.183012 0.357443 -0.297535
C22   C     C_3   0.017022 0.060105 0.305578 -0.458939
C23   C     C_R   0.499968 0.937362 0.372993 -0.146190
C24   C     C_3   0.942019 0.730034 0.600756 -0.254281
C25   C     C_3   0.015166 0.817011 0.642511 -0.297537
C26   C     C_3   0.982975 0.939939 0.694314 -0.458945
C27   C     C_3   0.383358 0.330678 0.870746 -0.357764
C28   C     C_3   0.616642 0.669322 0.129254 -0.357764
C29   C     C_R   0.500032 0.062638 0.627007 -0.146190
C30   C     C_R   0.500187 0.871697 0.499508 0.019035
C31   C     C_R   0.499813 0.128303 0.500492 0.019035
C32   C     C_R   0.446819 0.422933 0.079020 0.025367
C33   C     C_R   0.553181 0.577067 0.920980 0.025367
C34   C     C_R   0.446059 0.421817 0.931273 0.117825
Cu1   Cu    Cu3+1 0.500000 0.500020 0.640660 0.924267
Cu2   Cu    Cu3+1 0.500000 0.499980 0.359340 0.924267
H1    H     H_    0.940730 0.330971 0.648846 0.097765
H2    H     H_    0.595481 0.638581 0.860934 0.114084
H3    H     H_    0.057083 0.075009 0.210241 0.149566
H4    H     H_    0.054479 0.015152 0.387333 0.152054
H5    H     H_    0.962728 0.997574 0.280040 0.139766
H6    H     H_    0.941733 0.165206 0.448638 0.157204
H7    H     H_    0.948436 0.226613 0.273192 0.160986
H8    H     H_    0.100629 0.288853 0.307684 0.142097
H9    H     H_    0.094639 0.226049 0.482929 0.140487
H10   H     H_    0.945494 0.984841 0.612557 0.152051
H11   H     H_    0.942938 0.925076 0.789686 0.149568
H12   H     H_    0.059270 0.669030 0.351153 0.097761
H13   H     H_    0.037271 0.002494 0.719773 0.139767
H14   H     H_    0.051563 0.773442 0.726780 0.160985
H15   H     H_    0.058262 0.834790 0.551308 0.157206
H16   H     H_    0.905345 0.773937 0.517071 0.140494
H17   H     H_    0.899380 0.711156 0.692326 0.142091
H18   H     H_    0.381796 0.327618 0.757299 0.200175
H19   H     H_    0.397352 0.236084 0.907738 0.080701
H20   H     H_    0.318856 0.352614 0.907810 0.092553
H21   H     H_    0.618204 0.672382 0.242701 0.200176
H22   H     H_    0.681144 0.647387 0.092189 0.092552
H23   H     H_    0.951587 0.470426 0.259890 0.097199
H24   H     H_    0.602647 0.763916 0.092262 0.080701
H25   H     H_    0.048413 0.529579 0.740111 0.097203
H26   H     H_    0.499536 0.114102 0.274362 0.128397
H27   H     H_    0.500463 0.885898 0.725638 0.128397
H28   H     H_    0.499900 0.890342 0.273808 0.127769
H29   H     H_    0.500099 0.109657 0.726192 0.127769
H30   H     H_    0.404519 0.361419 0.139066 0.114084
N1    N     N_R   0.500020 0.500030 0.852070 -0.224273
N2    N     N_R   0.499980 0.499970 0.147930 -0.224273
O1    O     O_R   0.500000 0.319660 0.618740 -0.518002
O2    O     O_R   0.500000 0.680340 0.381260 -0.518002
O3    O     O_R   0.499990 0.319630 0.381170 -0.508120
O4    O     O_R   0.500010 0.680370 0.618830 -0.508120
O5    O     O_R   0.379080 0.500000 0.618760 -0.506908
O6    O     O_R   0.620920 0.500000 0.381240 -0.506909
O7    O     O_R   0.379080 0.499970 0.381190 -0.495490
O8    O     O_R   0.620920 0.500030 0.618810 -0.495490

loop_
_geom_bond_atom_site_label_1
_geom_bond_atom_site_label_2
_ccdc_geom_bond_type
C24   H16   S    
C5    H1    S    
Cu1   Cu2   S    
C27   H18   S    
C28   H21   S    
C1    O3    A    
C6    H12   S    
C9    C16   T    
C5    C11   S    
C2    N2    A    
C11   C14   S    
C27   H19   S    
C22   H5    S    
C10   C17   T    
C1    C31   S    
C25   H14   S    
C21   H7    S    
C7    C14   S    
C19   H27   S    
C3    O7    A    
C4    O6    A    
C20   H9    S    
Cu2   O3    S    
C32   N2    A    
C12   O4    A    
C21   C22   S    
C20   H8    S    
Cu2   O2    S    
C28   H24   S    
C27   C34   S    
Cu1   O8    S    
C5    C15   S    
C18   C23   A    
C23   C30   A    
C24   C25   S    
C26   H13   S    
C5    C7    S    
C27   H20   S    
C18   H26   S    
C6    C8    S    
C25   C26   S    
C1    O1    A    
C32   C34   A    
C25   H15   S    
C3    C9    S    
Cu2   O7    S    
C6    C14   S    
Cu1   N1    S    
C22   H4    S    
Cu2   O6    S    
C26   H11   S    
C29   H29   S    
C2    C33   A    
C23   H28   S    
Cu1   O4    S    
C8    C15   S    
C13   C15   S    
C14   C16   S    
C4    C10   S    
C19   C29   A    
C33   N1    A    
C32   H30   S    
C15   C17   S    
C12   O2    A    
Cu1   O5    S    
C12   C30   S    
C11   H25   S    
C34   N1    A    
Cu2   N2    S    
C13   H23   S    
C28   H22   S    
C33   H2    S    
C24   H17   S    
C29   C31   A    
C6    C13   S    
C8    C11   S    
C22   H3    S    
C8    C24   S    
C3    O5    A    
C4    O8    A    
C26   H10   S    
C21   H6    S    
C7    C13   S    
C20   C21   S    
Cu1   O1    S    
C7    C20   S    
C2    C28   S    
C18   C31   A    
C19   C30   A    
