data_mof_unit_36639.cif
_audit_creation_date              2012-12-10T20:30:14-0500
_audit_creation_method            fapswitch 2.2
_symmetry_space_group_name_H-M    P1
_symmetry_Int_Tables_number       1
_space_group_crystal_system       triclinic
_cell_length_a                    9.907426
_cell_length_b                    10.729591
_cell_length_c                    13.147834
_cell_angle_alpha                 90.58402
_cell_angle_beta                  70.51764
_cell_angle_gamma                 90.279893
_cell_volume                      1317.55572738

loop_
_atom_site_label
_atom_site_type_symbol
_atom_type_description
_atom_site_fract_x
_atom_site_fract_y
_atom_site_fract_z
_atom_type_partial_charge
C1    C     C_R   0.498794 0.739638 0.502915 0.925103
C2    C     C_R   0.369274 0.493127 0.821288 -0.110163
C3    C     C_R   0.377670 0.936158 0.504812 0.054255
C4    C     C_R   0.420529 0.495585 0.703786 0.841001
C5    C     C_R   0.491490 0.870934 0.517476 -0.112896
C6    C     C_R   0.594092 0.933596 0.550243 -0.226425
C7    C     C_R   0.597217 0.062669 0.551508 0.162642
C8    C     C_R   0.491996 0.128355 0.521802 -0.140766
C9    C     C_R   0.376502 0.063217 0.509090 0.045189
C10   C     C_3   0.310421 0.072139 0.422629 -0.417463
C11   C     C_3   0.312354 0.931143 0.417221 -0.008715
C12   C     C_R   0.434641 0.490521 0.983228 0.093821
C13   C     C_R   0.891469 0.546534 0.586290 0.238728
C14   C     C_R   0.960645 0.441438 0.421197 -0.124694
C15   C     C_R   0.103393 0.439729 0.421020 0.195177
C16   C     C_R   0.498384 0.260061 0.504930 0.898353
C17   C     C_R   0.033436 0.546024 0.586553 0.169280
C18   C     C_3   0.020712 0.674709 0.631991 -0.495791
C19   C     C_3   0.868118 0.676199 0.630203 -0.487512
C20   C     C_R   0.579544 0.500189 0.296308 0.915168
C21   C     C_R   0.768529 0.370990 0.021796 -0.180445
C22   C     C_R   0.628283 0.485231 0.180260 -0.051773
C23   C     C_R   0.459514 0.449975 0.876426 0.070330
C24   C     C_R   0.239181 0.551278 0.878166 -0.189335
C25   C     C_R   0.204011 0.575194 0.987837 -0.134908
C26   C     C_R   0.302003 0.548794 0.039730 -0.148718
C27   C     C_R   0.543105 0.470117 0.029004 0.088056
C28   C     C_R   0.664092 0.395360 0.974157 0.157168
C29   C     C_R   0.676621 0.342762 0.874357 -0.224809
C30   C     C_R   0.574923 0.368839 0.826513 -0.176293
C31   C     C_R   0.534391 0.521804 0.128288 -0.202449
C32   C     C_R   0.749077 0.413768 0.126042 -0.192213
H1    H     H_    0.823052 0.385145 0.166180 0.162849
H2    H     H_    0.853062 0.743178 0.571137 0.214525
H3    H     H_    0.860760 0.313628 0.980830 0.150380
H4    H     H_    0.449556 0.584893 0.170681 0.173574
H5    H     H_    0.269212 0.572215 0.124391 0.155320
H6    H     H_    0.103147 0.619494 0.031844 0.156048
H7    H     H_    0.586240 0.323644 0.750409 0.192694
H8    H     H_    0.676792 0.882926 0.568823 0.178529
H9    H     H_    0.167252 0.582474 0.837136 0.154207
H10   H     H_    0.200343 0.111225 0.453805 0.221532
H11   H     H_    0.383693 0.116758 0.348866 0.242481
H12   H     H_    0.203176 0.890158 0.444561 0.150032
H13   H     H_    0.932716 0.395754 0.357172 0.172442
H14   H     H_    0.026640 0.676373 0.714926 0.200561
H15   H     H_    0.092512 0.741878 0.575561 0.215870
H16   H     H_    0.786037 0.680536 0.711985 0.212708
H17   H     H_    0.765409 0.281926 0.832968 0.174100
I1    I     I_    0.774135 0.140068 0.589091 -0.428987
I2    I     I_    0.451204 0.861697 0.264238 -0.386540
I3    I     I_    0.240058 0.333687 0.291514 -0.390843
N1    N     N_R   0.856940 0.500860 0.500710 -0.119790
N2    N     N_R   0.142580 0.500820 0.500710 -0.124231
O1    O     O_R   0.385310 0.683210 0.499990 -0.613928
O2    O     O_R   0.614650 0.683240 0.500000 -0.620387
O3    O     O_R   0.328390 0.499940 0.653610 -0.616490
O4    O     O_R   0.557730 0.499980 0.653620 -0.612653
O5    O     O_R   0.385350 0.316760 0.500000 -0.596434
O6    O     O_R   0.614690 0.316790 0.500010 -0.591623
O7    O     O_R   0.442270 0.500020 0.346380 -0.579802
O8    O     O_R   0.671610 0.500060 0.346390 -0.623342
Zn1   Zn    Zn3+2 0.346870 0.499980 0.499990 0.980337
Zn2   Zn    Zn3+2 0.653130 0.500020 0.500010 0.967957

loop_
_geom_bond_atom_site_label_1
_geom_bond_atom_site_label_2
_ccdc_geom_bond_type
C4    O3    A    
C2    C4    S    
O2    Zn2   S    
C26   H5    S    
C29   C30   A    
C21   H3    S    
C25   H6    S    
C10   H10   S    
C9    C10   S    
C20   O7    A    
O5    Zn1   S    
C14   C15   A    
C13   C17   A    
O6    Zn2   S    
C32   H1    S    
C2    C23   A    
C17   C18   S    
C1    O1    A    
C11   H12   S    
C8    C16   S    
C29   H17   S    
C15   I3    S    
C18   H15   S    
C2    C24   A    
C24   H9    S    
C12   C23   A    
C14   N1    A    
C6    C7    A    
C22   C32   A    
C3    C9    A    
C18   H14   S    
C28   C29   A    
N1    Zn2   S    
C21   C28   A    
C20   C22   S    
C30   H7    S    
O3    Zn1   S    
C14   H13   S    
C13   N1    A    
C10   C11   S    
C16   O5    A    
C20   O8    A    
C5    C6    A    
C21   C32   A    
C1    C5    S    
C3    C11   S    
C22   C31   A    
C13   C19   S    
C12   C27   A    
C27   C31   A    
C23   C30   A    
C7    C8    A    
C6    H8    S    
C11   I2    S    
C24   C25   A    
C15   N2    A    
N2    Zn1   S    
C12   C26   A    
C4    O4    A    
C27   C28   A    
O7    Zn1   S    
C31   H4    S    
C18   C19   S    
O8    Zn2   S    
O4    Zn2   S    
C25   C26   A    
C19   H16   S    
C16   O6    A    
C17   N2    A    
C1    O2    A    
C7    I1    S    
C10   H11   S    
C8    C9    A    
C3    C5    A    
C19   H2    S    
O1    Zn1   S    
