data_mof_unit_27946.cif
_audit_creation_date              2012-12-11T17:07:35-0500
_audit_creation_method            fapswitch 2.2
_symmetry_space_group_name_H-M    P1
_symmetry_Int_Tables_number       1
_space_group_crystal_system       triclinic
_cell_length_a                    6.960895
_cell_length_b                    14.486181
_cell_length_c                    16.110431
_cell_angle_alpha                 90.043662
_cell_angle_beta                  90.163526
_cell_angle_gamma                 89.818511
_cell_volume                      1624.50883841

loop_
_atom_site_label
_atom_site_type_symbol
_atom_type_description
_atom_site_fract_x
_atom_site_fract_y
_atom_site_fract_z
_atom_type_partial_charge
O1    O     O_R   0.505720 0.583900 0.413310 -0.537377
O2    O     O_R   0.175940 0.594920 0.586080 -0.546589
O3    O     O_R   0.005640 0.416100 0.586690 -0.536134
C1    C     C_R   0.344643 0.616813 0.614940 0.696410
O4    O     O_R   0.176000 0.594930 0.413930 -0.544036
O5    O     O_R   0.005700 0.416110 0.413310 -0.538178
C2    C     C_R   0.344480 0.616764 0.385011 0.691226
O6    O     O_R   0.505660 0.583890 0.586690 -0.536487
O7    O     O_3   0.339200 0.441330 0.500000 -0.364402
V1    V     V_3+5 0.064350 0.510880 0.500000 1.389720
O8    O     O_R   0.675980 0.405080 0.413920 -0.541543
C3    C     C_R   0.845018 0.383092 0.385109 0.690681
O9    O     O_R   0.675920 0.405070 0.586070 -0.537369
C4    C     C_R   0.845497 0.383303 0.614626 0.696239
V2    V     V_3+5 0.564340 0.489120 0.500000 1.405331
O10   O     O_3   0.839360 0.558670 0.500000 -0.373935
H1    H     H_    0.643481 0.076979 0.518481 0.110496
C5    C     C_R   0.996235 0.434492 0.775861 -0.152816
C6    C     C_R   0.057059 0.463498 0.853845 -0.213031
C7    C     C_R   0.034626 0.406194 0.921959 -0.179083
C8    C     C_R   0.954824 0.318321 0.912600 0.418567
C9    C     C_R   0.920649 0.281813 0.831640 -0.033125
C10   C     C_R   0.926954 0.343782 0.762934 0.029637
C11   C     C_R   0.873345 0.187380 0.818153 -0.195561
C12   C     C_R   0.812608 0.158245 0.738003 0.063060
C13   C     C_R   0.801760 0.222648 0.671363 0.075764
C14   C     C_R   0.858489 0.315489 0.683817 -0.163322
C15   C     C_R   0.762484 0.065099 0.722469 -0.146925
C16   C     C_R   0.701280 0.036580 0.644171 -0.123875
C17   C     C_R   0.690001 0.099555 0.579362 -0.121639
C18   C     C_R   0.740367 0.191436 0.592320 -0.137631
H2    H     H_    0.005013 0.484254 0.726178 0.120113
H3    H     H_    0.112773 0.532592 0.862197 0.136535
H4    H     H_    0.068908 0.432147 0.983206 0.124520
H5    H     H_    0.770052 0.013134 0.770417 0.102452
H6    H     H_    0.663173 0.965103 0.633672 0.115245
H7    H     H_    0.732791 0.237153 0.539352 0.102472
C19   C     C_R   0.730603 0.180037 0.243548 0.081789
C20   C     C_R   0.883358 0.180344 0.187057 -0.114836
C21   C     C_R   0.034167 0.242776 0.202303 -0.160707
H8    H     H_    0.155941 0.245019 0.161037 0.140565
C22   C     C_R   0.022299 0.307831 0.267162 -0.193046
H9    H     H_    0.136207 0.357860 0.274102 0.131039
C23   C     C_R   0.859130 0.312425 0.318731 -0.111987
C24   C     C_R   0.718269 0.244757 0.307360 0.100461
C25   C     C_3   0.506630 0.254930 0.296519 -0.404110
C26   C     C_3   0.519788 0.183223 0.227819 -0.402782
H10   H     H_    0.466692 0.324753 0.273587 0.171870
H11   H     H_    0.425644 0.230581 0.351643 0.174768
H12   H     H_    0.485010 0.210719 0.165281 0.173784
H13   H     H_    0.448508 0.117013 0.243697 0.165058
C27   C     C_R   0.511128 0.745781 0.690874 0.099111
C28   C     C_R   0.352799 0.687287 0.681580 -0.105728
C29   C     C_R   0.199775 0.698688 0.737617 -0.183333
H14   H     H_    0.075753 0.654472 0.733357 0.129164
C30   C     C_R   0.211653 0.762438 0.803518 -0.183828
H15   H     H_    0.095284 0.766257 0.847674 0.130056
C31   C     C_R   0.377524 0.816287 0.815628 -0.103375
C32   C     C_R   0.523477 0.808641 0.756350 0.097452
C33   C     C_3   0.731535 0.788604 0.769045 -0.423246
C34   C     C_3   0.718078 0.720922 0.697360 -0.398304
H16   H     H_    0.759830 0.754651 0.829745 0.172725
H17   H     H_    0.823631 0.849043 0.755066 0.170315
H18   H     H_    0.739786 0.647817 0.716354 0.168830
H19   H     H_    0.800503 0.742922 0.641820 0.172737
C35   C     C_R   0.505648 0.681255 0.257979 0.097516
C36   C     C_R   0.352081 0.681932 0.314121 -0.112246
C37   C     C_R   0.201212 0.744627 0.298519 -0.178932
H20   H     H_    0.078956 0.747424 0.339623 0.132149
C38   C     C_R   0.213015 0.809000 0.233182 -0.178668
H21   H     H_    0.098726 0.859088 0.225778 0.125149
C39   C     C_R   0.376299 0.812841 0.181609 -0.110315
C40   C     C_R   0.517708 0.745148 0.193545 0.103306
C41   C     C_3   0.729066 0.755587 0.204666 -0.409245
C42   C     C_3   0.716086 0.685482 0.274545 -0.396246
H22   H     H_    0.768016 0.825925 0.226377 0.165420
H23   H     H_    0.810982 0.729942 0.150148 0.174670
H24   H     H_    0.748492 0.714888 0.336752 0.170663
H25   H     H_    0.789584 0.619135 0.260208 0.166874
O11   O     O_R   0.229140 0.916090 0.913340 -0.541048
O12   O     O_R   0.558860 0.905090 0.086080 -0.541078
O13   O     O_R   0.729100 0.083920 0.086690 -0.545720
C43   C     C_R   0.390092 0.883122 0.114949 0.688789
O14   O     O_R   0.558860 0.905090 0.913930 -0.542230
O15   O     O_R   0.729100 0.083920 0.913310 -0.543299
C44   C     C_R   0.389904 0.882714 0.885457 0.697492
O16   O     O_R   0.229140 0.916080 0.086720 -0.542580
O17   O     O_3   0.395570 0.058660 0.000020 -0.373664
V3    V     V_3+5 0.670450 0.989140 0.000000 1.388766
O18   O     O_R   0.058810 0.094980 0.913910 -0.530210
C45   C     C_R   0.888777 0.118305 0.886489 0.783473
O19   O     O_R   0.058810 0.094980 0.086060 -0.538179
C46   C     C_R   0.890359 0.115749 0.115741 0.750955
V4    V     V_3+5 0.170450 0.010950 0.999970 1.413641
O20   O     O_3   0.895460 0.941370 0.999990 -0.377448
O21   O     O_3   0.889098 0.274211 0.983087 -0.591713
C47   C     C_3   0.693648 0.299091 0.996226 0.060477
H26   H     H_    0.616315 0.237144 0.018518 0.155275
H27   H     H_    0.616245 0.321004 0.938539 0.116472
C48   C     C_3   0.677098 0.374573 0.062735 -0.326945
H28   H     H_    0.732377 0.348078 0.122795 0.212527
H29   H     H_    0.763862 0.435493 0.045121 0.194714
C49   C     C_3   0.469431 0.406096 0.073820 -0.850163
H30   H     H_    0.417942 0.440795 0.016461 0.236987
H31   H     H_    0.460512 0.455881 0.126139 0.227716
H32   H     H_    0.375084 0.346497 0.087481 0.227048

loop_
_geom_bond_atom_site_label_1
_geom_bond_atom_site_label_2
_ccdc_geom_bond_type
C43   O16   A    
C1    C28   S    
C40   C41   S    
C6    C7    A    
C1    O6    A    
C47   H26   S    
O15   C45   A    
C28   C29   A    
C23   C24   A    
C12   C15   A    
C16   H6    S    
C13   C14   A    
O13   V3    S    
C41   H22   S    
C33   H17   S    
O19   C46   A    
C15   C16   A    
O14   C44   A    
C27   C34   S    
O5    C3    A    
C17   C18   A    
V2    O10   S    
O16   V4    S    
C30   H15   S    
C33   H16   S    
C5    C6    A    
C20   C46   S    
C19   C24   A    
O11   C44   A    
O12   C43   A    
C29   H14   S    
O8    V2    S    
C15   H5    S    
C37   H20   S    
C41   H23   S    
C38   H21   S    
O1    V2    S    
C10   C14   A    
C4    C14   S    
O7    V1    S    
O12   V3    S    
C21   C22   A    
C35   C36   A    
C32   C33   S    
O13   C46   A    
C8    C9    A    
H1    C17   S    
C22   C23   A    
C31   C44   S    
C48   H29   S    
C47   H27   S    
O18   V4    S    
C26   H12   S    
C29   C30   A    
O17   V4    S    
C41   C42   S    
C36   C37   A    
C11   C12   A    
C6    H3    S    
C20   C21   A    
O4    C2    A    
O15   V3    S    
C26   H13   S    
C12   C13   A    
C24   C25   S    
C35   C40   A    
C48   C49   S    
C5    C10   A    
C18   H7    S    
C33   C34   S    
V3    O20   S    
C34   H18   S    
O2    C1    A    
C16   C17   A    
C27   C32   A    
C25   H11   S    
O21   C47   S    
O19   V4    S    
C49   H31   S    
C7    C8    A    
C19   C26   S    
O3    C4    A    
C21   H8    S    
O6    V2    S    
O9    V2    S    
C9    C11   A    
C5    H2    S    
C22   H9    S    
O11   V4    S    
O2    V1    S    
C11   C45   S    
C47   C48   S    
C27   C28   A    
C25   C26   S    
O1    C2    A    
C39   C40   A    
O5    V1    S    
O8    C3    A    
C8    O21   S    
C31   C32   A    
C7    H4    S    
O4    V1    S    
C3    C23   S    
O3    V1    S    
V1    O10   S    
O18   C45   A    
C19   C20   A    
C35   C42   S    
C48   H28   S    
C30   C31   A    
C49   H32   S    
O7    V2    S    
V4    O20   S    
C42   H24   S    
C39   C43   S    
C2    C36   S    
C25   H10   S    
C34   H19   S    
C13   C18   A    
O17   V3    S    
C37   C38   A    
O14   V3    S    
C49   H30   S    
C9    C10   A    
C38   C39   A    
O9    C4    A    
C42   H25   S    
