data_mof_unit_19063.cif
_audit_creation_date              2012-12-10T20:50:09-0500
_audit_creation_method            fapswitch 2.2
_symmetry_space_group_name_H-M    P1
_symmetry_Int_Tables_number       1
_space_group_crystal_system       triclinic
_cell_length_a                    19.136302
_cell_length_b                    8.931943
_cell_length_c                    8.097046
_cell_angle_alpha                 89.998393
_cell_angle_beta                  90.230617
_cell_angle_gamma                 89.890661
_cell_volume                      1383.96866316

loop_
_atom_site_label
_atom_site_type_symbol
_atom_type_description
_atom_site_fract_x
_atom_site_fract_y
_atom_site_fract_z
_atom_type_partial_charge
C1    C     C_R   0.499983 0.217952 0.500012 0.929451
C2    C     C_R   0.256257 0.596661 0.366963 0.443748
C3    C     C_R   0.178055 0.495232 0.637264 -0.265545
C4    C     C_R   0.822588 0.503150 0.365809 -0.261163
C5    C     C_R   0.813994 0.629813 0.629776 -0.267197
C6    C     C_R   0.184680 0.624315 0.374388 -0.262853
C7    C     C_R   0.145602 0.573384 0.508337 -0.050241
C8    C     C_R   0.854072 0.578926 0.497562 -0.047137
C9    C     C_R   0.289164 0.519630 0.498333 -0.267408
C10   C     C_R   0.710516 0.525855 0.500493 -0.260533
C11   C     C_R   0.929493 0.595378 0.501552 0.341875
C12   C     C_R   0.499987 0.782043 0.500006 0.927093
C13   C     C_R   0.070184 0.592540 0.507431 0.339998
C14   C     C_3   0.277713 0.233111 0.722712 -0.293333
C15   C     C_3   0.721716 0.472116 0.091646 -0.157574
C16   C     C_3   0.687414 0.813112 0.730985 -0.276621
C17   C     C_3   0.282111 0.580051 0.093452 -0.162503
C18   C     C_R   0.364954 0.502398 0.499524 0.932640
C19   C     C_R   0.635051 0.502954 0.500293 0.932974
C20   C     C_1   0.500001 0.065175 0.500047 -0.190777
C21   C     C_1   0.500004 0.934807 0.500039 -0.194256
C22   C     C_R   0.249351 0.465094 0.631516 0.451236
C23   C     C_R   0.750714 0.477304 0.365098 0.443537
C24   C     C_R   0.742099 0.607301 0.630349 0.449581
H1    H     H_    0.147966 0.453651 0.740592 0.176638
H2    H     H_    0.775531 0.479383 0.041205 0.152187
H3    H     H_    0.653351 0.854401 0.831795 0.196345
H4    H     H_    0.658240 0.827722 0.612746 0.146108
H5    H     H_    0.735572 0.882743 0.731054 0.161379
H6    H     H_    0.291523 0.457711 0.109056 0.176044
H7    H     H_    0.318740 0.620663 0.997568 0.205107
H8    H     H_    0.228142 0.600648 0.047324 0.148016
H9    H     H_    0.854161 0.458602 0.266468 0.173987
H10   H     H_    0.838247 0.688277 0.732266 0.174502
H11   H     H_    0.159846 0.687856 0.276358 0.173297
H12   H     H_    0.302879 0.170371 0.825216 0.197872
H13   H     H_    0.307178 0.207174 0.607852 0.150407
H14   H     H_    0.222822 0.193062 0.711919 0.164189
H15   H     H_    0.698803 0.586160 0.105919 0.176273
H16   H     H_    0.689306 0.411443 0.999637 0.201949
N1    N     N_1   0.500000 0.500000 0.073640 -0.028038
N2    N     N_1   0.500000 0.500000 0.926360 -0.027174
N3    N     N_R   0.035281 0.600477 0.361763 -0.176039
N4    N     N_R   0.964330 0.591579 0.647558 -0.173825
N5    N     N_R   0.966004 0.601337 0.358804 -0.175005
N6    N     N_R   0.033675 0.589597 0.650451 -0.176351
O1    O     O_R   0.500000 0.285350 0.636850 -0.621183
O2    O     O_3   0.720655 0.391394 0.241419 -0.611995
O3    O     O_3   0.703206 0.661262 0.761053 -0.617251
O4    O     O_3   0.295240 0.659300 0.241011 -0.608058
O5    O     O_R   0.500000 0.714650 0.363150 -0.609825
O6    O     O_R   0.500000 0.714650 0.636850 -0.621861
O7    O     O_R   0.500000 0.285350 0.363150 -0.613251
O8    O     O_R   0.398140 0.500000 0.636920 -0.585341
O9    O     O_R   0.601860 0.500000 0.363080 -0.596478
O10   O     O_R   0.601860 0.500000 0.636920 -0.585215
O11   O     O_R   0.398140 0.500000 0.363080 -0.591117
O12   O     O_3   0.280194 0.387150 0.760061 -0.616314
Zn1   Zn    Zn3+2 0.500000 0.500000 0.682780 1.010133
Zn2   Zn    Zn3+2 0.500000 0.500000 0.317220 1.014900

loop_
_geom_bond_atom_site_label_1
_geom_bond_atom_site_label_2
_ccdc_geom_bond_type
N2    Zn1   S    
C22   O12   S    
C17   O4    S    
C15   H2    S    
C16   H4    S    
C6    C7    A    
O5    Zn2   S    
O6    Zn1   S    
C10   C23   A    
C14   H14   S    
N1    N2    T    
C18   O11   A    
O10   Zn1   S    
C13   N3    A    
C10   C19   S    
C4    C8    A    
C5    H10   S    
C20   C21   T    
C16   H3    S    
C7    C13   S    
O11   Zn2   S    
C11   N4    A    
O9    Zn2   S    
C16   O3    S    
C14   H13   S    
C17   H6    S    
N3    N5    A    
C15   H15   S    
C2    C6    A    
C5    C24   A    
C15   O2    S    
C8    C11   S    
C14   O12   S    
C12   O6    A    
O7    Zn2   S    
N4    N6    A    
C19   O10   A    
C3    C7    A    
O8    Zn1   S    
C14   H12   S    
C13   N6    A    
C17   H7    S    
C15   H16   S    
C11   N5    A    
C5    C8    A    
C18   O8    A    
O1    Zn1   S    
C9    C18   S    
C3    H1    S    
C12   O5    A    
C6    H11   S    
C9    C22   A    
C19   O9    A    
C24   O3    S    
C17   H8    S    
C4    C23   A    
C1    O7    A    
C4    H9    S    
C1    O1    A    
C3    C22   A    
C23   O2    S    
C2    O4    S    
C10   C24   A    
C16   H5    S    
C2    C9    A    
C12   C21   S    
N1    Zn2   S    
C1    C20   S    
