data_mof_unit_17981.cif
_audit_creation_date              2012-10-26T21:12:33-0400
_audit_creation_method            fapswitch 2.2
_symmetry_space_group_name_H-M    P1
_symmetry_Int_Tables_number       1
_space_group_crystal_system       triclinic
_cell_length_a                    23.5171
_cell_length_b                    10.908564
_cell_length_c                    9.567021
_cell_angle_alpha                 91.642672
_cell_angle_beta                  90.377338
_cell_angle_gamma                 92.836659
_cell_volume                      2450.2089856

loop_
_atom_site_label
_atom_site_type_symbol
_atom_type_description
_atom_site_fract_x
_atom_site_fract_y
_atom_site_fract_z
_atom_type_partial_charge
C1    C     C_R   0.503105 0.262610 0.497926 0.549062
C2    C     C_R   0.122313 0.611408 0.492312 0.402486
C3    C     C_R   0.242372 0.557575 0.619332 -0.062583
C4    C     C_R   0.390897 0.498077 0.499434 0.556953
C5    C     C_R   0.301446 0.555061 0.613489 -0.155615
C6    C     C_R   0.328093 0.497967 0.499473 0.019506
C7    C     C_R   0.294018 0.441042 0.390400 -0.021998
C8    C     C_R   0.234581 0.443890 0.398547 -0.033609
C9    C     C_R   0.208854 0.502035 0.512007 0.227226
C10   C     C_R   0.761875 0.515147 0.380166 -0.056370
C11   C     C_R   0.702517 0.513158 0.377554 -0.147500
C12   C     C_R   0.964933 0.289492 0.569508 -0.122016
C13   C     C_R   0.671692 0.502809 0.502433 0.001312
C14   C     C_R   0.701313 0.494924 0.629780 -0.148829
C15   C     C_R   0.760597 0.496474 0.631983 -0.056660
C16   C     C_R   0.497941 0.737689 0.502953 0.538672
C17   C     C_R   0.791054 0.506442 0.507301 0.242547
C18   C     C_R   0.554541 0.133347 0.729205 -0.084023
C19   C     C_R   0.558049 0.082313 0.860458 -0.123893
C20   C     C_R   0.532040 0.967699 0.882563 -0.133896
C21   C     C_R   0.508076 0.898714 0.770149 -0.103046
C22   C     C_R   0.509247 0.944461 0.632762 0.020340
C23   C     C_R   0.024245 0.289058 0.571160 -0.122811
C24   C     C_R   0.524362 0.069967 0.618000 0.014987
C25   C     C_R   0.507796 0.128545 0.494382 0.005298
C26   C     C_R   0.489312 0.056140 0.375190 -0.028520
C27   C     C_R   0.486619 0.929299 0.383481 -0.134246
C28   C     C_R   0.609052 0.500827 0.500515 0.536848
C29   C     C_R   0.496064 0.871993 0.509606 -0.020385
C30   C     C_R   0.577630 0.660649 0.150069 -0.096315
C31   C     C_R   0.616469 0.736275 0.080233 -0.182243
C32   C     C_R   0.616582 0.735281 0.936216 -0.172117
C33   C     C_R   0.577546 0.659370 0.861291 -0.103401
C34   C     C_R   0.057230 0.396746 0.544957 0.029203
C35   C     C_R   0.538133 0.578587 0.928033 0.142503
C36   C     C_R   0.538127 0.578842 0.077816 0.157215
C37   C     C_R   0.464130 0.424275 0.070866 -0.015300
C38   C     C_R   0.464061 0.424437 0.922815 -0.003144
C39   C     C_R   0.883105 0.612924 0.484655 0.400756
C40   C     C_R   0.877800 0.399958 0.538050 0.401084
C41   C     C_R   0.937376 0.397590 0.541471 0.029013
C42   C     C_R   0.970033 0.506211 0.515567 -0.028077
C43   C     C_R   0.942821 0.615052 0.487088 0.029200
C44   C     C_3   0.471849 0.108964 0.237739 -0.374082
C45   C     C_R   0.030044 0.505855 0.517612 -0.028010
C46   C     C_3   0.319326 0.374598 0.267227 -0.383476
C47   C     C_R   0.062724 0.614438 0.491597 0.029106
C48   C     C_R   0.035155 0.722670 0.464206 -0.121968
C49   C     C_R   0.975823 0.722956 0.461886 -0.122629
C50   C     C_R   0.116906 0.398169 0.544422 0.400360
Cu1   Cu    Cu3+1 0.500000 0.499990 0.640660 0.911236
Cu2   Cu    Cu3+1 0.500000 0.500010 0.359340 0.915354
H1    H     H_    0.940792 0.204814 0.589829 0.171055
H2    H     H_    0.434905 0.362051 0.123678 0.100952
H3    H     H_    0.044118 0.204036 0.592587 0.168850
H4    H     H_    0.580722 0.670972 0.260456 0.186017
H5    H     H_    0.646297 0.797169 0.138637 0.134937
H6    H     H_    0.646248 0.795889 0.881877 0.140891
H7    H     H_    0.579337 0.670045 0.751527 0.189708
H8    H     H_    0.434641 0.362489 0.864847 0.127176
H9    H     H_    0.059302 0.807348 0.443927 0.170884
H10   H     H_    0.955944 0.807877 0.440018 0.168916
H11   H     H_    0.222562 0.602441 0.707527 0.136409
H12   H     H_    0.680862 0.519834 0.278012 0.132334
H13   H     H_    0.326467 0.599155 0.697938 0.131396
H14   H     H_    0.207819 0.401100 0.316445 0.129837
H15   H     H_    0.785247 0.522688 0.283398 0.131058
H16   H     H_    0.458349 0.036539 0.158730 0.110441
H17   H     H_    0.434954 0.167212 0.253854 0.142097
H18   H     H_    0.508236 0.162584 0.192372 0.156161
H19   H     H_    0.348794 0.305740 0.304168 0.136881
H20   H     H_    0.286050 0.325068 0.201314 0.126151
H21   H     H_    0.342346 0.441597 0.200225 0.151831
H22   H     H_    0.678752 0.487108 0.727705 0.132829
H23   H     H_    0.782966 0.489957 0.730585 0.130696
H24   H     H_    0.575801 0.222393 0.715911 0.146537
H25   H     H_    0.579311 0.133446 0.946017 0.116215
H26   H     H_    0.531455 0.930877 0.986473 0.123058
H27   H     H_    0.486541 0.813086 0.795745 0.154267
H28   H     H_    0.475317 0.874292 0.290311 0.143042
N1    N     N_R   0.852011 0.506461 0.509832 -0.399800
N2    N     N_R   0.148023 0.504245 0.517712 -0.400634
N3    N     N_R   0.500540 0.501210 0.147910 -0.242218
N4    N     N_R   0.500560 0.501290 0.852040 -0.249220
O1    O     O_R   0.500000 0.319640 0.618810 -0.506939
O2    O     O_R   0.582120 0.500020 0.618760 -0.527063
O3    O     O_R   0.582120 0.500050 0.381190 -0.518173
O4    O     O_2   0.856280 0.716418 0.458280 -0.492087
O5    O     O_2   0.845834 0.296563 0.561676 -0.490384
O6    O     O_2   0.143701 0.294542 0.570393 -0.491031
O7    O     O_2   0.154328 0.714172 0.466193 -0.489160
O8    O     O_R   0.500000 0.319660 0.381240 -0.504240
O9    O     O_R   0.417880 0.499950 0.618810 -0.500276
O10   O     O_R   0.417880 0.499980 0.381240 -0.497049
O11   O     O_R   0.500000 0.680340 0.618760 -0.533432
O12   O     O_R   0.500000 0.680360 0.381190 -0.522424

loop_
_geom_bond_atom_site_label_1
_geom_bond_atom_site_label_2
_ccdc_geom_bond_type
C15   H23   S    
C8    H14   S    
C22   C29   A    
C27   C29   A    
C41   C42   A    
C19   C20   A    
C32   H6    S    
Cu1   O1    S    
C26   C44   S    
C7    C8    A    
C10   H15   S    
C12   C23   A    
C26   C27   A    
C37   C38   A    
C18   C24   A    
C5    C6    A    
C14   H22   S    
C30   C31   A    
C10   C17   A    
C18   C19   A    
C19   H25   S    
C50   O6    S    
C47   C48   A    
C8    C9    A    
C13   C28   S    
C44   H18   S    
C40   O5    S    
C46   H20   S    
C12   H1    S    
C9    N2    S    
C33   H7    S    
C13   C14   A    
C1    C25   S    
C39   O4    S    
Cu1   O2    S    
C45   C47   A    
C1    O1    A    
C16   O12   A    
C34   C50   A    
Cu1   Cu2   S    
C7    C46   S    
C24   C25   A    
C39   N1    A    
C4    C6    S    
C27   H28   S    
C43   C49   A    
C39   C43   A    
C25   C26   A    
C30   H4    S    
C42   C45   A    
Cu2   N3    S    
C12   C41   A    
C3    C9    A    
C31   C32   A    
C23   C34   A    
C21   H27   S    
C28   O3    A    
C44   H17   S    
C34   C45   A    
Cu2   O10   S    
C46   H19   S    
Cu1   O9    S    
C38   H8    S    
C37   H2    S    
C5    H13   S    
C48   C49   A    
C11   H12   S    
C1    O8    A    
C28   O2    A    
C22   C24   A    
C2    N2    A    
C42   C43   A    
C50   N2    A    
C15   C17   A    
C40   C41   A    
C16   O11   A    
C18   H24   S    
C49   H10   S    
C38   N4    A    
C40   N1    A    
Cu2   O3    S    
C3    C5    A    
C35   N4    A    
C23   H3    S    
C6    C7    A    
C3    H11   S    
C2    C47   A    
C30   C36   A    
C32   C33   A    
C31   H5    S    
C16   C29   S    
C11   C13   A    
C48   H9    S    
C4    O10   A    
C20   H26   S    
C33   C35   A    
Cu2   O12   S    
C17   N1    S    
C46   H21   S    
C2    O7    S    
C44   H16   S    
C10   C11   A    
C4    O9    A    
C20   C21   A    
C14   C15   A    
C37   N3    A    
C35   C36   A    
C36   N3    A    
C21   C22   A    
Cu1   N4    S    
Cu2   O8    S    
Cu1   O11   S    
