data_mof_unit_65265.cif
_audit_creation_date              2012-12-10T18:08:33-0500
_audit_creation_method            fapswitch 2.2
_symmetry_space_group_name_H-M    P1
_symmetry_Int_Tables_number       1
_space_group_crystal_system       triclinic
_cell_length_a                    18.366846
_cell_length_b                    18.366967
_cell_length_c                    51.428261
_cell_angle_alpha                 90.000036
_cell_angle_beta                  90.003786
_cell_angle_gamma                 90.056747
_cell_volume                      17348.9683856

loop_
_atom_site_label
_atom_site_type_symbol
_atom_type_description
_atom_site_fract_x
_atom_site_fract_y
_atom_site_fract_z
_atom_type_partial_charge
C1    C     C_R   1.000000 0.500000 0.820210 0.800538
C2    C     C_R   0.066295 0.498156 0.362792 -0.203831
C3    C     C_R   0.196366 0.696368 0.750000 0.001435
C4    C     C_R   0.303621 0.196378 0.250000 0.002074
C5    C     C_R   0.696378 0.803622 0.750000 0.002143
C6    C     C_R   0.196368 0.696368 0.250001 0.001348
C7    C     C_R   0.803632 0.303633 0.750000 0.001559
C8    C     C_R   0.533512 0.055446 0.944833 0.532276
C9    C     C_R   0.466914 0.944289 0.055170 0.536174
C10   C     C_R   0.944307 0.466880 0.944826 0.536237
C11   C     C_R   0.055385 0.533579 0.055167 0.532500
C12   C     C_R   0.466497 0.944548 0.944831 0.532324
C13   C     C_R   0.502291 0.933908 0.637169 -0.203747
C14   C     C_R   0.533064 0.055710 0.055172 0.536215
C15   C     C_R   0.055657 0.533148 0.944831 0.536071
C16   C     C_R   0.944548 0.466467 0.055168 0.532250
C17   C     C_R   0.032057 0.558039 0.444833 0.532364
C18   C     C_R   0.970520 0.443962 0.555178 0.536912
C19   C     C_R   0.441694 0.967396 0.444830 0.536372
C20   C     C_R   0.554721 0.031329 0.555149 0.536873
C21   C     C_R   0.970560 0.443976 0.444787 0.528668
C22   C     C_R   0.030877 0.558604 0.555185 0.536083
C23   C     C_R   0.554325 0.031469 0.444809 0.529603
C24   C     C_R   0.495540 0.065710 0.362890 -0.203194
C25   C     C_R   0.442025 0.967408 0.555198 0.532364
C26   C     C_R   0.461193 0.945490 0.972348 -0.081805
C27   C     C_R   0.538497 0.054752 0.027656 -0.079841
C28   C     C_R   0.054690 0.538575 0.972347 -0.079964
C29   C     C_R   0.945481 0.461184 0.027649 -0.081851
C30   C     C_R   0.538805 0.054508 0.972351 -0.081819
C31   C     C_R   0.461495 0.945240 0.027653 -0.079889
C32   C     C_R   0.945256 0.461465 0.972343 -0.079824
C33   C     C_R   0.054410 0.538912 0.027651 -0.081732
C34   C     C_R   0.965881 0.444158 0.472333 -0.082441
C35   C     C_R   0.934197 0.502328 0.637096 -0.204736
C36   C     C_R   0.036580 0.557805 0.527669 -0.080725
C37   C     C_R   0.553732 0.036556 0.472333 -0.082131
C38   C     C_R   0.442784 0.961999 0.527679 -0.082695
C39   C     C_R   0.037310 0.557360 0.472356 -0.082395
C40   C     C_R   0.965275 0.444521 0.527661 -0.077171
C41   C     C_R   0.442494 0.962095 0.472360 -0.080251
C42   C     C_R   0.553765 0.036789 0.527639 -0.077185
C43   C     C_R   0.499998 0.999998 0.986196 -0.005855
C44   C     C_R   0.499996 0.999997 0.013810 -0.008084
C45   C     C_R   0.999966 0.500026 0.986190 -0.008046
C46   C     C_R   0.934428 0.503320 0.362940 -0.203378
C47   C     C_R   0.999954 0.500038 0.013804 -0.005901
C48   C     C_R   0.001383 0.500884 0.486191 -0.004125
C49   C     C_R   0.001089 0.501064 0.513813 -0.007753
C50   C     C_R   0.498145 0.999344 0.486191 -0.005361
C51   C     C_R   0.498207 0.999410 0.513809 -0.006870
C52   C     C_R   0.418776 0.893726 0.986270 -0.098899
C53   C     C_R   0.580733 0.106687 0.013735 -0.098009
C54   C     C_R   0.106567 0.580876 0.986273 -0.097939
C55   C     C_R   0.893747 0.418737 0.013722 -0.098907
C56   C     C_R   0.581217 0.106273 0.986277 -0.098920
C57   C     C_R   0.496217 0.065730 0.637104 -0.205012
C58   C     C_R   0.419269 0.893300 0.013728 -0.097899
C59   C     C_R   0.893349 0.419199 0.986264 -0.097989
C60   C     C_R   0.106103 0.581417 0.013730 -0.098847
C61   C     C_R   0.926970 0.389763 0.486286 -0.102957
C62   C     C_R   0.076242 0.611742 0.513758 -0.098185
C63   C     C_R   0.606721 0.077438 0.486253 -0.104180
C64   C     C_R   0.389993 0.920808 0.513778 -0.097985
C65   C     C_R   0.076934 0.611259 0.486301 -0.099159
C66   C     C_R   0.926262 0.390170 0.513735 -0.106066
C67   C     C_R   0.389568 0.921191 0.486316 -0.098726
C68   C     C_R   0.502316 0.933922 0.362836 -0.204838
C69   C     C_R   0.606665 0.077721 0.513704 -0.103923
C70   C     C_R   0.066201 0.499453 0.610002 -0.089270
C71   C     C_R   0.066526 0.498500 0.389955 -0.089151
C72   C     C_R   0.501869 0.933823 0.610004 -0.088722
C73   C     C_R   0.494773 0.065504 0.390057 -0.087910
C74   C     C_R   0.934397 0.502824 0.609927 -0.089163
C75   C     C_R   0.934786 0.503817 0.390111 -0.087900
C76   C     C_R   0.495617 0.065519 0.609936 -0.088798
C77   C     C_R   0.501747 0.933845 0.390002 -0.089099
C78   C     C_R   0.565786 0.995916 0.109973 -0.088850
C79   C     C_R   0.565854 0.996031 0.137140 -0.204674
C80   C     C_R   0.565773 0.995485 0.890027 -0.088218
C81   C     C_R   0.995454 0.565773 0.109975 -0.088204
C82   C     C_R   0.995851 0.565795 0.890027 -0.088864
C83   C     C_R   0.434194 0.004083 0.109971 -0.088846
C84   C     C_R   0.434239 0.004510 0.890025 -0.088229
C85   C     C_R   0.004529 0.434243 0.109973 -0.088195
C86   C     C_R   0.004136 0.434212 0.890028 -0.088844
C87   C     C_2   0.367739 0.843958 0.972581 1.012158
C88   C     C_2   0.630665 0.157421 0.027497 1.014855
C89   C     C_2   0.157274 0.630825 0.972512 1.015157
C90   C     C_R   0.565839 0.995612 0.862861 -0.204057
C91   C     C_2   0.843962 0.367726 0.027409 1.012406
C92   C     C_2   0.632236 0.156058 0.972591 1.012335
C93   C     C_2   0.369360 0.842542 0.027487 1.014774
C94   C     C_2   0.842661 0.369219 0.972503 1.014794
C95   C     C_2   0.155701 0.632621 0.027421 1.011769
C96   C     C_2   0.881548 0.334977 0.472606 1.025336
C97   C     C_2   0.123437 0.664995 0.527539 1.014565
C98   C     C_2   0.658906 0.125793 0.472534 1.024843
C99   C     C_2   0.339022 0.871040 0.527496 1.011518
C100  C     C_2   0.125423 0.663559 0.472641 1.013331
C101  C     C_R   0.995586 0.565836 0.137142 -0.204042
C102  C     C_2   0.878529 0.337142 0.527428 1.019144
C103  C     C_2   0.337556 0.872519 0.472593 1.015927
C104  C     C_2   0.658125 0.127078 0.527416 1.017550
C105  C     C_R   0.000000 0.500000 0.179790 0.800659
C106  C     C_R   0.995971 0.565859 0.862860 -0.204684
C107  C     C_R   0.434131 0.003968 0.137138 -0.204677
C108  C     C_R   0.434172 0.004386 0.862858 -0.204044
C109  C     C_R   0.004407 0.434173 0.137140 -0.204053
C110  C     C_R   0.004022 0.434145 0.862861 -0.204698
C111  C     C_R   0.000093 0.500440 0.651016 -0.019078
C112  C     C_R   0.000215 0.500474 0.348983 -0.020219
C113  C     C_R   0.499534 0.999893 0.651019 -0.019304
C114  C     C_R   0.499321 0.999890 0.348981 -0.019912
C115  C     C_R   0.499994 1.000000 0.151021 -0.019231
C116  C     C_R   0.500002 1.000000 0.820210 0.800634
C117  C     C_R   0.500005 0.999999 0.848978 -0.019840
C118  C     C_R   0.999999 0.500002 0.151022 -0.019839
C119  C     C_R   0.999998 0.500001 0.848979 -0.019222
C120  C     C_R   0.000372 0.501347 0.596209 0.298064
C121  C     C_R   0.000811 0.501322 0.403789 0.298444
C122  C     C_R   0.498495 0.999595 0.596210 0.297362
C123  C     C_R   0.497975 0.999603 0.403789 0.297566
C124  C     C_R   0.499989 0.999999 0.096209 0.296901
C125  C     C_R   0.500006 0.999997 0.903790 0.296570
C126  C     C_R   0.999987 0.500010 0.096211 0.296498
C127  C     C_R   0.499998 1.000000 0.179790 0.800574
C128  C     C_R   0.999993 0.500005 0.903790 0.296915
C129  C     C_R   0.859638 0.640361 0.750000 0.802892
C130  C     C_R   0.140362 0.359639 0.250000 0.802835
C131  C     C_R   0.359651 0.859651 0.750000 0.804130
C132  C     C_R   0.640348 0.140349 0.250000 0.804168
C133  C     C_R   0.140361 0.359639 0.750000 0.802894
C134  C     C_R   0.859639 0.640362 0.250000 0.802720
C135  C     C_R   0.640350 0.140349 0.750000 0.804123
C136  C     C_R   0.359650 0.859651 0.250000 0.804088
C137  C     C_R   0.859651 0.359651 0.250000 0.804162
C138  C     C_R   0.499902 0.999986 0.320211 0.800690
C139  C     C_R   0.140348 0.640349 0.750000 0.804086
C140  C     C_R   0.359638 0.140361 0.250000 0.802739
C141  C     C_R   0.640362 0.859638 0.750000 0.802844
C142  C     C_R   0.140350 0.640349 0.250000 0.804106
C143  C     C_R   0.859650 0.359651 0.750000 0.804100
C144  C     C_R   0.640361 0.859638 0.250000 0.802814
C145  C     C_R   0.359639 0.140361 0.750000 0.802814
C146  C     C_R   0.743249 0.310135 0.733503 -0.179486
C147  C     C_R   0.256749 0.689866 0.266498 -0.179096
C148  C     C_R   0.689864 0.743229 0.733498 -0.180720
C149  C     C_R   0.499938 0.999987 0.679789 0.800732
C150  C     C_R   0.310135 0.256769 0.266503 -0.180694
C151  C     C_R   0.256743 0.689865 0.733503 -0.179215
C152  C     C_R   0.743251 0.310141 0.266494 -0.178754
C153  C     C_R   0.310132 0.256773 0.733499 -0.180784
C154  C     C_R   0.689869 0.743228 0.266502 -0.180728
C155  C     C_R   0.743231 0.689866 0.266501 -0.180665
C156  C     C_R   0.256770 0.310134 0.733499 -0.180654
C157  C     C_R   0.689862 0.256752 0.266494 -0.178712
C158  C     C_R   0.310132 0.743254 0.733503 -0.179110
C159  C     C_R   0.256774 0.310131 0.266503 -0.180673
C160  C     C_R   0.000026 0.500073 0.320211 0.800759
C161  C     C_R   0.743225 0.689867 0.733498 -0.180730
C162  C     C_R   0.310137 0.743255 0.266497 -0.179086
C163  C     C_R   0.689861 0.256746 0.733503 -0.179407
C164  C     C_R   0.243250 0.810135 0.233503 -0.179047
C165  C     C_R   0.756751 0.189864 0.766497 -0.178908
C166  C     C_R   0.189865 0.243231 0.233497 -0.180833
C167  C     C_R   0.810135 0.756770 0.766502 -0.180750
C168  C     C_R   0.756749 0.189860 0.233506 -0.179025
C169  C     C_R   0.243255 0.810136 0.766496 -0.178886
C170  C     C_R   0.810131 0.756772 0.233498 -0.180837
C171  C     C_R   0.000009 0.500062 0.679788 0.800723
C172  C     C_R   0.189869 0.243228 0.766502 -0.180766
C173  C     C_R   0.243231 0.189867 0.766502 -0.180750
C174  C     C_R   0.756768 0.810133 0.233498 -0.180815
C175  C     C_R   0.189866 0.756748 0.766496 -0.178966
C176  C     C_R   0.810138 0.243248 0.233506 -0.178955
C177  C     C_R   0.756774 0.810132 0.766503 -0.180771
C178  C     C_R   0.243226 0.189869 0.233497 -0.180824
C179  C     C_R   0.810139 0.243254 0.766496 -0.178954
C180  C     C_R   0.189861 0.756746 0.233503 -0.178948
C181  C     C_R   0.696368 0.196367 0.750000 0.001536
C182  C     C_R   0.066125 0.499058 0.637168 -0.204331
C183  C     C_R   0.303631 0.803633 0.250000 0.001360
C184  C     C_R   0.803621 0.696377 0.750000 0.002149
C185  C     C_R   0.196379 0.303623 0.250000 0.002058
C186  C     C_R   0.303632 0.803633 0.750000 0.001404
C187  C     C_R   0.696367 0.196368 0.250000 0.001161
C188  C     C_R   0.196378 0.303622 0.750000 0.002139
C189  C     C_R   0.803622 0.696378 0.250000 0.002081
C190  C     C_R   0.696377 0.803621 0.250000 0.002070
C191  C     C_R   0.303623 0.196379 0.750000 0.002167
C192  C     C_R   0.803633 0.303632 0.250000 0.001165
H1    H     H_    0.737215 0.356372 0.720611 0.164321
H2    H     H_    0.262831 0.356366 0.720601 0.163592
H3    H     H_    0.643622 0.262788 0.279384 0.164980
H4    H     H_    0.356368 0.737222 0.720611 0.164595
H5    H     H_    0.262838 0.356361 0.279402 0.163724
H6    H     H_    0.737159 0.643637 0.720599 0.163537
H7    H     H_    0.356377 0.737226 0.279390 0.164676
H8    H     H_    0.643621 0.262777 0.720611 0.164369
H9    H     H_    0.237216 0.856371 0.220610 0.164719
H10   H     H_    0.762786 0.143627 0.779389 0.164764
H11   H     H_    0.143633 0.237170 0.220598 0.163648
H12   H     H_    0.262782 0.643630 0.279391 0.164681
H13   H     H_    0.856369 0.762832 0.779401 0.163642
H14   H     H_    0.762782 0.143618 0.220616 0.164734
H15   H     H_    0.237226 0.856374 0.779388 0.164781
H16   H     H_    0.856360 0.762835 0.220600 0.163651
H17   H     H_    0.143640 0.237164 0.779400 0.163643
H18   H     H_    0.237170 0.143635 0.779400 0.163653
H19   H     H_    0.762830 0.856364 0.220600 0.163643
H20   H     H_    0.143631 0.762779 0.779389 0.164726
H21   H     H_    0.856377 0.237212 0.220615 0.164784
H22   H     H_    0.762840 0.856362 0.779401 0.163647
H23   H     H_    0.643630 0.737167 0.720599 0.163580
H24   H     H_    0.237162 0.143640 0.220598 0.163638
H25   H     H_    0.856380 0.237223 0.779389 0.164716
H26   H     H_    0.143622 0.762776 0.220610 0.164777
H27   H     H_    0.117491 0.497984 0.599634 0.160799
H28   H     H_    0.117843 0.496243 0.400290 0.160200
H29   H     H_    0.504452 0.882576 0.599637 0.160660
H30   H     H_    0.491609 0.116636 0.400475 0.160670
H31   H     H_    0.883208 0.504498 0.599497 0.160314
H32   H     H_    0.883684 0.506232 0.400574 0.159866
H33   H     H_    0.492769 0.116664 0.599513 0.160813
H34   H     H_    0.356367 0.262830 0.279402 0.163766
H35   H     H_    0.504573 0.882619 0.400375 0.161170
H36   H     H_    0.616940 0.992444 0.099581 0.161493
H37   H     H_    0.616905 0.991671 0.900420 0.161018
H38   H     H_    0.991617 0.616904 0.099585 0.161104
H39   H     H_    0.992331 0.616947 0.900419 0.161473
H40   H     H_    0.383039 0.007555 0.099578 0.161480
H41   H     H_    0.383108 0.008324 0.900416 0.161026
H42   H     H_    0.008360 0.383115 0.099580 0.161032
H43   H     H_    0.007652 0.383062 0.900421 0.161498
H44   H     H_    0.117776 0.497531 0.647304 0.170468
H45   H     H_    0.262772 0.643628 0.720611 0.164517
H46   H     H_    0.117870 0.495875 0.352625 0.170760
H47   H     H_    0.504967 0.882305 0.647305 0.170526
H48   H     H_    0.493007 0.117390 0.352800 0.170749
H49   H     H_    0.882458 0.503527 0.647179 0.170038
H50   H     H_    0.882665 0.505286 0.352886 0.170672
H51   H     H_    0.493909 0.117428 0.647190 0.170064
H52   H     H_    0.505328 0.882333 0.352704 0.170592
H53   H     H_    0.617462 0.992791 0.147253 0.170415
H54   H     H_    0.617423 0.992036 0.852749 0.170527
H55   H     H_    0.991993 0.617417 0.147256 0.170543
H56   H     H_    0.737217 0.356382 0.279384 0.164948
H57   H     H_    0.992686 0.617462 0.852747 0.170410
H58   H     H_    0.382525 0.007208 0.147250 0.170412
H59   H     H_    0.382587 0.007963 0.852744 0.170534
H60   H     H_    0.008005 0.382589 0.147252 0.170526
H61   H     H_    0.007308 0.382541 0.852749 0.170410
H62   H     H_    0.342591 0.741011 0.962352 0.372666
H63   H     H_    0.720764 0.169370 0.049482 0.361965
H64   H     H_    0.169196 0.721026 0.950585 0.361954
H65   H     H_    0.741017 0.342698 0.037670 0.372639
H66   H     H_    0.657304 0.259008 0.962341 0.372690
H67   H     H_    0.356361 0.262836 0.720600 0.163517
H68   H     H_    0.279221 0.830538 0.049441 0.361759
H69   H     H_    0.830795 0.279107 0.950523 0.361982
H70   H     H_    0.258580 0.658279 0.037572 0.372490
H71   H     H_    0.870615 0.231080 0.460635 0.356261
H72   H     H_    0.212724 0.681600 0.549562 0.361835
H73   H     H_    0.762387 0.143662 0.461207 0.355827
H74   H     H_    0.235480 0.848289 0.537671 0.370557
H75   H     H_    0.145166 0.767596 0.462332 0.373136
H76   H     H_    0.789844 0.321223 0.549830 0.354929
H77   H     H_    0.323224 0.782409 0.450800 0.363824
H78   H     H_    0.643640 0.737164 0.279400 0.163701
H79   H     H_    0.671192 0.216311 0.549773 0.354008
H80   H     H_    0.737170 0.643635 0.279400 0.163772
N1    N     N_R   0.500006 0.999997 0.931843 -0.355079
N2    N     N_R   0.499988 1.000000 0.068156 -0.355592
N3    N     N_R   0.999988 0.500007 0.931844 -0.355569
N4    N     N_R   0.999974 0.500017 0.068157 -0.355095
N5    N     N_R   0.001120 0.501148 0.431837 -0.354720
N6    N     N_R   0.000516 0.501367 0.568161 -0.356073
N7    N     N_R   0.497961 0.999496 0.431840 -0.354986
N8    N     N_R   0.498369 0.999471 0.568160 -0.355679
O1    O     O_3   1.000000 0.500000 0.750000 -0.471970
O2    O     O_R   1.000000 0.439150 0.192270 -0.643564
O3    O     O_R   0.631117 0.186675 0.541283 -0.764377
O4    O     O_R   0.439150 0.000000 0.807730 -0.643560
O5    O     O_R   0.560850 0.000000 0.192270 -0.643611
O6    O     O_R   0.500000 0.939150 0.307730 -0.643714
O7    O     O_R   0.500000 0.060850 0.692270 -0.643645
O8    O     O_R   0.060850 0.500000 0.307730 -0.643803
O9    O     O_R   0.939150 0.500000 0.692270 -0.643695
O10   O     O_R   0.500000 0.060850 0.307730 -0.643425
O11   O     O_R   0.500000 0.939150 0.692270 -0.643694
O12   O     O_R   0.939150 0.500000 0.307730 -0.643367
O13   O     O_3   1.000000 0.500000 0.250000 -0.472086
O14   O     O_R   0.060850 0.500000 0.692270 -0.643739
O15   O     O_R   0.914360 0.646040 0.764890 -0.647940
O16   O     O_R   0.085640 0.353960 0.235110 -0.647970
O17   O     O_R   0.353960 0.914360 0.764890 -0.647282
O18   O     O_R   0.646040 0.085640 0.235110 -0.647377
O19   O     O_R   0.085640 0.353960 0.764890 -0.647950
O20   O     O_R   0.914360 0.646040 0.235110 -0.647984
O21   O     O_R   0.646040 0.085640 0.764890 -0.647274
O22   O     O_R   0.353960 0.914360 0.235110 -0.647361
O23   O     O_R   0.914360 0.353960 0.235110 -0.647319
O24   O     O_3   0.500000 1.000000 0.750000 -0.472021
O25   O     O_R   0.085640 0.646040 0.764890 -0.647319
O26   O     O_R   0.353960 0.085640 0.235110 -0.647968
O27   O     O_R   0.646040 0.914360 0.764890 -0.647955
O28   O     O_R   0.085640 0.646040 0.235110 -0.647299
O29   O     O_R   0.914360 0.353960 0.764890 -0.647307
O30   O     O_R   0.646040 0.914360 0.235110 -0.647948
O31   O     O_R   0.353960 0.085640 0.764890 -0.647941
O32   O     O_R   0.414360 0.146040 0.264890 -0.647899
O33   O     O_R   0.585640 0.853960 0.735110 -0.647900
O34   O     O_R   0.853960 0.414360 0.264890 -0.647300
O35   O     O_3   0.500000 0.000000 0.250000 -0.472055
O36   O     O_R   0.146040 0.585640 0.735110 -0.647552
O37   O     O_R   0.585640 0.853960 0.264890 -0.647876
O38   O     O_R   0.414360 0.146040 0.735110 -0.647964
O39   O     O_R   0.146040 0.585640 0.264890 -0.647468
O40   O     O_R   0.853960 0.414360 0.735110 -0.647579
O41   O     O_R   0.414360 0.853960 0.735110 -0.647459
O42   O     O_R   0.585640 0.146040 0.264890 -0.647236
O43   O     O_R   0.853960 0.585640 0.735110 -0.647907
O44   O     O_R   0.146040 0.414360 0.264890 -0.647851
O45   O     O_R   0.585640 0.146040 0.735110 -0.647515
O46   O     O_R   1.000000 0.439150 0.807730 -0.643622
O47   O     O_R   0.414360 0.853960 0.264890 -0.647441
O48   O     O_R   0.146040 0.414360 0.735110 -0.647837
O49   O     O_R   0.853960 0.585640 0.264890 -0.647854
O50   O     O_2   0.560021 0.111938 0.930992 -0.521502
O51   O     O_2   0.440903 0.887591 0.069021 -0.522722
O52   O     O_2   0.887634 0.440820 0.930972 -0.522749
O53   O     O_2   0.111889 0.560087 0.069004 -0.521344
O54   O     O_2   0.440000 0.888050 0.930989 -0.521462
O55   O     O_2   0.559058 0.112416 0.069024 -0.522740
O56   O     O_2   0.112324 0.559226 0.930982 -0.522799
O57   O     O_R   1.000000 0.560850 0.192270 -0.643559
O58   O     O_2   0.888089 0.439897 0.069010 -0.521505
O59   O     O_2   0.055984 0.615661 0.430988 -0.521522
O60   O     O_2   0.947593 0.385958 0.569033 -0.521477
O61   O     O_2   0.384630 0.942252 0.430967 -0.522956
O62   O     O_2   0.612102 0.055956 0.568966 -0.521934
O63   O     O_2   0.946068 0.386786 0.430840 -0.523215
O64   O     O_2   0.053956 0.616542 0.569041 -0.522078
O65   O     O_2   0.611258 0.056804 0.430920 -0.522539
O66   O     O_2   0.384895 0.942426 0.569065 -0.520868
O67   O     O_2   0.313898 0.868766 0.961771 -0.589336
O68   O     O_R   0.560850 0.000000 0.807730 -0.643574
O69   O     O_R   0.381407 0.769134 0.972145 -0.710727
O70   O     O_2   0.619014 0.222938 0.027119 -0.546784
O71   O     O_R   0.690775 0.129715 0.040897 -0.763016
O72   O     O_2   0.222776 0.619075 0.972824 -0.546258
O73   O     O_R   0.129559 0.691041 0.959179 -0.763341
O74   O     O_2   0.868736 0.313823 0.038188 -0.589361
O75   O     O_R   0.769159 0.381499 0.027880 -0.710654
O76   O     O_2   0.686122 0.131277 0.961804 -0.589358
O77   O     O_R   0.618496 0.230870 0.972131 -0.710658
O78   O     O_2   0.381092 0.777038 0.027133 -0.546598
O79   O     O_R   0.439150 0.000000 0.192270 -0.643617
O80   O     O_R   0.309185 0.870209 0.040856 -0.763127
O81   O     O_2   0.777132 0.380814 0.972880 -0.546930
O82   O     O_R   0.870423 0.309131 0.959108 -0.762978
O83   O     O_2   0.130683 0.686231 0.038307 -0.589189
O84   O     O_R   0.230599 0.619379 0.027771 -0.710996
O85   O     O_2   0.823036 0.352938 0.463260 -0.579622
O86   O     O_R   0.906036 0.263220 0.470475 -0.714067
O87   O     O_2   0.108454 0.729826 0.527126 -0.545276
O88   O     O_R   0.184825 0.640440 0.540983 -0.762260
O89   O     O_2   0.637271 0.182109 0.462500 -0.577186
O90   O     O_R   1.000000 0.560850 0.807730 -0.643622
O91   O     O_R   0.732377 0.106576 0.471120 -0.715708
O92   O     O_2   0.362557 0.816753 0.538385 -0.589368
O93   O     O_R   0.264519 0.886383 0.527859 -0.711687
O94   O     O_2   0.180670 0.641583 0.461965 -0.589521
O95   O     O_R   0.107770 0.737521 0.472086 -0.711646
O96   O     O_2   0.891847 0.271996 0.526380 -0.534935
O97   O     O_R   0.818285 0.362247 0.541399 -0.763030
O98   O     O_2   0.272404 0.886082 0.472853 -0.546881
O99   O     O_R   0.363643 0.811390 0.459370 -0.761927
O100  O     O_2   0.723626 0.115537 0.526532 -0.533886
Zn1   Zn    Zn3+2 0.913060 0.500000 0.727930 0.977564
Zn2   Zn    Zn3+2 0.586940 0.000000 0.772070 0.977873
Zn3   Zn    Zn3+2 1.000000 0.413060 0.227930 0.977843
Zn4   Zn    Zn3+2 0.000000 0.586940 0.772070 0.977772
Zn5   Zn    Zn3+2 0.586940 0.000000 0.227930 0.977755
Zn6   Zn    Zn3+2 0.413060 0.000000 0.772070 0.977855
Zn7   Zn    Zn3+2 1.000000 0.586940 0.227930 0.977791
Zn8   Zn    Zn3+2 1.000000 0.413060 0.772070 0.977799
Zn9   Zn    Zn3+2 0.086940 0.500000 0.272070 0.977721
Zn10  Zn    Zn3+2 0.500000 0.913060 0.727930 0.977754
Zn11  Zn    Zn3+2 0.500000 0.086940 0.272070 0.978053
Zn12  Zn    Zn3+2 0.086940 0.500000 0.727930 0.977682
Zn13  Zn    Zn3+2 0.913060 0.500000 0.272070 0.978047
Zn14  Zn    Zn3+2 0.500000 0.086940 0.727930 0.977566
Zn15  Zn    Zn3+2 0.500000 0.913060 0.272070 0.977696
Zn16  Zn    Zn3+2 0.413060 0.000000 0.227930 0.977691

loop_
_geom_bond_atom_site_label_1
_geom_bond_atom_site_label_2
_ccdc_geom_bond_type
C135  O45   A    
C82   H39   S    
C149  O11   A    
C55   C59   A    
C81   C126  A    
C99   O93   S    
C32   C45   A    
C173  H18   S    
C10   N3    A    
C41   C67   A    
C125  N1    S    
C14   O55   S    
C132  O42   A    
C95   O83   D    
C92   O77   S    
C167  H13   S    
C57   C76   A    
C86   C110  A    
C121  N5    S    
C63   C98   S    
C46   C112  A    
H72   O88   S    
C123  N7    S    
O48   Zn12  S    
C100  O94   D    
C83   H40   S    
C130  O16   A    
C102  O96   D    
C17   C39   A    
C18   C40   A    
C155  C189  A    
C133  C188  S    
C93   O78   D    
C104  O100  D    
C24   H48   S    
C182  H44   S    
C7    C146  A    
C127  O79   A    
C5    C148  A    
O13   Zn13  S    
C39   C65   A    
C98   O91   S    
C36   C62   A    
C87   O69   S    
C37   C63   A    
C109  C118  A    
C133  O48   A    
C130  O44   A    
C45   C47   A    
C141  O33   A    
C150  C159  A    
C86   C128  A    
H73   O91   S    
C90   C117  A    
C28   C54   A    
O47   Zn15  S    
C29   C55   A    
C91   O75   S    
C23   C37   A    
C103  O98   D    
C30   C56   A    
C74   H31   S    
C173  C191  A    
C111  C182  A    
C142  O28   A    
C71   H28   S    
O68   Zn2   S    
C43   C44   A    
C21   N5    A    
O35   Zn15  S    
C134  O20   A    
C153  C156  A    
C15   N3    A    
C154  C155  A    
C52   C58   A    
C171  O9    A    
C33   C47   A    
O13   Zn9   S    
C30   C43   A    
C34   C48   A    
C2    C71   A    
C153  H67   S    
O15   Zn4   S    
O32   Zn11  S    
C22   C36   A    
C170  C174  A    
C68   C77   A    
O30   Zn5   S    
C126  N4    S    
C152  C157  A    
C112  C160  S    
C157  H3    S    
O28   Zn7   S    
C10   O52   S    
C147  C162  A    
C20   O62   S    
C12   N1    A    
C169  H15   S    
C20   C42   A    
C27   C53   A    
C13   C72   A    
C22   O64   S    
C4    C150  A    
C76   C122  A    
C161  C184  A    
C162  C183  A    
C152  C192  A    
C37   C50   A    
O10   Zn11  S    
C136  C183  S    
O35   Zn11  S    
O26   Zn16  S    
O57   Zn7   S    
C60   C95   S    
C134  O49   A    
C138  O10   A    
C1    O90   A    
H70   O84   S    
C176  H21   S    
C98   O89   D    
C32   C59   A    
C154  H78   S    
C96   O86   S    
C17   O59   S    
C140  O26   A    
C24   C114  A    
C79   C115  A    
C163  C181  A    
C127  O5    A    
H75   O95   S    
C16   O58   S    
C155  H80   S    
C61   C96   S    
C67   C103  S    
C13   H47   S    
C81   C101  A    
O20   Zn7   S    
C132  O18   A    
C161  H6    S    
C29   C47   A    
C107  C115  A    
C101  C118  A    
O39   Zn9   S    
O19   Zn8   S    
C104  O3    S    
O8    Zn9   S    
C144  O30   A    
C129  O15   A    
C40   C49   A    
C92   O76   D    
O1    Zn12  S    
C94   O82   S    
O1    Zn1   S    
C5    C141  S    
C27   C44   A    
C64   C99   S    
C63   C69   A    
C70   C120  A    
C73   C123  A    
O14   Zn12  S    
C83   C124  A    
C179  H25   S    
C85   C126  A    
C160  O12   A    
C46   C75   A    
C174  H19   S    
C11   C33   A    
C105  O57   A    
C172  H17   S    
C23   N7    A    
O37   Zn15  S    
C57   C113  A    
C38   C51   A    
C9    O51   S    
H66   O77   S    
C158  H4    S    
C12   C26   A    
C156  H2    S    
C21   O63   S    
C128  N3    S    
C170  H16   S    
C25   C38   A    
C62   C97   S    
O90   Zn4   S    
C14   N2    A    
H79   O3    S    
C167  C184  A    
C103  O99   S    
C82   C128  A    
O34   Zn13  S    
C75   H32   S    
C35   H49   S    
C165  C179  A    
C3    C139  S    
C135  C181  S    
C153  C191  A    
C171  O14   A    
C168  C176  A    
C107  H58   S    
C6    C180  A    
C76   H33   S    
C122  N8    S    
C108  C117  A    
C71   C121  A    
C20   N8    A    
C4    C178  A    
H64   O73   S    
C136  O47   A    
C12   O54   S    
C110  C119  A    
C18   O60   S    
C22   N6    A    
C70   H27   S    
C178  H24   S    
C159  C185  A    
C93   O80   S    
C164  C183  A    
C6    C147  A    
O49   Zn13  S    
C72   H29   S    
H68   O80   S    
C111  C171  S    
C166  H11   S    
C82   C106  A    
C11   N4    A    
C164  H9    S    
O24   Zn14  S    
O40   Zn1   S    
C168  C187  A    
O13   Zn3   S    
C17   N5    A    
C89   O73   S    
C19   N7    A    
C35   C74   A    
C150  H34   S    
C106  C119  A    
C149  O7    A    
C15   O56   S    
C16   N4    A    
H65   O75   S    
C8    O50   S    
C130  C185  S    
C170  C189  A    
C2    C112  A    
C79   H53   S    
C134  C189  S    
O24   Zn10  S    
C129  O43   A    
C58   C93   S    
C169  C186  A    
C85   C109  A    
O43   Zn1   S    
C136  O22   A    
C24   C73   A    
C53   C56   A    
C143  O29   A    
O11   Zn10  S    
C1    C119  S    
C55   C91   S    
C70   C182  A    
O5    Zn5   S    
H76   O97   S    
C19   O61   S    
C166  C178  A    
C59   C94   S    
C14   C27   A    
C6    C142  S    
C38   C64   A    
C1    O46   A    
C164  C180  A    
C154  C190  A    
C40   C66   A    
C25   N8    A    
C158  C186  A    
C132  C187  S    
C7    C143  S    
C156  C188  A    
C95   O84   S    
C85   H42   S    
C157  C187  A    
C137  O34   A    
C21   C34   A    
C162  H7    S    
O13   Zn7   S    
C143  O40   A    
C151  C158  A    
C77   C123  A    
C87   O67   D    
C137  C192  S    
O31   Zn6   S    
O9    Zn1   S    
C105  O2    A    
C169  C175  A    
O29   Zn8   S    
C146  H1    S    
C25   O66   S    
C174  C190  A    
C3    C175  A    
C48   C49   A    
C167  C177  A    
C129  C184  S    
C77   H35   S    
C33   C60   A    
C81   H38   S    
C116  O4    A    
C46   H50   S    
C101  H55   S    
C41   C50   A    
C106  H57   S    
C84   C125  A    
O25   Zn4   S    
O35   Zn5   S    
O6    Zn15  S    
C11   O53   S    
C177  H22   S    
C65   C100  S    
C23   O65   S    
O23   Zn3   S    
H63   O71   S    
C145  O38   A    
C102  O97   S    
H71   O86   S    
C8    C30   A    
C88   O71   S    
C165  C181  A    
C57   H51   S    
C15   C28   A    
C140  O32   A    
O35   Zn16  S    
C90   H54   S    
C84   C108  A    
C137  O23   A    
O4    Zn6   S    
C34   C61   A    
C152  H56   S    
O24   Zn2   S    
C74   C120  A    
C159  H5    S    
C99   O92   D    
C97   O88   S    
C131  O17   A    
C36   C49   A    
C19   C41   A    
C39   C48   A    
C109  H60   S    
C116  O68   A    
C166  C185  A    
C66   C102  S    
C180  H26   S    
C80   H37   S    
C165  H10   S    
H62   O69   S    
C100  O95   S    
C54   C60   A    
C144  C190  S    
C73   H30   S    
C148  C161  A    
C31   C58   A    
O44   Zn9   S    
O1    Zn4   S    
C68   H52   S    
O17   Zn6   S    
H77   O99   S    
C176  C192  A    
C80   C125  A    
C110  H61   S    
C115  C127  S    
C116  C117  S    
C18   N6    A    
C124  N2    S    
C61   C66   A    
O18   Zn5   S    
C78   C124  A    
C96   O85   D    
O36   Zn12  S    
O41   Zn10  S    
C42   C51   A    
C89   O72   D    
C114  C138  S    
C145  C191  S    
O24   Zn6   S    
C135  O21   A    
C147  H12   S    
C26   C43   A    
C50   C51   A    
C8    N1    A    
H69   O82   S    
C91   O74   D    
C78   H36   S    
C151  H45   S    
C28   C45   A    
C31   C44   A    
C108  H59   S    
C64   C67   A    
C113  C149  S    
C9    N2    A    
C54   C89   S    
C144  O37   A    
C78   C79   A    
C2    H46   S    
C16   C29   A    
C141  O27   A    
O16   Zn3   S    
C42   C69   A    
O42   Zn11  S    
C160  O8    A    
C94   O81   D    
C26   C52   A    
C4    C140  S    
C145  O31   A    
C120  N6    S    
O21   Zn2   S    
O46   Zn8   S    
C133  O19   A    
C7    C179  A    
C175  H20   S    
O38   Zn14  S    
O7    Zn14  S    
C5    C177  A    
C131  O41   A    
C163  H8    S    
C168  H14   S    
O33   Zn10  S    
C148  H23   S    
C35   C111  A    
C172  C173  A    
O22   Zn16  S    
O12   Zn13  S    
C69   C104  S    
O45   Zn14  S    
C62   C65   A    
C72   C122  A    
C75   C121  A    
O27   Zn2   S    
C52   C87   S    
C139  O25   A    
C146  C163  A    
C138  O6    A    
C3    C151  A    
C86   H43   S    
C142  O39   A    
C84   H41   S    
H74   O93   S    
O79   Zn16  S    
C172  C188  A    
C97   O87   D    
C83   C107  A    
C53   C88   S    
O2    Zn3   S    
C80   C90   A    
C105  C118  S    
C88   O70   D    
C9    C31   A    
C139  O36   A    
C131  C186  S    
C10   C32   A    
C56   C92   S    
O1    Zn8   S    
C13   C113  A    
C68   C114  A    
