data_mof_unit_40515.cif
_audit_creation_date              2012-12-10T22:11:12-0500
_audit_creation_method            fapswitch 2.2
_symmetry_space_group_name_H-M    P1
_symmetry_Int_Tables_number       1
_space_group_crystal_system       triclinic
_cell_length_a                    12.142933
_cell_length_b                    12.325268
_cell_length_c                    23.130424
_cell_angle_alpha                 91.24824
_cell_angle_beta                  90.731208
_cell_angle_gamma                 91.21696
_cell_volume                      3459.90765981

loop_
_atom_site_label
_atom_site_type_symbol
_atom_type_description
_atom_site_fract_x
_atom_site_fract_y
_atom_site_fract_z
_atom_type_partial_charge
C1    C     C_R   0.654408 0.999156 0.580735 0.889897
C2    C     C_R   0.342365 0.000729 0.420752 0.888085
C3    C     C_R   0.894900 0.808827 0.125727 -0.252520
C4    C     C_R   0.102724 0.244379 0.846964 -0.262851
C5    C     C_R   0.083982 0.859319 0.191032 -0.212496
C6    C     C_R   0.926861 0.097432 0.833910 -0.182555
C7    C     C_R   0.085803 0.777568 0.149494 -0.215198
C8    C     C_R   0.923193 0.178282 0.875832 -0.219543
C9    C     C_R   0.897404 0.182003 0.202442 0.087433
C10   C     C_R   0.104690 0.878782 0.827869 0.110775
C11   C     C_R   0.906910 0.267798 0.163828 0.003634
C12   C     C_R   0.101098 0.800168 0.870149 0.010632
C13   C     C_R   0.106956 0.910868 0.321268 0.100016
C14   C     C_R   0.844568 0.093271 0.702970 0.077159
C15   C     C_R   0.188985 0.906950 0.363882 0.048116
C16   C     C_R   0.756851 0.092208 0.663297 0.052410
C17   C     C_R   0.888097 0.092612 0.331940 -0.152562
C18   C     C_R   0.169736 0.903879 0.698552 -0.137893
C19   C     C_R   0.809138 0.091322 0.374088 -0.221329
C20   C     C_R   0.248823 0.905403 0.656320 -0.234706
C21   C     C_3   0.988202 0.010099 0.247877 -0.061403
C22   C     C_3   0.010316 0.994721 0.751754 -0.059391
C23   C     C_R   0.654293 0.001646 0.421095 0.879188
C24   C     C_R   0.345337 0.998161 0.578762 0.867517
C25   C     C_R   0.090335 0.007275 0.289158 0.026808
C26   C     C_R   0.906422 0.997103 0.711889 0.029865
C27   C     C_R   0.256501 0.999320 0.375882 -0.113798
C28   C     C_R   0.736989 0.000340 0.627014 -0.112329
C29   C     C_R   0.894063 0.006819 0.290699 0.229061
C30   C     C_R   0.103301 0.994810 0.708182 0.230957
C31   C     C_R   0.737159 0.002329 0.377373 -0.010185
C32   C     C_R   0.261598 0.996567 0.622117 -0.011768
C33   C     C_R   0.986669 0.109319 0.208789 0.137018
C34   C     C_R   0.011795 0.895920 0.791633 0.072605
C35   C     C_R   0.997440 0.273752 0.126598 -0.063912
C36   C     C_R   0.005107 0.733727 0.876072 -0.100797
C37   C     C_R   0.985874 0.914607 0.203498 0.144042
C38   C     C_R   0.016901 0.089772 0.795779 0.179626
C39   C     C_R   0.990858 0.750625 0.117498 -0.035640
C40   C     C_R   0.010807 0.252012 0.882040 -0.030805
C41   C     C_R   0.992981 0.662631 0.075025 0.869266
C42   C     C_R   0.007153 0.337891 0.925022 0.880745
C43   C     C_R   0.998854 0.353741 0.081373 0.927226
C44   C     C_R   0.001639 0.648766 0.919461 0.892865
C45   C     C_R   0.156541 0.101083 0.304378 0.080649
C46   C     C_R   0.883064 0.905308 0.674684 0.098402
C47   C     C_R   0.239931 0.094210 0.345678 -0.280128
C48   C     C_R   0.799332 0.908125 0.633644 -0.284235
C49   C     C_R   0.822926 0.915795 0.296123 -0.142940
C50   C     C_R   0.113300 0.083295 0.670726 -0.154378
C51   C     C_R   0.744697 0.914089 0.338907 -0.233134
C52   C     C_R   0.193259 0.085169 0.628951 -0.217762
C53   C     C_R   0.077995 0.120937 0.172250 -0.232402
C54   C     C_R   0.915012 0.834264 0.801145 -0.262002
C55   C     C_R   0.083240 0.200034 0.131002 0.044152
C56   C     C_R   0.912180 0.751502 0.840797 0.069511
C57   C     C_R   0.892285 0.892425 0.167107 0.106770
C58   C     C_R   0.108289 0.163726 0.804388 0.125906
H1    H     H_    0.289950 0.166327 0.355527 0.170946
H2    H     H_    0.785477 0.837511 0.605506 0.171053
H3    H     H_    0.829213 0.843642 0.269205 0.149502
H4    H     H_    0.061283 0.152883 0.675161 0.141694
H5    H     H_    0.146561 0.066591 0.175438 0.147062
H6    H     H_    0.838686 0.850659 0.778854 0.154396
H7    H     H_    0.161405 0.879646 0.212562 0.142402
H8    H     H_    0.856762 0.041925 0.829820 0.142486
H9    H     H_    0.943010 0.162534 0.330390 0.145643
H10   H     H_    0.159838 0.829812 0.722200 0.147261
H11   H     H_    0.690139 0.843776 0.341890 0.153439
H12   H     H_    0.200864 0.155279 0.601715 0.153361
H13   H     H_    0.822167 0.791148 0.099248 0.156076
H14   H     H_    0.171499 0.301359 0.852597 0.154549
H15   H     H_    0.162089 0.735476 0.142525 0.161104
H16   H     H_    0.852016 0.182839 0.903491 0.157011
H17   H     H_    0.805182 0.159336 0.404419 0.152783
H18   H     H_    0.300028 0.835167 0.650493 0.155763
O1    O     O_R   0.621380 0.090460 0.561410 -0.639692
O2    O     O_R   0.378620 0.909540 0.438590 -0.640670
O3    O     O_R   0.617150 0.909540 0.438590 -0.630130
O4    O     O_R   0.382850 0.090460 0.561410 -0.632383
O5    O     O_R   0.619720 0.093230 0.440890 -0.629597
O6    O     O_R   0.380280 0.906770 0.559110 -0.633844
O7    O     O_R   0.618800 0.906770 0.559110 -0.626482
O8    O     O_R   0.381200 0.093230 0.440890 -0.626089
O9    O     O_R   0.087590 0.627480 0.058790 -0.638995
O10   O     O_R   0.912410 0.372520 0.941210 -0.630452
O11   O     O_R   0.905660 0.383870 0.059980 -0.611001
O12   O     O_R   0.094340 0.616130 0.940020 -0.651350
O13   O     O_R   0.092570 0.390420 0.063230 -0.606207
O14   O     O_R   0.907430 0.609580 0.936770 -0.592657
O15   O     O_R   0.900680 0.620930 0.055550 -0.627601
O16   O     O_R   0.099320 0.379070 0.944450 -0.628107
Zn1   Zn    Zn3+2 0.501730 0.123520 0.501540 0.924666
Zn2   Zn    Zn3+2 0.498270 0.876480 0.498460 0.923995
Zn3   Zn    Zn3+2 0.125690 0.504390 0.002180 0.930980
Zn4   Zn    Zn3+2 0.874310 0.495610 0.997820 0.954642
N1    N     N_3   0.795016 0.955580 0.171143 -0.466628
H19   H     H_    0.727991 0.903198 0.178428 0.176049
H20   H     H_    0.781895 0.991726 0.131223 0.181851
N2    N     N_3   0.209032 0.156404 0.773086 -0.452290
H21   H     H_    0.274119 0.148553 0.802637 0.186721
H22   H     H_    0.221935 0.229517 0.751805 0.176374
N3    N     N_3   0.794833 0.166493 0.231631 -0.448675
H23   H     H_    0.779342 0.235290 0.257216 0.175703
H24   H     H_    0.731159 0.156040 0.201074 0.187544
N4    N     N_3   0.202967 0.944485 0.823054 -0.456480
H25   H     H_    0.218074 0.985273 0.862582 0.203826
H26   H     H_    0.269186 0.893829 0.814709 0.190455
N5    N     N_3   0.037149 0.816346 0.311775 -0.469345
H27   H     H_    0.997537 0.798411 0.350413 0.205729
H28   H     H_    0.086137 0.750704 0.300316 0.198998
N6    N     N_3   0.875577 0.196007 0.729566 -0.465444
H29   H     H_    0.893029 0.251596 0.697232 0.183849
H30   H     H_    0.809270 0.224621 0.753499 0.212934
N7    N     N_3   0.174919 0.202848 0.092539 -0.430711
H31   H     H_    0.247130 0.212399 0.117416 0.181426
H32   H     H_    0.177651 0.127947 0.070530 0.180686
N8    N     N_3   0.813472 0.686378 0.845122 -0.428679
H33   H     H_    0.796230 0.650376 0.804564 0.176320
H34   H     H_    0.748666 0.737565 0.855449 0.179607
N9    N     N_3   0.824450 0.349772 0.162196 -0.441410
H35   H     H_    0.748224 0.313830 0.151003 0.183593
H36   H     H_    0.819544 0.386952 0.203099 0.173875
N10   N     N_3   0.195543 0.794225 0.907984 -0.480687
H37   H     H_    0.236834 0.722064 0.899887 0.213821
H38   H     H_    0.171244 0.801258 0.951087 0.207641
N11   N     N_3   0.197676 0.808669 0.395758 -0.481710
H39   H     H_    0.272749 0.772443 0.386779 0.209842
H40   H     H_    0.190719 0.826164 0.439979 0.205201
N12   N     N_3   0.690683 0.187323 0.660594 -0.481343
H41   H     H_    0.607411 0.164967 0.663442 0.199579
H42   H     H_    0.706062 0.227474 0.622117 0.211442
N13   N     N_3   0.135827 0.206471 0.282132 -0.469247
H43   H     H_    0.207459 0.234914 0.262300 0.186557
H44   H     H_    0.119274 0.259344 0.316768 0.175543
N14   N     N_3   0.947595 0.809259 0.676690 -0.468976
H45   H     H_    0.894843 0.742971 0.684103 0.179212
H46   H     H_    0.983113 0.797014 0.636173 0.190017

loop_
_geom_bond_atom_site_label_1
_geom_bond_atom_site_label_2
_ccdc_geom_bond_type
C16   C28   A    
C52   H12   S    
O6    Zn2   S    
C5    C37   A    
C53   H5    S    
C1    O1    A    
C2    O8    A    
C19   C31   A    
N6    H30   S    
N1    H19   S    
C39   C41   S    
C29   C49   A    
C14   N6    S    
C43   O13   A    
C55   N7    S    
C54   H6    S    
C2    O2    A    
N5    H28   S    
C21   C33   S    
N4    H25   S    
C18   H10   S    
N7    H31   S    
C22   C38   S    
C17   C29   A    
C20   H18   S    
C24   O6    A    
N8    H33   S    
C32   C52   A    
C13   N5    S    
O15   Zn4   S    
C38   C58   A    
C11   C35   A    
C24   O4    A    
C4    C40   A    
N7    H32   S    
C1    C28   S    
C50   C52   A    
C6    C38   A    
C2    C27   S    
C42   O10   A    
C12   C36   A    
C35   C43   S    
C18   C20   A    
C51   H11   S    
C45   C47   A    
C30   C50   A    
O12   Zn3   S    
C3    C39   A    
C15   N11   S    
C9    C33   A    
C13   C25   A    
C11   N9    S    
N11   H40   S    
C8    H16   S    
N6    H29   S    
N1    H20   S    
C48   H2    S    
C46   C48   A    
C53   C55   A    
C33   C53   A    
C22   C34   S    
C54   C56   A    
C17   H9    S    
C47   H1    S    
C49   H3    S    
C35   C55   A    
C10   C34   A    
C58   N2    S    
O3    Zn2   S    
N14   H46   S    
C5    C7    A    
C6    C8    A    
C49   C51   A    
O7    Zn2   S    
C21   C29   S    
O16   Zn3   S    
C23   C31   S    
O13   Zn3   S    
C3    H13   S    
C24   C32   S    
C36   C56   A    
O5    Zn1   S    
C15   C27   A    
C12   N10   S    
O10   Zn4   S    
C9    N3    S    
C57   N1    S    
O11   Zn4   S    
C7    H15   S    
N2    H22   S    
N3    H24   S    
C14   C26   A    
C9    C11   A    
N9    H35   S    
C10   C12   A    
C18   C30   A    
C3    C57   A    
C5    H7    S    
C41   O15   A    
C34   C54   A    
C13   C15   A    
N13   H43   S    
C50   H4    S    
C14   C16   A    
C36   C44   S    
N11   H39   S    
C25   C45   A    
C4    H14   S    
C44   O14   A    
N10   H38   S    
C20   C32   A    
C27   C47   A    
C21   C25   S    
C40   C42   S    
C28   C48   A    
C23   O5    A    
C56   N8    S    
C31   C51   A    
N14   H45   S    
O14   Zn4   S    
C1    O7    A    
C41   O9    A    
C45   N13   S    
N12   H42   S    
C43   O11   A    
C19   H17   S    
N12   H41   S    
C22   C30   S    
N5    H27   S    
O9    Zn3   S    
N4    H26   S    
O2    Zn2   S    
O1    Zn1   S    
N2    H21   S    
C17   C19   A    
C42   O16   A    
O8    Zn1   S    
N8    H34   S    
N9    H36   S    
C10   N4    S    
C26   C46   A    
C46   N14   S    
C6    H8    S    
C21   C37   S    
C22   C26   S    
C4    C58   A    
N3    H23   S    
N13   H44   S    
C7    C39   A    
C16   N12   S    
C8    C40   A    
C23   O3    A    
O4    Zn1   S    
C44   O12   A    
C37   C57   A    
N10   H37   S    
