data_mof_unit_37118.cif
_audit_creation_date              2013-03-05T16:34:04-0500
_audit_creation_method            fapswitch 2.2
_symmetry_space_group_name_H-M    P1
_symmetry_Int_Tables_number       1
_space_group_crystal_system       triclinic
_cell_length_a                    9.560203
_cell_length_b                    10.870029
_cell_length_c                    17.041857
_cell_angle_alpha                 88.221795
_cell_angle_beta                  93.916979
_cell_angle_gamma                 90.831889
_cell_volume                      1765.86014332

loop_
_atom_site_label
_atom_site_type_symbol
_atom_site_description
_atom_site_fract_x
_atom_site_fract_y
_atom_site_fract_z
_atom_type_partial_charge
O1    O     O_R   0.618810 0.319640 0.500000 -0.558286
O2    O     O_R   0.381230 0.319680 0.499990 -0.596889
C1    C     C_R   0.499418 0.262559 0.502945 0.828726
O3    O     O_R   0.631790 0.498830 0.613930 -0.600078
O4    O     O_R   0.394210 0.498870 0.613920 -0.597641
C2    C     C_R   0.517374 0.495587 0.651039 0.803335
Cu1   Cu    Cu3+1 0.640670 0.499980 0.500000 1.007696
Cu2   Cu    Cu3+1 0.359330 0.500020 0.500000 0.996754
O5    O     O_R   0.618770 0.680320 0.500010 -0.604688
O6    O     O_R   0.381190 0.680360 0.500000 -0.567187
O7    O     O_R   0.605790 0.501130 0.386080 -0.533783
O8    O     O_R   0.368210 0.501170 0.386070 -0.551619
C3    C     C_R   0.500531 0.737969 0.499233 0.858023
C4    C     C_R   0.482664 0.495289 0.349234 0.931703
C5    C     C_R   0.526632 0.481453 0.737203 -0.091059
C6    C     C_R   0.406475 0.448315 0.776246 -0.283225
C7    C     C_R   0.414100 0.426923 0.857764 0.339724
C8    C     C_R   0.544164 0.445276 0.901256 0.277613
C9    C     C_R   0.664260 0.475206 0.861895 -0.189460
C10   C     C_R   0.655933 0.493223 0.780480 -0.206537
C11   C     C_R   0.575495 0.422812 0.143543 -0.157592
C12   C     C_R   0.576620 0.417612 0.225774 0.324634
C13   C     C_R   0.470145 0.487435 0.098095 0.327040
N1    N     N_2   0.557103 0.437361 0.984372 -0.206082
N2    N     N_2   0.463508 0.494694 0.014647 -0.174519
C14   C     C_R   0.474145 0.483096 0.263272 -0.160065
H1    H     H_    0.654816 0.373441 0.115337 0.204989
H2    H     H_    0.764236 0.487298 0.894824 0.195650
H3    H     H_    0.750449 0.517092 0.751537 0.177900
C15   C     C_R   0.365825 0.541574 0.217394 -0.170862
C16   C     C_R   0.364656 0.544408 0.135746 -0.119349
H4    H     H_    0.282742 0.587009 0.244321 0.240634
H5    H     H_    0.281291 0.591978 0.101460 0.191133
H6    H     H_    0.307271 0.434133 0.742927 0.188882
C17   C     C_R   0.621051 0.064794 0.529485 -0.003308
C18   C     C_R   0.497585 0.129575 0.511392 -0.059159
C19   C     C_R   0.371134 0.063137 0.500289 -0.179507
H7    H     H_    0.272888 0.110290 0.488859 0.170227
C20   C     C_R   0.371923 0.934948 0.497911 -0.126285
H8    H     H_    0.272922 0.886715 0.487869 0.167511
C21   C     C_R   0.499864 0.871616 0.503114 -0.015328
C22   C     C_R   0.623077 0.939293 0.519816 -0.049517
C23   C     C_3   0.761340 0.948302 0.482444 0.067891
C24   C     C_3   0.763951 0.084571 0.500801 0.064740
H9    H     H_    0.845025 0.892141 0.513950 0.084446
H10   H     H_    0.767032 0.148939 0.448881 0.237441
C25   C     C_R   0.067039 0.548900 0.436864 0.186248
N3    N     N_R   0.147870 0.500930 0.499500 -0.204141
C26   C     C_R   0.080586 0.445015 0.559684 -0.082368
H11   H     H_    0.141156 0.401305 0.608420 0.145549
C27   C     C_R   0.932028 0.446035 0.560059 -0.034520
H12   H     H_    0.881979 0.403770 0.609312 0.161585
N4    N     N_R   0.851960 0.500890 0.499500 -0.218416
C28   C     C_R   0.918836 0.540581 0.435004 0.147683
C29   C     C_3   0.897876 0.662545 0.396191 0.064598
C30   C     C_3   0.055974 0.683276 0.410841 0.038284
H13   H     H_    0.833699 0.722523 0.429628 0.126381
H14   H     H_    0.081589 0.745247 0.460717 0.069773
N5    N     N_R   0.675754 0.339158 0.269594 0.152051
O9    O     O_R   0.634841 0.268860 0.327024 -0.358510
O10   O     O_R   0.797769 0.319812 0.243104 -0.272196
N6    N     N_R   0.751216 0.934371 0.396867 0.141668
O11   O     O_R   0.630476 0.922329 0.357490 -0.256534
O12   O     O_R   0.862916 0.953034 0.358421 -0.274374
N7    N     N_2   0.865480 0.115363 0.564701 -0.435198
H15   H     H_    0.856597 0.064586 0.616390 0.265076
C31   C     C_3   0.008216 0.127708 0.542590 -0.663358
H16   H     H_    0.075828 0.162125 0.592984 0.221797
H17   H     H_    0.014616 0.194355 0.492143 0.257924
H18   H     H_    0.047464 0.036893 0.526357 0.219849
N8    N     N_R   0.845586 0.649190 0.313834 0.203579
O13   O     O_R   0.735802 0.709781 0.286253 -0.256030
O14   O     O_R   0.901258 0.570746 0.269223 -0.292372
N9    N     N_R   0.132874 0.719818 0.342053 0.162153
O15   O     O_R   0.268393 0.730285 0.351683 -0.354255
O16   O     O_R   0.070618 0.782722 0.283861 -0.225178
N10   N     N_R   0.291695 0.381910 0.894753 0.137107
O17   O     O_R   0.303447 0.299231 0.951633 -0.297759
O18   O     O_R   0.167049 0.410917 0.865065 -0.360763

loop_
_geom_bond_atom_site_label_1
_geom_bond_atom_site_label_2
_geom_bond_distance
_ccdc_geom_bond_type
C29   C30   1.529593 S    
C21   C22   1.397061 A    
C9    C10   1.392208 A    
C3    C21   1.456430 S    
Cu1   Cu2   2.689674 S    
C20   C21   1.408439 A    
N10   O17   1.301510 A    
Cu1   O7    1.946943 S    
C19   H7    1.079644 S    
N9    O16   1.301677 A    
C8    N1    1.413463 S    
C18   C19   1.403808 A    
O1    C1    1.294467 A    
C15   C16   1.390113 A    
O7    C4    1.297393 A    
C5    C6    1.403409 A    
C8    C9    1.398160 A    
C26   H11   1.081049 S    
C17   C22   1.379751 A    
O5    C3    1.299481 A    
N6    O12   1.300708 A    
C6    H6    1.083168 S    
C2    C5    1.468422 S    
C17   C18   1.394666 A    
C6    C7    1.398554 A    
N7    C31   1.443575 S    
C16   H5    1.083308 S    
C11   H1    1.082467 S    
N5    O9    1.300767 A    
C11   C12   1.400054 A    
C24   N7    1.452176 S    
O3    Cu1   1.948863 S    
C24   H10   1.112585 S    
C10   H3    1.083159 S    
N10   O18   1.301556 A    
C5    C10   1.401811 A    
N5    O10   1.301412 A    
C30   N9    1.467262 S    
N9    O15   1.298558 A    
C31   H16   1.110136 S    
N1    N2    1.246769 D    
O3    C2    1.299874 A    
C12   N5    1.438892 S    
N8    O14   1.302697 A    
C26   C27   1.420899 A    
N4    C28   1.364393 A    
C27   H12   1.081244 S    
C27   N4    1.368845 A    
C13   C16   1.394089 A    
C23   C24   1.522896 S    
Cu2   N3    2.021202 S    
N6    O11   1.301959 A    
C9    H2    1.083225 S    
C25   N3    1.368546 A    
Cu2   O8    1.948865 S    
C7    N10   1.439162 S    
C7    C8    1.418213 A    
C4    C14   1.471632 S    
C17   C24   1.492562 S    
C23   H9    1.111840 S    
C25   C28   1.416680 A    
N3    C26   1.369388 A    
O8    C4    1.301463 A    
C14   C15   1.401913 A    
C29   H13   1.099378 S    
C22   C23   1.506582 S    
Cu1   N4    2.020455 S    
C20   H8    1.081201 S    
Cu1   O5    1.974477 S    
C28   C29   1.473247 S    
O1    Cu1   1.968390 S    
O2    Cu2   1.974477 S    
O6    C3    1.294142 A    
O4    Cu2   1.946943 S    
C31   H18   1.110716 S    
C11   C13   1.409943 A    
O2    C1    1.294374 A    
N8    O13   1.299906 A    
C19   C20   1.395412 A    
C15   H4    1.077334 S    
O4    C2    1.298427 A    
C1    C18   1.448211 S    
C30   H14   1.112870 S    
C13   N2    1.418985 S    
Cu2   O6    1.968390 S    
N7    H15   1.032714 S    
C12   C14   1.417348 A    
C31   H17   1.111262 S    
C29   N8    1.468164 S    
C23   N6    1.467382 S    
C25   C30   1.516349 S    
