data_mof_unit_43154.cif
_audit_creation_date              2012-12-10T17:35:36-0500
_audit_creation_method            fapswitch 2.2
_symmetry_space_group_name_H-M    P1
_symmetry_Int_Tables_number       1
_space_group_crystal_system       triclinic
_cell_length_a                    10.815169
_cell_length_b                    12.34891
_cell_length_c                    13.27631
_cell_angle_alpha                 116.674377
_cell_angle_beta                  76.519832
_cell_angle_gamma                 101.795072
_cell_volume                      1530.57719262

loop_
_atom_site_label
_atom_site_type_symbol
_atom_type_description
_atom_site_fract_x
_atom_site_fract_y
_atom_site_fract_z
_atom_type_partial_charge
C1    C     C_R   0.505396 0.854560 0.287124 0.792398
C2    C     C_3   0.122849 0.002655 0.498769 -0.212561
C3    C     C_3   0.056814 0.090012 0.618855 0.220484
C4    C     C_3   0.049736 0.872674 0.471698 -0.550594
C5    C     C_R   0.449537 0.261526 0.034388 -0.129607
C6    C     C_R   0.492466 0.223449 0.834873 -0.157706
C7    C     C_R   0.539479 0.815381 0.080156 0.397475
C8    C     C_R   0.574774 0.736562 0.967070 -0.087589
C9    C     C_R   0.571570 0.613047 0.935283 -0.184217
C10   C     C_R   0.519122 0.561386 0.014163 0.093641
C11   C     C_R   0.474783 0.640033 0.129529 -0.015940
C12   C     C_R   0.740167 0.998266 0.496539 0.807272
C13   C     C_R   0.505465 0.433119 0.980977 0.103857
C14   C     C_R   0.462386 0.386719 0.064573 0.057307
C15   C     C_R   0.416909 0.463209 0.175413 -0.225695
C16   C     C_R   0.407184 0.583821 0.203366 -0.012006
C17   C     C_R   0.523799 0.348760 0.866423 -0.201097
C18   C     C_R   0.462280 0.179061 0.920263 0.412638
C19   C     C_R   0.500687 0.769891 0.165029 -0.206536
C20   C     C_R   0.682249 0.326878 0.302968 0.290565
C21   C     C_R   0.315657 0.751641 0.634190 0.073984
C22   C     C_R   0.260749 0.643233 0.642501 0.330272
C23   C     C_R   0.489965 0.144141 0.713079 0.880717
C24   C     C_R   0.323858 0.539016 0.580796 -0.117698
C25   C     C_R   0.447298 0.543365 0.516482 -0.043261
C26   C     C_R   0.491093 0.651290 0.499595 0.271370
C27   C     C_R   0.522832 0.441272 0.460783 -0.105078
C28   C     C_R   0.621583 0.436022 0.367182 -0.042933
C29   C     C_R   0.657011 0.541319 0.344891 -0.063505
C30   C     C_R   0.596643 0.646720 0.413710 -0.161454
C31   C     C_R   0.509437 0.348140 0.499573 0.542862
C32   C     C_R   0.655313 0.234174 0.340249 0.091133
C33   C     C_R   0.260233 0.999980 0.499387 0.875432
C34   C     C_3   0.965963 0.017349 0.387126 0.252131
C35   C     C_3   0.110019 0.038565 0.402136 0.242226
C36   C     C_3   0.920820 0.108368 0.611158 0.230630
C37   C     C_3   0.904724 0.875381 0.488558 0.108518
C38   C     C_3   0.878723 0.001160 0.496784 -0.250195
Cu1   Cu    Cu3+1 0.529690 0.098270 0.475420 1.100705
Cu2   Cu    Cu3+1 0.470310 0.901730 0.524580 1.004725
H1    H     H_    0.069968 0.833361 0.526077 0.283965
H2    H     H_    0.046129 0.042687 0.675411 0.133704
H3    H     H_    0.372093 0.424671 0.236275 0.170656
H4    H     H_    0.420297 0.227231 0.099659 0.201718
H5    H     H_    0.554257 0.378684 0.799387 0.212208
H6    H     H_    0.610462 0.560895 0.847505 0.188849
H7    H     H_    0.609231 0.771975 0.902952 0.221279
H8    H     H_    0.699223 0.150708 0.290050 0.226952
H9    H     H_    0.265015 0.831579 0.678994 0.181420
H10   H     H_    0.272039 0.454097 0.579758 0.272726
H11   H     H_    0.632771 0.722868 0.393864 0.186762
H12   H     H_    0.167084 0.979028 0.321147 0.098040
H13   H     H_    0.867618 0.798853 0.413423 0.149815
H14   H     H_    0.082308 0.811584 0.381208 0.194588
N1    N     N_R   0.574690 0.246280 0.438200 -0.248614
N2    N     N_R   0.426100 0.754320 0.561190 -0.227608
O1    O     O_R   0.537340 0.972510 0.318130 -0.544383
O2    O     O_R   0.487200 0.806530 0.359650 -0.630244
O3    O     O_R   0.707380 0.082980 0.479220 -0.513991
O4    O     O_R   0.657240 0.917000 0.520740 -0.571479
O5    O     O_R   0.512800 0.193470 0.640350 -0.525923
O6    O     O_R   0.462660 0.027490 0.681870 -0.540166
O7    O     O_R   0.342760 0.083000 0.479260 -0.493234
O8    O     O_R   0.292620 0.917020 0.520780 -0.608461
Cl1   Cl    Cl    0.929872 0.133642 0.354116 -0.424500
C39   C     C_1   0.831738 0.109941 0.714875 0.347046
N3    N     N_1   0.762693 0.111816 0.796495 -0.147905
Cl2   Cl    Cl    0.434301 0.022983 0.892189 -0.487530
Cl3   Cl    Cl    0.546118 0.970093 0.107945 -0.513822
C40   C     C_1   0.945746 0.906370 0.281045 0.175357
N4    N     N_1   0.929991 0.820148 0.197906 -0.197534
C41   C     C_1   0.304102 0.633149 0.294952 0.325994
N5    N     N_1   0.220652 0.667892 0.369049 -0.270145
C42   C     C_1   0.760824 0.550779 0.257187 0.345952
N6    N     N_1   0.843736 0.559615 0.187297 -0.174485
Cl4   Cl    Cl    0.785788 0.292438 0.171045 -0.483724
Cl5   Cl    Cl    0.429204 0.377754 0.638977 -0.537875
Cl6   Cl    Cl    0.109418 0.635947 0.725012 -0.428108
Cl7   Cl    Cl    0.184986 0.191348 0.424376 -0.420670
Cl8   Cl    Cl    0.916499 0.256686 0.617987 -0.383608
Cl9   Cl    Cl    0.152300 0.230134 0.691729 -0.412885
Cl10  Cl    Cl    0.826045 0.836642 0.605648 -0.542808

loop_
_geom_bond_atom_site_label_1
_geom_bond_atom_site_label_2
_ccdc_geom_bond_type
C2    C35   S    
C30   H11   S    
C3    H2    S    
Cu2   O4    S    
C16   C41   S    
C21   H9    S    
C7    C8    A    
C11   C19   A    
C29   C30   A    
C28   C29   A    
C17   H5    S    
C36   C39   S    
C4    H1    S    
C18   Cl2   S    
C15   C16   A    
Cu1   O1    S    
Cu2   O6    S    
C20   Cl4   S    
C34   C35   S    
C12   O3    A    
C23   O6    A    
Cu1   N1    S    
C8    C9    A    
Cu2   N2    S    
C3    Cl9   S    
C40   N4    T    
C9    C10   A    
C34   C40   S    
C32   N1    A    
C37   H13   S    
C39   N3    T    
C9    H6    S    
C21   C22   A    
C32   H8    S    
C6    C18   A    
C34   Cl1   S    
C31   Cl5   S    
C24   H10   S    
Cu1   O5    S    
C1    C19   S    
Cu2   O2    S    
C42   N6    T    
C27   C31   A    
C24   C25   A    
C22   Cl6   S    
C36   Cl8   S    
Cu1   Cu2   S    
C5    C18   A    
C20   C28   A    
C25   C26   A    
C2    C4    S    
C37   C38   S    
C1    O1    A    
C11   C16   A    
C33   O7    A    
Cu1   O3    S    
C5    C14   A    
C2    C33   S    
C5    H4    S    
C26   C30   A    
C7    C19   A    
C22   C24   A    
C37   Cl10  S    
C35   H12   S    
C20   C32   A    
C6    C17   A    
C4    H14   S    
C34   C38   S    
C41   N5    T    
C10   C13   A    
C26   N2    A    
C7    Cl3   S    
C21   N2    A    
C29   C42   S    
C25   C27   A    
Cu1   O7    S    
Cu2   O8    S    
C13   C17   A    
C36   C38   S    
C2    C3    S    
C8    H7    S    
C15   H3    S    
C1    O2    A    
C3    C36   S    
C33   O8    A    
C6    C23   S    
C35   Cl7   S    
C12   C38   S    
C10   C11   A    
C12   O4    A    
C23   O5    A    
C4    C37   S    
C27   C28   A    
C14   C15   A    
C31   N1    A    
C13   C14   A    
