data_mof_unit_35955.cif
_audit_creation_date              2012-12-10T18:05:15-0500
_audit_creation_method            fapswitch 2.2
_symmetry_space_group_name_H-M    P1
_symmetry_Int_Tables_number       1
_space_group_crystal_system       triclinic
_cell_length_a                    9.589341
_cell_length_b                    10.842811
_cell_length_c                    17.049027
_cell_angle_alpha                 86.826821
_cell_angle_beta                  93.766464
_cell_angle_gamma                 90.187933
_cell_volume                      1766.13863634

loop_
_atom_site_label
_atom_site_type_symbol
_atom_type_description
_atom_site_fract_x
_atom_site_fract_y
_atom_site_fract_z
_atom_type_partial_charge
C1    C     C_R   0.499478 0.262223 0.502027 0.798725
C2    C     C_R   0.500534 0.737613 0.499258 0.806057
C3    C     C_R   0.394706 0.929595 0.535368 -0.208631
C4    C     C_R   0.607149 0.069338 0.469602 -0.270665
C5    C     C_R   0.502121 0.871365 0.500101 -0.067467
C6    C     C_R   0.498064 0.128062 0.503261 -0.086900
C7    C     C_R   0.082090 0.416326 0.545925 -0.055105
C8    C     C_R   0.918653 0.585188 0.455129 -0.065905
C9    C     C_R   0.933683 0.412775 0.545783 0.245576
C10   C     C_R   0.066260 0.585125 0.453142 0.265201
C11   C     C_R   0.516231 0.502512 0.651016 0.868240
C12   C     C_R   0.483115 0.507151 0.349026 0.849827
C13   C     C_R   0.516477 0.508355 0.737727 -0.089843
C14   C     C_R   0.475862 0.526484 0.262517 -0.138008
C15   C     C_R   0.401125 0.564516 0.769809 0.049624
C16   C     C_R   0.568960 0.610383 0.226106 0.041186
C17   C     C_R   0.380048 0.547149 0.850877 0.052796
C18   C     C_R   0.566317 0.625428 0.143733 0.101710
C19   C     C_R   0.482271 0.482339 0.900385 0.305857
C20   C     C_R   0.472906 0.555279 0.097412 0.266734
C21   C     C_R   0.601504 0.434467 0.869717 0.068484
C22   C     C_R   0.372739 0.478661 0.133191 0.093633
C23   C     C_R   0.618839 0.446818 0.788199 0.018164
C24   C     C_R   0.375214 0.463500 0.216001 0.035774
C25   C     C_R   0.391003 0.057045 0.537171 0.158514
C26   C     C_R   0.610171 0.941548 0.467763 0.162169
Cu1   Cu    Cu3+1 0.640660 0.500020 0.500000 0.936513
Cu2   Cu    Cu3+1 0.359340 0.499980 0.500000 0.939892
H1    H     H_    0.313887 0.875726 0.562783 0.177833
H2    H     H_    0.689719 0.122651 0.443403 0.156872
H3    H     H_    0.146842 0.350870 0.581236 0.151992
H4    H     H_    0.856635 0.652670 0.419410 0.160483
N1    N     N_2   0.468584 0.466159 0.982254 -0.163199
N2    N     N_2   0.481695 0.566006 0.014658 -0.251389
N3    N     N_R   0.852070 0.500030 0.499980 -0.203380
N4    N     N_R   0.147930 0.499970 0.500020 -0.196911
O1    O     O_R   0.618740 0.319660 0.500000 -0.611357
O2    O     O_R   0.381260 0.680340 0.500000 -0.594731
O3    O     O_R   0.381170 0.319630 0.500010 -0.586687
O4    O     O_R   0.618830 0.680370 0.499990 -0.553386
O5    O     O_R   0.631780 0.498870 0.613920 -0.573615
O6    O     O_R   0.368220 0.501130 0.386080 -0.572905
O7    O     O_R   0.394210 0.498840 0.613930 -0.565167
O8    O     O_R   0.605790 0.501160 0.386070 -0.592549
N5    N     N_3   0.666864 0.682276 0.271712 -0.600976
H5    H     H_    0.745676 0.623916 0.297077 0.240005
H6    H     H_    0.615312 0.724393 0.315299 0.226124
N6    N     N_3   0.305953 0.639253 0.718815 -0.564915
H7    H     H_    0.205480 0.601811 0.720063 0.237279
H8    H     H_    0.306039 0.729030 0.738214 0.209211
C27   C     C_3   0.669655 0.711818 0.104792 -0.340485
C28   C     C_3   0.803764 0.643386 0.090571 -0.810112
H9    H     H_    0.854406 0.605580 0.147276 0.249899
H10   H     H_    0.780707 0.566472 0.051291 0.267931
H11   H     H_    0.877567 0.708066 0.062081 0.230398
H12   H     H_    0.623410 0.753083 0.047896 0.196055
H13   H     H_    0.695720 0.791361 0.141408 0.219493
C29   C     C_3   0.243974 0.587952 0.883063 -0.358232
C30   C     C_3   0.138930 0.481947 0.884609 -0.832304
H14   H     H_    0.113393 0.451838 0.824118 0.236552
H15   H     H_    0.181944 0.402229 0.922123 0.275604
H16   H     H_    0.041328 0.513076 0.909052 0.231784
H17   H     H_    0.260825 0.621593 0.943044 0.230804
H18   H     H_    0.195875 0.667517 0.847788 0.184962
N7    N     N_3   0.703856 0.371914 0.922697 -0.577330
H19   H     H_    0.799731 0.416975 0.918352 0.212720
H20   H     H_    0.714091 0.281193 0.906151 0.217128
N8    N     N_3   0.267617 0.418867 0.084925 -0.572440
H21   H     H_    0.169219 0.448325 0.099194 0.211522
H22   H     H_    0.275315 0.323416 0.096557 0.219867
N9    N     N_3   0.737571 0.393561 0.756275 -0.587309
H23   H     H_    0.738100 0.298723 0.770895 0.215290
H24   H     H_    0.828198 0.432639 0.781772 0.228563
N10   N     N_3   0.278383 0.381821 0.253331 -0.568573
H25   H     H_    0.176692 0.411919 0.236879 0.216122
H26   H     H_    0.291135 0.292960 0.234083 0.215282
N11   N     N_3   0.279089 0.110437 0.575341 -0.614939
H27   H     H_    0.320404 0.170764 0.616643 0.215100
H28   H     H_    0.213633 0.158292 0.532766 0.237293
N12   N     N_3   0.723108 0.884007 0.432912 -0.601506
H29   H     H_    0.815262 0.908321 0.464502 0.222715
H30   H     H_    0.727181 0.920740 0.375089 0.208957
C31   C     C_3   0.869527 0.302779 0.589827 -0.341461
C32   C     C_3   0.958076 0.246174 0.660970 -0.949152
H31   H     H_    0.044892 0.190336 0.641782 0.262963
H32   H     H_    0.999998 0.319248 0.699156 0.261674
H33   H     H_    0.892711 0.182225 0.696094 0.255508
H34   H     H_    0.770853 0.328564 0.613107 0.276923
H35   H     H_    0.848484 0.229038 0.547973 0.200754
C33   C     C_3   0.124921 0.679002 0.394701 -0.367319
C34   C     C_3   0.098482 0.811871 0.415391 -0.872456
H36   H     H_    0.111173 0.821295 0.479966 0.266096
H37   H     H_    0.173239 0.875124 0.386400 0.248460
H38   H     H_    0.991705 0.840459 0.393350 0.242053
H39   H     H_    0.236415 0.670082 0.388437 0.257904
H40   H     H_    0.075097 0.664625 0.335140 0.166457

loop_
_geom_bond_atom_site_label_1
_geom_bond_atom_site_label_2
_ccdc_geom_bond_type
C7    N4    A    
C32   H33   S    
C33   H39   S    
N5    H5    S    
N10   H26   S    
C25   N11   S    
C19   C21   A    
C32   H32   S    
C6    C25   A    
C13   C23   A    
C7    C9    A    
C27   H12   S    
N5    H6    S    
C14   C24   A    
C3    H1    S    
Cu1   O5    S    
C12   O6    A    
Cu1   O8    S    
N8    H21   S    
N7    H20   S    
C11   O7    A    
C27   H13   S    
C18   C20   A    
C28   H11   S    
C1    O1    A    
C17   C29   S    
C20   N2    S    
N6    H8    S    
C31   H34   S    
C30   H14   S    
C15   N6    S    
C28   H10   S    
C18   C27   S    
N11   H28   S    
C29   H18   S    
C31   H35   S    
C30   H15   S    
C7    H3    S    
N10   H25   S    
C1    C6    S    
C8    H4    S    
C23   N9    S    
C3    C25   A    
Cu2   N4    S    
C32   H31   S    
N12   H30   S    
C19   N1    S    
C34   H36   S    
N9    H24   S    
Cu2   O3    S    
Cu1   N3    S    
C29   C30   S    
N11   H27   S    
C26   N12   S    
C27   C28   S    
C8    N3    A    
C34   H37   S    
C2    O2    A    
C31   C32   S    
Cu2   O2    S    
Cu1   O4    S    
N1    N2    D    
C16   C18   A    
C22   N8    S    
C9    C31   S    
C4    C6    A    
N6    H7    S    
C12   C14   S    
C13   C15   A    
C14   C16   A    
C2    C5    S    
C28   H9    S    
C29   H17   S    
C15   C17   A    
C30   H16   S    
C21   N7    S    
C20   C22   A    
N12   H29   S    
C3    C5    A    
C16   N5    S    
C4    C26   A    
C33   H40   S    
Cu2   O7    S    
C21   C23   A    
N9    H23   S    
C12   O8    A    
C34   H38   S    
C11   C13   S    
C24   N10   S    
C33   C34   S    
Cu1   O1    S    
Cu2   O6    S    
C17   C19   A    
C11   O5    A    
C22   C24   A    
C1    O3    A    
C5    C26   A    
C2    O4    A    
C10   C33   S    
C8    C10   A    
N7    H19   S    
Cu1   Cu2   S    
C9    N3    A    
N8    H22   S    
C10   N4    A    
C4    H2    S    
