data_mof_unit_26660.cif
_audit_creation_date              2012-12-11T16:51:17-0500
_audit_creation_method            fapswitch 2.2
_symmetry_space_group_name_H-M    P1
_symmetry_Int_Tables_number       1
_space_group_crystal_system       triclinic
_cell_length_a                    24.514324
_cell_length_b                    17.250307
_cell_length_c                    15.512415
_cell_angle_alpha                 90.013611
_cell_angle_beta                  128.897562
_cell_angle_gamma                 89.980743
_cell_volume                      5105.3598291

loop_
_atom_site_label
_atom_site_type_symbol
_atom_type_description
_atom_site_fract_x
_atom_site_fract_y
_atom_site_fract_z
_atom_type_partial_charge
C1    C     C_R   0.832903 0.892987 0.198620 -0.131502
C2    C     C_R   0.167100 0.892994 0.801404 -0.131553
C3    C     C_R   0.332902 0.392986 0.198621 -0.131506
C4    C     C_R   0.667100 0.392995 0.801405 -0.131542
C5    C     C_R   0.887918 0.109191 0.593315 -0.156235
C6    C     C_R   0.112052 0.109200 0.406680 -0.158024
C7    C     C_R   0.387918 0.609186 0.593316 -0.156518
C8    C     C_R   0.612054 0.609201 0.406681 -0.157736
C9    C     C_R   0.821626 0.129753 0.501437 0.078308
C10   C     C_R   0.178256 0.129893 0.498581 0.079451
C11   C     C_R   0.321633 0.629759 0.501436 0.078389
C12   C     C_R   0.678267 0.629881 0.498581 0.079336
C13   C     C_R   0.882287 0.181897 0.208178 0.150431
C14   C     C_R   0.117684 0.181899 0.791839 0.150255
C15   C     C_R   0.382285 0.681895 0.208172 0.150420
C16   C     C_R   0.617692 0.681890 0.791859 0.150278
C17   C     C_R   0.841023 0.734519 0.607725 0.098153
C18   C     C_R   0.157981 0.732796 0.392092 0.098670
C19   C     C_R   0.340882 0.234769 0.607704 0.097916
C20   C     C_R   0.657840 0.232540 0.392068 0.098692
C21   C     C_R   0.835360 0.743757 0.512633 0.027251
C22   C     C_R   0.164274 0.743134 0.487605 0.027166
C23   C     C_R   0.335323 0.243834 0.512684 0.027336
C24   C     C_R   0.664234 0.243055 0.487646 0.027148
C25   C     C_R   0.786242 0.698441 0.418675 -0.187865
C26   C     C_R   0.214001 0.698516 0.582088 -0.187977
C27   C     C_R   0.286304 0.198404 0.418812 -0.187843
C28   C     C_R   0.714057 0.198551 0.582214 -0.188009
C29   C     C_R   0.235635 0.156648 0.414462 -0.205604
C30   C     C_R   0.764772 0.156880 0.586462 -0.205661
C31   C     C_R   0.735574 0.656694 0.414342 -0.205438
C32   C     C_R   0.264712 0.656834 0.586350 -0.205831
C33   C     C_R   0.232782 0.163777 0.501865 0.056261
C34   C     C_R   0.766928 0.163223 0.498245 0.053161
C35   C     C_R   0.732809 0.663723 0.501853 0.055853
C36   C     C_R   0.266954 0.663275 0.498230 0.053597
C37   C     C_R   0.286183 0.202736 0.597107 0.088488
C38   C     C_R   0.712746 0.201211 0.402622 0.092366
C39   C     C_R   0.786307 0.702563 0.597142 0.088940
C40   C     C_R   0.212863 0.701379 0.402651 0.091878
C41   C     C_3   0.789564 0.757437 0.675760 -0.098931
C42   C     C_3   0.208020 0.754932 0.321483 -0.100026
C43   C     C_3   0.289173 0.257826 0.675286 -0.098571
C44   C     C_3   0.707650 0.254546 0.321044 -0.100130
C45   C     C_R   0.082218 0.854261 0.406334 -0.156617
C46   C     C_R   0.917723 0.854362 0.593721 -0.156618
C47   C     C_R   0.582220 0.354254 0.406339 -0.156569
C48   C     C_R   0.417722 0.354371 0.593731 -0.156570
C49   C     C_3   0.853663 0.790716 0.693689 -0.128099
C50   C     C_3   0.143610 0.787391 0.303395 -0.128397
C51   C     C_3   0.353236 0.291219 0.693214 -0.128002
C52   C     C_3   0.643193 0.286870 0.302936 -0.128397
C53   C     C_2   0.193465 0.848594 0.980080 -0.226741
C54   C     C_2   0.806502 0.848582 0.019911 -0.226599
C55   C     C_2   0.693464 0.348594 0.980081 -0.226759
C56   C     C_2   0.306500 0.348584 0.019909 -0.226583
C57   C     C_2   0.262993 0.846685 0.038034 -0.110115
C58   C     C_2   0.736979 0.846653 0.962017 -0.110212
C59   C     C_2   0.762993 0.346685 0.038037 -0.110100
C60   C     C_2   0.236976 0.346655 0.962014 -0.110222
C61   C     C_2   0.857085 0.254621 0.146058 -0.218245
C62   C     C_2   0.142881 0.254622 0.853981 -0.218369
C63   C     C_2   0.357083 0.754619 0.146052 -0.218260
C64   C     C_2   0.642892 0.754610 0.854007 -0.218351
C65   C     C_2   0.804487 0.293568 0.131023 -0.108107
C66   C     C_2   0.195479 0.293540 0.869023 -0.107422
C67   C     C_2   0.304487 0.793566 0.131018 -0.108033
C68   C     C_2   0.695481 0.793534 0.869034 -0.107512
C69   C     C_R   0.161014 0.855204 0.590565 -0.118337
C70   C     C_R   0.838930 0.855264 0.409448 -0.118746
C71   C     C_R   0.661012 0.355203 0.590566 -0.118307
C72   C     C_R   0.338928 0.355265 0.409453 -0.118819
C73   C     C_R   0.077147 0.894392 0.803897 -0.162238
C74   C     C_R   0.922829 0.894409 0.196066 -0.161606
C75   C     C_R   0.577146 0.394390 0.803895 -0.162323
C76   C     C_R   0.422827 0.394412 0.196064 -0.161492
C77   C     C_R   0.852716 0.875263 0.134895 0.160361
C78   C     C_R   0.147268 0.875259 0.865093 0.160327
C79   C     C_R   0.352715 0.375264 0.134894 0.160364
C80   C     C_R   0.647268 0.375258 0.865094 0.160322
C81   C     C_R   0.133962 0.811421 0.496234 0.069193
C82   C     C_R   0.865941 0.811584 0.503821 0.068473
C83   C     C_R   0.633961 0.311410 0.496242 0.069338
C84   C     C_R   0.365939 0.311597 0.503834 0.068346
C85   C     C_R   0.813489 0.107273 0.408929 -0.135559
C86   C     C_R   0.186434 0.107469 0.591114 -0.135759
C87   C     C_R   0.313495 0.607290 0.408925 -0.135603
C88   C     C_R   0.686442 0.607447 0.591110 -0.135699
C89   C     C_R   0.940989 0.140202 0.240464 -0.146328
C90   C     C_R   0.058994 0.140207 0.759551 -0.145931
C91   C     C_R   0.440988 0.640200 0.240461 -0.146298
C92   C     C_R   0.558998 0.640202 0.759563 -0.145963
C93   C     C_R   0.150321 0.139816 0.759490 -0.129225
C94   C     C_R   0.849655 0.139817 0.240512 -0.129340
C95   C     C_R   0.650328 0.639808 0.759507 -0.129255
C96   C     C_R   0.349654 0.639816 0.240507 -0.129328
H1    H     H_    0.780337 0.895146 0.172109 0.081392
H2    H     H_    0.219677 0.895165 0.827961 0.081418
H3    H     H_    0.280337 0.395142 0.172113 0.081401
H4    H     H_    0.719677 0.395169 0.827965 0.081408
H5    H     H_    0.196351 0.124081 0.340532 0.123747
H6    H     H_    0.804639 0.125134 0.660906 0.123566
H7    H     H_    0.696219 0.624225 0.340349 0.123753
H8    H     H_    0.304511 0.624988 0.660732 0.123557
H9    H     H_    0.800065 0.729939 0.749724 0.118357
H10   H     H_    0.197661 0.726264 0.248267 0.117729
H11   H     H_    0.299670 0.230531 0.749355 0.118476
H12   H     H_    0.697318 0.225689 0.247956 0.117638
H13   H     H_    0.847460 0.852611 0.668789 0.114545
H14   H     H_    0.148738 0.849774 0.325636 0.114161
H15   H     H_    0.346879 0.353031 0.667896 0.114518
H16   H     H_    0.648147 0.349325 0.324745 0.114070
H17   H     H_    0.783971 0.276541 0.173013 0.128995
H18   H     H_    0.215994 0.276500 0.827022 0.128066
H19   H     H_    0.283969 0.776539 0.173006 0.128888
H20   H     H_    0.715988 0.776500 0.827017 0.128194
H21   H     H_    0.287581 0.872699 0.006449 0.126154
H22   H     H_    0.712402 0.872669 0.993642 0.126090
H23   H     H_    0.787580 0.372700 0.006451 0.126155
H24   H     H_    0.212400 0.372666 0.993642 0.126087
H25   H     H_    0.876736 0.271781 0.102601 0.128891
H26   H     H_    0.123234 0.271800 0.897448 0.128874
H27   H     H_    0.376734 0.771779 0.102595 0.128891
H28   H     H_    0.623253 0.771781 0.897490 0.128872
H29   H     H_    0.169628 0.822033 0.012842 0.130446
H30   H     H_    0.830327 0.822027 0.987105 0.130724
H31   H     H_    0.669628 0.322033 0.012843 0.130405
H32   H     H_    0.330325 0.322031 0.987102 0.130778
H33   H     H_    0.048546 0.898042 0.835612 0.097854
H34   H     H_    0.951414 0.898055 0.164326 0.097051
H35   H     H_    0.548545 0.398039 0.835609 0.097944
H36   H     H_    0.451411 0.398059 0.164322 0.096899
H37   H     H_    0.765123 0.104130 0.324769 0.088044
H38   H     H_    0.234787 0.104643 0.675338 0.088061
H39   H     H_    0.265131 0.604183 0.324756 0.088040
H40   H     H_    0.734796 0.604586 0.675327 0.088054
H41   H     H_    0.977428 0.155908 0.226335 0.097234
H42   H     H_    0.022553 0.155916 0.773688 0.097171
H43   H     H_    0.477427 0.655905 0.226330 0.097221
H44   H     H_    0.522559 0.655910 0.773703 0.097180
H45   H     H_    0.198835 0.152685 0.774952 0.083080
H46   H     H_    0.801125 0.152672 0.225030 0.083289
H47   H     H_    0.698846 0.652671 0.774978 0.083106
H48   H     H_    0.301123 0.652671 0.225023 0.083260
H49   H     H_    0.908237 0.108875 0.678517 0.089309
H50   H     H_    0.091755 0.108943 0.321487 0.089904
H51   H     H_    0.408235 0.608878 0.678517 0.089392
H52   H     H_    0.591753 0.608940 0.321487 0.089817
H53   H     H_    0.782886 0.701029 0.345722 0.128745
H54   H     H_    0.217835 0.701697 0.655447 0.128520
H55   H     H_    0.283026 0.200898 0.345927 0.128777
H56   H     H_    0.717968 0.201826 0.655636 0.128492
N1    N     N_R   0.888400 0.921830 0.294620 -0.042287
N2    N     N_R   0.111600 0.921830 0.705380 -0.042305
N3    N     N_R   0.388400 0.421830 0.294620 -0.042285
N4    N     N_R   0.611600 0.421830 0.705380 -0.042306
N5    N     N_R   0.079940 0.922160 0.443410 -0.041709
N6    N     N_R   0.920060 0.922160 0.556590 -0.041840
N7    N     N_R   0.579940 0.422160 0.443410 -0.041698
N8    N     N_R   0.420060 0.422160 0.556590 -0.041857
N9    N     N_R   0.125650 0.922400 0.556620 -0.040492
N10   N     N_R   0.874350 0.922400 0.443380 -0.040516
N11   N     N_R   0.625650 0.422400 0.556620 -0.040495
N12   N     N_R   0.374350 0.422400 0.443380 -0.040516
N13   N     N_R   0.054230 0.922730 0.705400 -0.040567
N14   N     N_R   0.945770 0.922730 0.294600 -0.040636
N15   N     N_R   0.554230 0.422730 0.705400 -0.040551
N16   N     N_R   0.445770 0.422730 0.294600 -0.040651
N17   N     N_R   0.873790 0.077030 0.443380 -0.038269
N18   N     N_R   0.126210 0.077030 0.556620 -0.038144
N19   N     N_R   0.373790 0.577030 0.443380 -0.038244
N20   N     N_R   0.626210 0.577030 0.556620 -0.038166
N21   N     N_R   0.945200 0.076700 0.294600 -0.040705
N22   N     N_R   0.054800 0.076700 0.705400 -0.040763
N23   N     N_R   0.445200 0.576700 0.294600 -0.040719
N24   N     N_R   0.554800 0.576700 0.705400 -0.040749
N25   N     N_R   0.111030 0.077600 0.705380 -0.042649
N26   N     N_R   0.888970 0.077600 0.294620 -0.042688
N27   N     N_R   0.611030 0.577600 0.705380 -0.042654
N28   N     N_R   0.388970 0.577600 0.294620 -0.042681
N29   N     N_R   0.919490 0.077280 0.556590 -0.035104
N30   N     N_R   0.080510 0.077280 0.443410 -0.035076
N31   N     N_R   0.419490 0.577280 0.556590 -0.035091
N32   N     N_R   0.580510 0.577280 0.443410 -0.035085
Ni1   Ni    Ni4+2 0.882160 0.999430 0.370180 0.210038
Ni2   Ni    Ni4+2 0.117840 0.999430 0.629820 0.210252
Ni3   Ni    Ni4+2 0.382160 0.499430 0.370180 0.210038
Ni4   Ni    Ni4+2 0.617840 0.499430 0.629820 0.210249
Ni5   Ni    Ni4+2 0.012460 0.999430 0.370180 0.208816
Ni6   Ni    Ni4+2 0.987540 0.999430 0.629820 0.208861
Ni7   Ni    Ni4+2 0.512460 0.499430 0.370180 0.208814
Ni8   Ni    Ni4+2 0.487540 0.499430 0.629820 0.208859
N33   N     N_2   0.734555 0.816238 0.623105 -0.098539
H57   H     H_    0.750963 0.866467 0.669426 0.171147
C97   C     C_3   0.665401 0.793584 0.582974 -0.869021
H58   H     H_    0.635723 0.845574 0.574924 0.237048
H59   H     H_    0.668400 0.752780 0.640830 0.240680
H60   H     H_    0.635727 0.768038 0.499242 0.263409
N34   N     N_2   0.261705 0.815119 0.371154 -0.098795
H61   H     H_    0.244423 0.863839 0.321731 0.170642
C98   C     C_3   0.331716 0.793602 0.414311 -0.869392
H62   H     H_    0.360812 0.845976 0.421825 0.237245
H63   H     H_    0.330349 0.752151 0.358570 0.240857
H64   H     H_    0.360887 0.769334 0.498672 0.263356
N35   N     N_2   0.233958 0.316399 0.622118 -0.098509
H65   H     H_    0.250223 0.366882 0.667887 0.171203
C99   C     C_3   0.164947 0.293588 0.582506 -0.868990
H66   H     H_    0.135187 0.345527 0.574357 0.237016
H67   H     H_    0.168208 0.252914 0.640722 0.240648
H68   H     H_    0.135185 0.267815 0.498893 0.263432
N36   N     N_2   0.761120 0.314951 0.370223 -0.098847
H69   H     H_    0.743708 0.363414 0.320300 0.170577
C100  C     C_3   0.831269 0.293628 0.413887 -0.869491
H70   H     H_    0.860274 0.346067 0.421317 0.237296
H71   H     H_    0.830175 0.252076 0.358504 0.240890
H72   H     H_    0.860346 0.269569 0.498343 0.263335
N37   N     N_2   0.919221 0.778067 0.805251 -0.108014
H73   H     H_    0.922892 0.810001 0.864921 0.166997
C101  C     C_3   0.947504 0.700296 0.840879 -0.916501
H74   H     H_    0.999754 0.703045 0.923947 0.245277
H75   H     H_    0.955131 0.673866 0.783885 0.259006
H76   H     H_    0.912369 0.663405 0.845640 0.240447
N38   N     N_2   0.077928 0.772232 0.192904 -0.107603
H77   H     H_    0.072997 0.803226 0.131494 0.166899
C102  C     C_3   0.051503 0.693544 0.160797 -0.913454
H78   H     H_    0.998950 0.694245 0.078065 0.244929
H79   H     H_    0.045062 0.667825 0.219500 0.258787
H80   H     H_    0.087201 0.657130 0.156772 0.240002
N39   N     N_2   0.418762 0.278963 0.804939 -0.108037
H81   H     H_    0.422290 0.311166 0.864289 0.166973
C103  C     C_3   0.447216 0.201311 0.841242 -0.916877
H82   H     H_    0.499458 0.204379 0.924287 0.245320
H83   H     H_    0.454901 0.174552 0.784484 0.259034
H84   H     H_    0.412168 0.164536 0.846339 0.240402
N40   N     N_2   0.577494 0.271303 0.192634 -0.107512
H85   H     H_    0.572323 0.302210 0.130960 0.166858
C104  C     C_3   0.551427 0.192456 0.161036 -0.912877
H86   H     H_    0.498805 0.192825 0.078411 0.244856
H87   H     H_    0.545257 0.166735 0.220046 0.258746
H88   H     H_    0.587202 0.156222 0.156988 0.239872
H89   H     H_    0.049300 0.837127 0.320688 0.130970
H90   H     H_    0.950407 0.837375 0.679420 0.132271
H91   H     H_    0.549267 0.337100 0.320702 0.130720
H92   H     H_    0.450372 0.337406 0.679437 0.132426
H93   H     H_    0.203328 0.839717 0.675418 0.094580
H94   H     H_    0.796534 0.839808 0.324618 0.094840
H95   H     H_    0.703314 0.339713 0.675423 0.094536
H96   H     H_    0.296521 0.339810 0.324627 0.094893

loop_
_geom_bond_atom_site_label_1
_geom_bond_atom_site_label_2
_ccdc_geom_bond_type
C25   C31   A    
C95   H47   S    
C88   N20   A    
C55   C59   D    
N1    N14   A    
C51   N39   S    
C1    C77   A    
C98   H62   S    
C19   C23   A    
N38   H77   S    
C42   C50   S    
C76   C79   A    
C71   H95   S    
C48   H92   S    
N12   Ni3   S    
C3    C79   A    
N31   Ni8   S    
C98   H63   S    
C39   C41   S    
C47   N7    A    
N35   H65   S    
C92   N24   A    
C26   C32   A    
N15   Ni8   S    
C54   H30   S    
N39   H81   S    
C56   C79   S    
C71   N11   A    
C6    N30   A    
N8    N12   A    
N19   N31   A    
C11   C36   S    
C24   C83   S    
C69   N9    A    
C4    C80   A    
N6    Ni6   S    
N23   Ni7   S    
C6    H50   S    
N24   Ni8   S    
C14   C62   S    
C27   C29   A    
C52   H16   S    
C46   N6    A    
C29   C33   A    
C58   H22   S    
C102  H80   S    
C20   C38   A    
C99   H67   S    
C25   H53   S    
C94   N26   A    
N5    N9    A    
C41   C49   S    
C18   C40   A    
N36   C100  S    
C14   C90   A    
C67   H19   S    
C27   H55   S    
C19   C37   A    
C9    C85   A    
C43   C51   S    
C46   C82   A    
N26   Ni1   S    
C86   H38   S    
N24   N27   A    
C20   C24   A    
C11   C87   A    
N33   C97   S    
C74   C77   A    
C99   H68   S    
C41   N33   S    
N40   H85   S    
C32   H8    S    
N2    N13   A    
C76   N16   A    
N30   Ni5   S    
C23   C27   A    
C103  H84   S    
C62   H26   S    
C100  H71   S    
C75   C80   A    
C14   C93   A    
C7    H51   S    
C59   H23   S    
C8    C12   A    
C53   H29   S    
C54   C77   S    
C8    N32   A    
N4    Ni4   S    
C60   C66   S    
N34   H61   S    
C2    N2    A    
C86   N18   A    
C104  H86   S    
N18   N30   A    
N40   C104  S    
C13   C61   S    
N18   Ni2   S    
C8    H52   S    
C57   C67   S    
C50   H14   S    
C72   H96   S    
C70   N10   A    
C5    N29   A    
C89   N21   A    
C90   H42   S    
C75   H35   S    
C38   C44   S    
C7    C11   A    
C71   C83   A    
C44   H12   S    
C73   H33   S    
C50   N38   S    
C5    H49   S    
C23   C84   S    
C30   C34   A    
C91   N23   A    
C99   H66   S    
C94   H46   S    
C22   C81   S    
N7    Ni7   S    
C26   H54   S    
C93   N25   A    
C45   N5    A    
C88   H40   S    
C73   N13   A    
C1    H1    S    
C15   C96   A    
C62   C66   D    
C34   C38   A    
N27   Ni4   S    
N4    N15   A    
N37   H73   S    
C64   H28   S    
C45   H89   S    
C85   N17   A    
N25   Ni2   S    
C48   C84   A    
C49   N37   S    
N11   Ni4   S    
C31   H7    S    
C37   C43   S    
C35   C39   A    
C63   C67   D    
C5    C9    A    
N9    Ni2   S    
C2    C78   A    
N28   Ni3   S    
C87   H39   S    
C101  H75   S    
N2    Ni2   S    
N29   Ni6   S    
N20   N32   A    
N36   H69   S    
C36   C40   A    
N3    N16   A    
C73   C78   A    
C12   C88   A    
C87   N19   A    
C30   H6    S    
C3    N3    A    
C102  H78   S    
C72   N12   A    
N32   Ni7   S    
C29   H5    S    
C103  H83   S    
C43   H11   S    
C96   N28   A    
C12   C35   S    
C1    N1    A    
N16   Ni7   S    
N22   N25   A    
N17   N29   A    
C72   C84   A    
C41   H9    S    
C70   H94   S    
C69   C81   A    
C91   H43   S    
C95   N27   A    
C17   C39   A    
C4    N4    A    
C68   H20   S    
C28   H56   S    
C47   C83   A    
C104  H87   S    
C9    C34   S    
C98   H64   S    
C31   C35   A    
C46   H90   S    
C57   H21   S    
C17   C49   S    
C92   H44   S    
C64   C68   D    
C32   C36   A    
C74   N14   A    
C93   H45   S    
C18   C50   S    
C33   C37   A    
C54   C58   D    
C100  H72   S    
C69   H93   S    
C101  H74   S    
C21   C25   A    
C10   C86   A    
C16   C95   A    
C51   H15   S    
C66   H18   S    
N14   Ni5   S    
C13   C89   A    
C18   C22   A    
C65   H17   S    
C45   C81   A    
C24   C28   A    
C61   H25   S    
C55   H31   S    
N21   Ni5   S    
C53   C57   D    
C6    C10   A    
N10   Ni1   S    
C63   H27   S    
N38   C102  S    
C16   C92   A    
N23   N28   A    
N19   Ni3   S    
N37   C101  S    
C90   N22   A    
C89   H41   S    
C4    H4    S    
C7    N31   A    
C13   C94   A    
C44   N36   S    
C48   N8    A    
C74   H34   S    
C53   C78   S    
C49   H13   S    
N17   Ni1   S    
C28   C30   A    
N39   C103  S    
N3    Ni3   S    
C97   H58   S    
C59   C65   S    
C101  H76   S    
C47   H91   S    
C55   C80   S    
C76   H36   S    
C44   C52   S    
N1    Ni1   S    
N21   N26   A    
N20   Ni4   S    
C19   C51   S    
C100  H70   S    
C40   C42   S    
C43   N35   S    
C102  H79   S    
C60   H24   S    
C10   C33   S    
N7    N11   A    
C56   H32   S    
C61   C65   D    
C70   C82   A    
N5    Ni5   S    
C58   C68   S    
N13   Ni6   S    
N6    N10   A    
N8    Ni8   S    
C15   C91   A    
C96   H48   S    
C42   H10   S    
C97   H60   S    
C3    H3    S    
C56   C60   D    
C21   C82   S    
C2    H2    S    
C20   C52   S    
N33   H57   S    
C22   C26   A    
C104  H88   S    
C103  H82   S    
N34   C98   S    
C15   C63   S    
C75   N15   A    
C16   C64   S    
C42   N34   S    
N35   C99   S    
N22   Ni6   S    
C52   N40   S    
C85   H37   S    
C97   H59   S    
C17   C21   A    
