data_mof_unit_21662.cif
_audit_creation_date              2012-12-10T17:05:21-0500
_audit_creation_method            fapswitch 2.2
_symmetry_space_group_name_H-M    P1
_symmetry_Int_Tables_number       1
_space_group_crystal_system       triclinic
_cell_length_a                    10.056574
_cell_length_b                    10.6909
_cell_length_c                    15.361748
_cell_angle_alpha                 89.468366
_cell_angle_beta                  68.333285
_cell_angle_gamma                 89.183838
_cell_volume                      1534.74006945

loop_
_atom_site_label
_atom_site_type_symbol
_atom_type_description
_atom_site_fract_x
_atom_site_fract_y
_atom_site_fract_z
_atom_type_partial_charge
C1    C     C_R   0.496499 0.737309 0.504342 0.958930
C2    C     C_R   0.428164 0.584502 0.906758 0.121404
C3    C     C_R   0.283814 0.614134 0.960590 0.163553
C4    C     C_R   0.535742 0.597145 0.945062 0.010672
C5    C     C_R   0.492599 0.608182 0.043487 0.065645
C6    C     C_R   0.345607 0.629281 0.097487 -0.169371
C7    C     C_R   0.244595 0.639941 0.055530 -0.213975
C8    C     C_R   0.684715 0.589544 0.889722 -0.079301
C9    C     C_R   0.778212 0.545546 0.931728 -0.274889
C10   C     C_R   0.731561 0.534768 0.028730 0.143075
C11   C     C_R   0.595608 0.583882 0.084974 0.052143
C12   C     C_R   0.410697 0.503085 0.676279 0.915360
C13   C     C_R   0.820510 0.479541 0.070432 -0.194887
C14   C     C_R   0.772452 0.468294 0.167383 -0.183496
C15   C     C_R   0.565373 0.599011 0.181355 -0.097048
C16   C     C_2   0.565115 0.064749 0.556376 -0.004097
C17   C     C_2   0.502444 0.130015 0.505980 -0.396037
C18   C     C_2   0.580807 0.930376 0.542190 -0.178157
C19   C     C_2   0.481370 0.867827 0.522864 -0.347790
C20   C     C_2   0.039168 0.452810 0.565488 -0.001986
C21   C     C_2   0.895482 0.437771 0.557619 -0.137881
C22   C     C_R   0.499305 0.262695 0.503409 0.976841
C23   C     C_R   0.588816 0.507148 0.324363 0.894476
C24   C     C_R   0.358238 0.528842 0.776840 -0.055213
C25   C     C_R   0.643398 0.525674 0.223266 -0.132430
C26   C     C_R   0.179854 0.609385 0.919710 -0.199666
C27   C     C_R   0.217957 0.569999 0.827012 -0.196106
C28   C     C_R   0.458916 0.529818 0.819380 -0.179832
H1    H     H_    0.133500 0.657740 0.098956 0.171207
H2    H     H_    0.923352 0.439225 0.028076 0.150815
H3    H     H_    0.462689 0.085702 0.457243 0.153707
H4    H     H_    0.673394 0.882988 0.548261 0.209897
H5    H     H_    0.381639 0.911729 0.525911 0.170064
H6    H     H_    0.052200 0.420212 0.628988 0.168383
H7    H     H_    0.141737 0.508445 0.434094 0.181863
H8    H     H_    0.823812 0.369887 0.603754 0.168008
H9    H     H_    0.836633 0.416214 0.198770 0.170511
H10   H     H_    0.888793 0.524266 0.889353 0.170155
H11   H     H_    0.069911 0.636423 0.959218 0.153393
H12   H     H_    0.138865 0.572207 0.794650 0.183583
H13   H     H_    0.563087 0.488077 0.783037 0.142878
H14   H     H_    0.304428 0.631804 0.172905 0.175561
N1    N     N_2   0.148330 0.498670 0.499030 -0.168550
N2    N     N_2   0.852680 0.498640 0.499000 -0.177216
O1    O     O_R   0.386950 0.680940 0.500010 -0.573499
O2    O     O_R   0.613110 0.680900 0.499990 -0.614106
O3    O     O_R   0.322330 0.500030 0.632270 -0.619084
O4    O     O_R   0.548480 0.499990 0.632240 -0.607447
O5    O     O_R   0.386890 0.319100 0.500010 -0.615727
O6    O     O_R   0.613050 0.319060 0.499990 -0.601913
O7    O     O_R   0.451520 0.500010 0.367760 -0.570108
O8    O     O_R   0.677670 0.499970 0.367730 -0.598557
Zn1   Zn    Zn3+2 0.349000 0.500030 0.500020 1.008072
Zn2   Zn    Zn3+2 0.651000 0.499970 0.499980 1.003075
C29   C     C_2   0.617391 0.121122 0.626012 0.956427
O9    O     O_2   0.718555 0.073108 0.640377 -0.628240
O10   O     O_R   0.547104 0.225052 0.678329 -0.815123
H15   H     H_    0.591633 0.253038 0.724221 0.330923
C30   C     C_2   0.914207 0.616645 0.463100 1.028678
O11   O     O_2   0.926850 0.647455 0.383641 -0.632599
O12   O     O_R   0.950982 0.700282 0.519979 -0.794671
H16   H     H_    0.990671 0.781496 0.486428 0.339206
C31   C     C_2   0.487315 0.714239 0.228660 0.866024
O13   O     O_2   0.518554 0.814967 0.188225 -0.599297
O14   O     O_R   0.375969 0.708684 0.316082 -0.782906
H17   H     H_    0.331675 0.793793 0.338880 0.342906
C32   C     C_2   0.746571 0.639331 0.792206 0.926803
O15   O     O_2   0.867455 0.608539 0.740788 -0.634806
O16   O     O_R   0.668948 0.726052 0.760485 -0.773054
H18   H     H_    0.722387 0.753216 0.693305 0.374828

loop_
_geom_bond_atom_site_label_1
_geom_bond_atom_site_label_2
_ccdc_geom_bond_type
C8    C9    A    
C2    C4    A    
C29   O9    D    
C31   O14   S    
C6    C7    A    
C7    H1    S    
C21   N2    D    
H7    N1    S    
C9    C10   A    
C12   C24   S    
C23   O7    A    
C17   C22   S    
C24   C27   A    
C22   O6    A    
C27   H12   S    
O3    Zn1   S    
C20   H6    S    
O2    Zn2   S    
C23   C25   S    
C2    C3    A    
C23   O8    A    
C16   C29   S    
O1    Zn1   S    
C30   O11   D    
C21   H8    S    
C13   C14   A    
C14   H9    S    
O4    Zn2   S    
C1    O1    A    
C26   C27   A    
O6    Zn2   S    
C26   H11   S    
C12   O3    A    
O5    Zn1   S    
C5    C6    A    
C9    H10   S    
C12   O4    A    
O8    Zn2   S    
C5    C11   A    
C3    C7    A    
O16   H18   S    
C29   O10   S    
C14   C25   A    
C6    H14   S    
O12   H16   S    
C17   H3    S    
C1    O2    A    
C30   O12   S    
C15   C25   A    
C10   C11   A    
N2    C30   S    
C32   O15   D    
N2    Zn2   S    
C13   H2    S    
C20   N1    D    
C18   H4    S    
C20   C21   S    
C8    C32   S    
C16   C18   S    
O14   H17   S    
C19   H5    S    
C22   O5    A    
C4    C8    A    
C15   C31   S    
C18   C19   D    
C2    C28   A    
O7    Zn1   S    
O10   H15   S    
C1    C19   S    
C11   C15   A    
N1    Zn1   S    
C3    C26   A    
C28   H13   S    
C31   O13   D    
C16   C17   D    
C24   C28   A    
C4    C5    A    
C32   O16   S    
C10   C13   A    
