data_mof_unit_15484.cif
_audit_creation_date              2012-12-10T17:07:20-0500
_audit_creation_method            fapswitch 2.2
_symmetry_space_group_name_H-M    P1
_symmetry_Int_Tables_number       1
_space_group_crystal_system       triclinic
_cell_length_a                    30.264072
_cell_length_b                    30.26406
_cell_length_c                    30.264106
_cell_angle_alpha                 90.026295
_cell_angle_beta                  90.025914
_cell_angle_gamma                 90.028801
_cell_volume                      27719.2997676

loop_
_atom_site_label
_atom_site_type_symbol
_atom_type_description
_atom_site_fract_x
_atom_site_fract_y
_atom_site_fract_z
_atom_type_partial_charge
C1    C     C_R   0.999992 0.414517 0.500013 0.899689
C2    C     C_R   0.585483 0.000008 0.499986 0.899686
C3    C     C_R   0.971302 0.203068 0.471008 -0.072297
C4    C     C_R   0.029994 0.470310 0.202987 -0.069291
C5    C     C_R   0.028767 0.203123 0.528961 -0.071977
C6    C     C_R   0.028684 0.529010 0.796930 -0.072323
C7    C     C_R   0.026891 0.796713 0.471432 -0.090849
C8    C     C_R   0.529005 0.796931 0.028692 -0.072344
C9    C     C_R   0.796711 0.471446 0.026905 -0.090832
C10   C     C_R   0.470309 0.202986 0.029993 -0.069302
C11   C     C_R   0.203125 0.528976 0.028744 -0.071938
C12   C     C_R   0.471021 0.796874 0.971259 -0.071938
C13   C     C_R   0.500011 0.999993 0.414517 0.899698
C14   C     C_R   0.203069 0.471002 0.971300 -0.072335
C15   C     C_R   0.528576 0.203290 0.973117 -0.090824
C16   C     C_R   0.797016 0.529678 0.969993 -0.069299
C17   C     C_R   0.796877 0.971239 0.471035 -0.071994
C18   C     C_R   0.470992 0.971312 0.203070 -0.072318
C19   C     C_R   0.203286 0.973095 0.528558 -0.090832
C20   C     C_R   0.529691 0.970000 0.797014 -0.069273
C21   C     C_R   0.796932 0.028695 0.528997 -0.072294
C22   C     C_R   0.471434 0.026884 0.796711 -0.090866
C23   C     C_R   0.202988 0.029994 0.470311 -0.069309
C24   C     C_R   0.414503 0.000033 0.499655 0.900150
C25   C     C_R   0.528958 0.028767 0.203123 -0.071971
C26   C     C_R   0.473115 0.028566 0.703289 -0.090869
C27   C     C_R   0.469997 0.297013 0.029680 -0.069301
C28   C     C_R   0.471240 0.971034 0.296877 -0.071976
C29   C     C_R   0.471304 0.703068 0.971005 -0.072301
C30   C     C_R   0.530001 0.970309 0.702986 -0.069275
C31   C     C_R   0.528769 0.703122 0.028958 -0.071984
C32   C     C_R   0.528678 0.029016 0.296929 -0.072323
C33   C     C_R   0.526911 0.296714 0.971448 -0.090829
C34   C     C_R   0.029005 0.296931 0.528692 -0.072342
C35   C     C_R   0.499992 0.914517 0.000014 0.899679
C36   C     C_R   0.296710 0.971431 0.526892 -0.090817
C37   C     C_R   0.970310 0.702985 0.529996 -0.069303
C38   C     C_R   0.703125 0.028976 0.528745 -0.071931
C39   C     C_R   0.971018 0.296874 0.471262 -0.071941
C40   C     C_R   0.703069 0.971003 0.471299 -0.072339
C41   C     C_R   0.028567 0.703290 0.473109 -0.090844
C42   C     C_R   0.297015 0.029683 0.470000 -0.069300
C43   C     C_R   0.296876 0.471241 0.971031 -0.071983
C44   C     C_R   0.970999 0.471306 0.703069 -0.072319
C45   C     C_R   0.703288 0.473118 0.028578 -0.090845
C46   C     C_R   0.500034 0.999653 0.914503 0.900138
C47   C     C_R   0.029684 0.470001 0.297013 -0.069289
C48   C     C_R   0.296932 0.528693 0.028997 -0.072299
C49   C     C_R   0.971435 0.526894 0.296712 -0.090847
C50   C     C_R   0.702989 0.529989 0.970305 -0.069304
C51   C     C_R   0.028962 0.528764 0.703123 -0.071960
C52   C     C_R   0.001314 0.499074 0.226551 -0.094795
C53   C     C_R   0.998684 0.773450 0.500925 -0.094793
C54   C     C_R   0.999980 0.500011 0.773460 -0.099363
C55   C     C_R   0.000018 0.226538 0.499995 -0.099363
C56   C     C_R   0.500008 0.773459 0.999988 -0.099367
C57   C     C_R   0.499966 0.085497 0.000346 0.900144
C58   C     C_R   0.773450 0.500928 0.998688 -0.094791
C59   C     C_R   0.499078 0.226551 0.001316 -0.094784
C60   C     C_R   0.226540 0.499995 0.000010 -0.099372
C61   C     C_R   0.773461 0.999984 0.500005 -0.099361
C62   C     C_R   0.499983 0.000025 0.226539 -0.099363
C63   C     C_R   0.226550 0.001307 0.499070 -0.094792
C64   C     C_R   0.500930 0.998682 0.773449 -0.094808
C65   C     C_R   0.501318 0.999070 0.726551 -0.094804
C66   C     C_R   0.498692 0.273450 0.000930 -0.094797
C67   C     C_R   0.499974 0.000017 0.273460 -0.099361
C68   C     C_R   0.500007 0.999988 0.085483 0.899701
C69   C     C_R   0.500019 0.726538 0.999993 -0.099362
C70   C     C_R   0.000006 0.273460 0.499989 -0.099370
C71   C     C_R   0.273449 0.000922 0.498684 -0.094781
C72   C     C_R   0.999072 0.726551 0.501313 -0.094791
C73   C     C_R   0.726540 0.999995 0.500010 -0.099370
C74   C     C_R   0.273461 0.499984 0.000004 -0.099362
C75   C     C_R   0.999988 0.500020 0.726539 -0.099364
C76   C     C_R   0.726552 0.501314 0.999075 -0.094791
C77   C     C_R   0.000926 0.498687 0.273450 -0.094797
C78   C     C_R   0.947043 0.558838 0.227411 0.375183
C79   C     C_R   0.914517 0.000010 0.499993 0.899721
C80   C     C_R   0.943345 0.773019 0.559751 0.359230
C81   C     C_R   0.944488 0.441097 0.772859 0.360517
C82   C     C_R   0.944644 0.227015 0.440982 0.360919
C83   C     C_R   0.056643 0.440240 0.226979 0.359241
C84   C     C_R   0.055533 0.227141 0.558884 0.360525
C85   C     C_R   0.055325 0.559052 0.772982 0.360880
C86   C     C_R   0.052964 0.772592 0.441167 0.375185
C87   C     C_R   0.559050 0.772983 0.055330 0.360923
C88   C     C_R   0.772589 0.441190 0.052989 0.375185
C89   C     C_R   0.440233 0.226977 0.056637 0.359254
C90   C     C_R   0.999991 0.085482 0.500007 0.899726
C91   C     C_R   0.227143 0.558907 0.055500 0.360418
C92   C     C_R   0.441086 0.772856 0.944507 0.360413
C93   C     C_R   0.227016 0.440965 0.944654 0.360915
C94   C     C_R   0.558853 0.227411 0.947056 0.375157
C95   C     C_R   0.773025 0.559739 0.943333 0.359275
C96   C     C_R   0.772861 0.944482 0.441104 0.360521
C97   C     C_R   0.440958 0.944662 0.227019 0.360877
C98   C     C_R   0.227405 0.947018 0.558821 0.375165
C99   C     C_R   0.559759 0.943348 0.773021 0.359233
C100  C     C_R   0.772984 0.055346 0.559028 0.360918
C101  C     C_R   0.085497 0.000345 0.499966 0.900152
C102  C     C_R   0.441168 0.052954 0.772589 0.375224
C103  C     C_R   0.226981 0.056645 0.440242 0.359231
C104  C     C_R   0.558881 0.055534 0.227139 0.360515
C105  C     C_R   0.447044 0.058830 0.727412 0.375213
C106  C     C_R   0.443336 0.273020 0.059742 0.359239
C107  C     C_R   0.444484 0.941102 0.272860 0.360514
C108  C     C_R   0.444649 0.727015 0.940978 0.360920
C109  C     C_R   0.556653 0.940241 0.726978 0.359235
C110  C     C_R   0.555535 0.727139 0.058881 0.360521
C111  C     C_R   0.555318 0.059059 0.272981 0.360875
C112  C     C_R   0.000034 0.499655 0.414503 0.900142
C113  C     C_R   0.999655 0.914503 0.500034 0.900158
C114  C     C_R   0.552998 0.272593 0.941193 0.375171
C115  C     C_R   0.059050 0.272984 0.555330 0.360913
C116  C     C_R   0.272588 0.941161 0.552960 0.375158
C117  C     C_R   0.940240 0.726977 0.556646 0.359270
C118  C     C_R   0.727143 0.058907 0.555501 0.360409
C119  C     C_R   0.941082 0.272856 0.444513 0.360413
C120  C     C_R   0.727017 0.940966 0.444653 0.360926
C121  C     C_R   0.058832 0.727413 0.447036 0.375194
C122  C     C_R   0.273023 0.059750 0.443346 0.359262
C123  C     C_R   0.272859 0.444483 0.941101 0.360523
C124  C     C_R   0.000345 0.499966 0.085497 0.900145
C125  C     C_R   0.940965 0.444655 0.727017 0.360882
C126  C     C_R   0.727409 0.447057 0.058853 0.375184
C127  C     C_R   0.059750 0.443346 0.273021 0.359243
C128  C     C_R   0.272984 0.555344 0.059029 0.360916
C129  C     C_R   0.941173 0.552970 0.272590 0.375185
C130  C     C_R   0.726982 0.556633 0.940229 0.359226
C131  C     C_R   0.058885 0.555530 0.727140 0.360519
C132  C     C_3   0.958689 0.627465 0.197673 0.047935
C133  C     C_3   0.975959 0.651633 0.238911 -0.334264
C134  C     C_3   0.009710 0.686912 0.226176 -0.940942
C135  C     C_R   0.085483 0.500008 0.999987 0.899693
C136  C     C_3   0.943780 0.799486 0.630804 0.043132
C137  C     C_3   0.936599 0.760854 0.662733 -0.286997
C138  C     C_3   0.954160 0.771639 0.708736 -0.960174
C139  C     C_3   0.945171 0.369804 0.798569 0.042929
C140  C     C_3   0.938001 0.338373 0.759497 -0.286835
C141  C     C_3   0.955865 0.292344 0.769509 -0.960035
C142  C     C_3   0.946076 0.201106 0.369760 0.042306
C143  C     C_3   0.939618 0.240259 0.338316 -0.287290
C144  C     C_3   0.958367 0.230321 0.292620 -0.959301
C145  C     C_3   0.056183 0.369186 0.200515 0.043101
C146  C     C_R   0.000010 0.499993 0.914517 0.899699
C147  C     C_3   0.063356 0.337257 0.239145 -0.287032
C148  C     C_3   0.045782 0.291257 0.228361 -0.960149
C149  C     C_3   0.054887 0.201409 0.630171 0.042999
C150  C     C_3   0.062035 0.240498 0.661596 -0.286724
C151  C     C_3   0.044212 0.230469 0.707640 -0.959974
C152  C     C_3   0.053872 0.630270 0.798900 0.042350
C153  C     C_3   0.060335 0.661731 0.759760 -0.287235
C154  C     C_3   0.041576 0.707420 0.769711 -0.959343
C155  C     C_3   0.041327 0.802332 0.372540 0.047931
C156  C     C_3   0.024053 0.761095 0.348372 -0.334280
C157  C     C_R   0.914504 0.500033 0.999653 0.900160
C158  C     C_3   0.990305 0.773833 0.313094 -0.940925
C159  C     C_3   0.630254 0.798948 0.053896 0.042265
C160  C     C_3   0.661703 0.759780 0.060258 -0.287238
C161  C     C_3   0.707393 0.769766 0.041517 -0.959285
C162  C     C_3   0.802337 0.372564 0.041385 0.047909
C163  C     C_3   0.761108 0.348370 0.024138 -0.334236
C164  C     C_3   0.773854 0.313087 0.990398 -0.941008
C165  C     C_3   0.369186 0.200493 0.056171 0.043088
C166  C     C_3   0.337261 0.239138 0.063291 -0.287011
C167  C     C_3   0.291268 0.228343 0.045709 -0.960164
C168  C     C_R   0.031835 0.473603 0.156228 0.080190
C169  C     C_3   0.201491 0.630222 0.054802 0.043177
C170  C     C_3   0.240499 0.661688 0.062165 -0.286755
C171  C     C_3   0.230520 0.707722 0.044290 -0.960049
C172  C     C_3   0.369770 0.798506 0.945212 0.043181
C173  C     C_3   0.338304 0.759498 0.937848 -0.286745
C174  C     C_3   0.292270 0.769476 0.955724 -0.960068
C175  C     C_3   0.201060 0.369757 0.946067 0.042273
C176  C     C_3   0.240226 0.338312 0.939679 -0.287223
C177  C     C_3   0.230244 0.292612 0.958398 -0.959300
C178  C     C_3   0.627466 0.197647 0.958702 0.047931
C179  C     C_R   0.029657 0.843228 0.474399 0.068815
C180  C     C_3   0.651659 0.238869 0.975972 -0.334209
C181  C     C_3   0.686917 0.226110 0.009734 -0.940974
C182  C     C_3   0.799510 0.630785 0.943764 0.043009
C183  C     C_3   0.760860 0.662701 0.936648 -0.287062
C184  C     C_3   0.771652 0.708702 0.954214 -0.960131
C185  C     C_3   0.798611 0.945159 0.369824 0.042964
C186  C     C_3   0.759535 0.938036 0.338385 -0.286824
C187  C     C_3   0.769578 0.955898 0.292361 -0.960041
C188  C     C_3   0.369737 0.946085 0.201107 0.042347
C189  C     C_3   0.338282 0.939608 0.240250 -0.287238
C190  C     C_R   0.030692 0.526075 0.843610 0.079043
C191  C     C_3   0.292584 0.958345 0.230301 -0.959336
C192  C     C_3   0.197648 0.958614 0.627448 0.047929
C193  C     C_3   0.238875 0.975847 0.651662 -0.334169
C194  C     C_3   0.226126 0.009573 0.686957 -0.941003
C195  C     C_3   0.630815 0.943800 0.799479 0.043125
C196  C     C_3   0.662749 0.936600 0.760857 -0.287021
C197  C     C_3   0.708752 0.954168 0.771639 -0.960154
C198  C     C_3   0.798894 0.053901 0.630250 0.042301
C199  C     C_3   0.759746 0.060358 0.661699 -0.287309
C200  C     C_3   0.769687 0.041602 0.707392 -0.959321
C201  C     C_R   0.030727 0.156431 0.526056 0.079223
C202  C     C_3   0.372542 0.041288 0.802323 0.047908
C203  C     C_3   0.348398 0.023998 0.761084 -0.334389
C204  C     C_3   0.313129 0.990238 0.773819 -0.940985
C205  C     C_3   0.200510 0.056189 0.369191 0.043127
C206  C     C_3   0.239140 0.063355 0.337257 -0.287025
C207  C     C_3   0.228355 0.045771 0.291262 -0.960153
C208  C     C_3   0.630176 0.054862 0.201433 0.043045
C209  C     C_3   0.661605 0.062049 0.240511 -0.286733
C210  C     C_3   0.707638 0.044187 0.230506 -0.959993
C211  C     C_3   0.458704 0.127459 0.697679 0.047945
C212  C     C_R   0.970347 0.525605 0.156773 0.068824
C213  C     C_3   0.476007 0.151600 0.738920 -0.334384
C214  C     C_3   0.509765 0.186872 0.726184 -0.940961
C215  C     C_3   0.443760 0.299492 0.130793 0.043119
C216  C     C_3   0.436586 0.260859 0.162721 -0.287010
C217  C     C_3   0.454142 0.271646 0.208726 -0.960151
C218  C     C_3   0.445185 0.869809 0.298572 0.043034
C219  C     C_3   0.438016 0.838374 0.259498 -0.286759
C220  C     C_3   0.455904 0.792352 0.269506 -0.960004
C221  C     C_3   0.446092 0.701105 0.869756 0.042289
C222  C     C_3   0.439640 0.740256 0.838310 -0.287333
C223  C     C_R   0.999967 0.585497 0.500346 0.900146
C224  C     C_R   0.969298 0.156387 0.473939 0.079036
C225  C     C_3   0.458401 0.730319 0.792619 -0.959334
C226  C     C_3   0.556202 0.869185 0.700521 0.043130
C227  C     C_3   0.563400 0.837253 0.739144 -0.287011
C228  C     C_3   0.545835 0.791249 0.728363 -0.960142
C229  C     C_3   0.554885 0.701396 0.130164 0.042987
C230  C     C_3   0.562027 0.740474 0.161599 -0.286783
C231  C     C_3   0.544191 0.730432 0.207634 -0.960020
C232  C     C_3   0.553862 0.130279 0.298895 0.042344
C233  C     C_3   0.560323 0.161736 0.259752 -0.287249
C234  C     C_3   0.541559 0.207424 0.269698 -0.959337
C235  C     C_R   0.969285 0.473930 0.843568 0.079239
C236  C     C_3   0.541414 0.302338 0.872557 0.047936
C237  C     C_3   0.524170 0.261102 0.848359 -0.334154
C238  C     C_3   0.490460 0.273840 0.813040 -0.940858
C239  C     C_3   0.130256 0.298944 0.553890 0.042275
C240  C     C_3   0.161706 0.259779 0.560263 -0.287232
C241  C     C_3   0.207396 0.269761 0.541520 -0.959295
C242  C     C_3   0.302348 0.872543 0.541330 0.047934
C243  C     C_3   0.261125 0.848346 0.524067 -0.334202
C244  C     C_3   0.273882 0.813076 0.490317 -0.940971
C245  C     C_3   0.869193 0.700492 0.556187 0.043014
C246  C     C_R   0.968159 0.843771 0.526392 0.080188
C247  C     C_3   0.837273 0.739141 0.563296 -0.287055
C248  C     C_3   0.791279 0.728349 0.545712 -0.960134
C249  C     C_3   0.701490 0.130222 0.554808 0.043196
C250  C     C_3   0.740492 0.161694 0.562186 -0.286742
C251  C     C_3   0.730508 0.207730 0.544321 -0.960069
C252  C     C_3   0.869766 0.298507 0.445228 0.043185
C253  C     C_3   0.838298 0.259499 0.437870 -0.286753
C254  C     C_3   0.792269 0.269477 0.455759 -0.960053
C255  C     C_3   0.701054 0.869760 0.446061 0.042263
C256  C     C_3   0.740223 0.838316 0.439688 -0.287226
C257  C     C_R   0.473919 0.843565 0.969300 0.079305
C258  C     C_3   0.730237 0.792616 0.458407 -0.959290
C259  C     C_3   0.127458 0.697677 0.458679 0.047925
C260  C     C_3   0.151631 0.738916 0.475942 -0.334244
C261  C     C_3   0.186901 0.726182 0.509701 -0.940941
C262  C     C_3   0.299505 0.130798 0.443782 0.043073
C263  C     C_3   0.260855 0.162715 0.436654 -0.287009
C264  C     C_3   0.271649 0.208718 0.454210 -0.960168
C265  C     C_3   0.298593 0.445157 0.869815 0.043003
C266  C     C_3   0.259507 0.438020 0.838384 -0.286735
C267  C     C_3   0.269537 0.455867 0.792350 -0.959968
C268  C     C_R   0.843774 0.526383 0.968152 0.080159
C269  C     C_3   0.869746 0.446080 0.701099 0.042350
C270  C     C_3   0.838288 0.439607 0.740241 -0.287231
C271  C     C_3   0.792592 0.458345 0.730288 -0.959342
C272  C     C_3   0.697669 0.458718 0.127476 0.047931
C273  C     C_3   0.738906 0.475997 0.151640 -0.334252
C274  C     C_3   0.726169 0.509755 0.186910 -0.940927
C275  C     C_3   0.130803 0.443790 0.299485 0.043101
C276  C     C_3   0.162731 0.436611 0.260854 -0.287032
C277  C     C_3   0.208734 0.454174 0.271639 -0.960150
C278  C     C_3   0.298894 0.553897 0.130250 0.042308
C279  C     C_R   0.525604 0.156775 0.970348 0.068806
C280  C     C_3   0.259741 0.560348 0.161697 -0.287292
C281  C     C_3   0.269680 0.541589 0.207389 -0.959301
C282  C     C_3   0.872542 0.541338 0.302326 0.047936
C283  C     C_3   0.848371 0.524074 0.261087 -0.334262
C284  C     C_3   0.813083 0.490332 0.273821 -0.940933
C285  C     C_3   0.700515 0.556171 0.869176 0.043132
C286  C     C_3   0.739144 0.563342 0.837243 -0.287002
C287  C     C_3   0.728360 0.545761 0.791247 -0.960176
C288  C     C_3   0.130179 0.554872 0.701432 0.042932
C289  C     C_3   0.161606 0.562056 0.740505 -0.286827
C290  C     C_R   0.156388 0.473938 0.969293 0.079026
C291  C     C_3   0.207644 0.544213 0.730493 -0.960036
C292  C     C_R   0.526068 0.843611 0.030702 0.079023
C293  C     C_R   0.156434 0.526077 0.030704 0.079301
C294  C     C_R   0.473603 0.156228 0.031835 0.080173
C295  C     C_R   0.000007 0.499989 0.585483 0.899704
C296  C     C_R   0.843227 0.474413 0.029667 0.068798
C297  C     C_R   0.843612 0.030700 0.526065 0.079043
C298  C     C_R   0.526061 0.030722 0.156431 0.079238
C299  C     C_R   0.156230 0.031837 0.473607 0.080192
C300  C     C_R   0.474398 0.029649 0.843227 0.068810
C301  C     C_R   0.843568 0.969276 0.473943 0.079228
C302  C     C_R   0.526398 0.968160 0.843772 0.080198
C303  C     C_R   0.156770 0.970331 0.525590 0.068831
C304  C     C_R   0.473927 0.969304 0.156390 0.079043
C305  C     C_R   0.531840 0.973602 0.656227 0.080200
C306  C     C_R   0.414517 0.500009 0.999993 0.899720
C307  C     C_R   0.529674 0.343230 0.974415 0.068833
C308  C     C_R   0.530688 0.026081 0.343609 0.079046
C309  C     C_R   0.530730 0.656431 0.026052 0.079226
C310  C     C_R   0.470349 0.025602 0.656774 0.068817
C311  C     C_R   0.469299 0.656388 0.973937 0.079040
C312  C     C_R   0.469284 0.973932 0.343569 0.079239
C313  C     C_R   0.468155 0.343771 0.026384 0.080187
C314  C     C_R   0.973917 0.343565 0.469301 0.079303
C315  C     C_R   0.343773 0.026390 0.468160 0.080172
C316  C     C_R   0.025603 0.656774 0.470346 0.068807
C317  C     C_R   0.499990 0.585482 0.000007 0.899722
C318  C     C_R   0.656389 0.973939 0.469291 0.079019
C319  C     C_R   0.026069 0.343612 0.530701 0.079027
C320  C     C_R   0.656434 0.026076 0.530705 0.079308
C321  C     C_R   0.973605 0.656227 0.531838 0.080167
C322  C     C_R   0.343225 0.974402 0.529659 0.068807
C323  C     C_R   0.343612 0.530697 0.026066 0.079038
C324  C     C_R   0.026061 0.530722 0.656431 0.079234
C325  C     C_R   0.656230 0.531830 0.973598 0.080196
C326  C     C_R   0.974401 0.529658 0.343227 0.068822
C327  C     C_R   0.343568 0.469279 0.973937 0.079227
C328  C     C_R   0.585497 0.500344 0.999966 0.900145
C329  C     C_R   0.026391 0.468161 0.343772 0.080189
C330  C     C_R   0.656773 0.470351 0.025611 0.068826
C331  C     C_R   0.973933 0.469300 0.656389 0.079038
C332  C     C_R   0.000925 0.499793 0.133822 -0.058001
C333  C     C_R   0.999074 0.866178 0.500207 -0.057990
C334  C     C_R   0.000007 0.499984 0.866200 -0.062641
C335  C     C_R   0.999994 0.133798 0.500015 -0.062633
C336  C     C_R   0.499979 0.866200 0.000016 -0.062664
C337  C     C_R   0.866179 0.500207 0.999073 -0.057960
C338  C     C_R   0.499794 0.133822 0.000927 -0.057981
C339  C     C_R   0.499655 0.414504 0.000034 0.900156
C340  C     C_R   0.133800 0.500021 0.999984 -0.062663
C341  C     C_R   0.866201 0.000007 0.499986 -0.062638
C342  C     C_R   0.500014 0.999992 0.133799 -0.062642
C343  C     C_R   0.133821 0.000922 0.499790 -0.057999
C344  C     C_R   0.500209 0.999071 0.866178 -0.057999
C345  C     C_R   0.500929 0.999792 0.633822 -0.058005
C346  C     C_R   0.499077 0.366179 0.000208 -0.057990
C347  C     C_R   0.500007 0.999986 0.366200 -0.062648
C348  C     C_R   0.499994 0.633798 0.000014 -0.062634
C349  C     C_R   0.999979 0.366200 0.500016 -0.062668
C350  C     C_R   0.500347 0.999966 0.585497 0.900141
C351  C     C_R   0.366178 0.000206 0.499075 -0.057982
C352  C     C_R   0.999794 0.633822 0.500927 -0.057980
C353  C     C_R   0.633800 0.000021 0.499984 -0.062659
C354  C     C_R   0.366201 0.500006 0.999985 -0.062638
C355  C     C_R   0.000015 0.499992 0.633799 -0.062631
C356  C     C_R   0.633822 0.500924 0.999793 -0.058007
C357  C     C_R   0.000207 0.499075 0.366179 -0.057995
C358  C     C_R   0.973112 0.528571 0.203289 -0.090849
C359  C     C_R   0.969999 0.797013 0.529685 -0.069298
C360  C     C_R   0.971244 0.471029 0.796876 -0.071965
Cu1   Cu    Cu3+1 0.955520 0.500000 0.500000 0.953554
Cu2   Cu    Cu3+1 0.000000 0.000000 0.455520 0.953530
Cu3   Cu    Cu3+1 0.000000 0.455520 0.000000 0.953528
Cu4   Cu    Cu3+1 1.000000 0.544480 0.000000 0.953554
Cu5   Cu    Cu3+1 0.044480 0.500000 0.500000 0.953533
Cu6   Cu    Cu3+1 0.500000 0.500000 0.044480 0.953533
Cu7   Cu    Cu3+1 0.500000 0.500000 0.955520 0.953532
Cu8   Cu    Cu3+1 0.500000 0.955520 0.500000 0.953525
Cu9   Cu    Cu3+1 0.500000 0.044480 0.500000 0.953559
Cu10  Cu    Cu3+1 0.455520 0.000000 0.000000 0.953560
Cu11  Cu    Cu3+1 0.544480 0.000000 0.000000 0.953525
Cu12  Cu    Cu3+1 0.000000 0.000000 0.544480 0.953530
H1    H     H_    0.942736 0.652148 0.175693 0.163406
H2    H     H_    0.900726 0.753312 0.665124 0.241647
H3    H     H_    0.613494 0.178675 0.986990 0.133975
H4    H     H_    0.667302 0.256732 0.947973 0.237088
H5    H     H_    0.627921 0.261485 0.992429 0.206155
H6    H     H_    0.672266 0.205740 0.036520 0.258528
H7    H     H_    0.701013 0.256315 0.024991 0.266085
H8    H     H_    0.713840 0.207216 0.993471 0.259206
H9    H     H_    0.830209 0.647138 0.932026 0.159728
H10   H     H_    0.804387 0.624317 0.979776 0.120376
H11   H     H_    0.753270 0.665104 0.900788 0.241695
H12   H     H_    0.731148 0.650190 0.954166 0.226548
H13   H     H_    0.954084 0.731116 0.650241 0.226633
H14   H     H_    0.779611 0.707118 0.989999 0.258835
H15   H     H_    0.742713 0.730688 0.949386 0.261524
H16   H     H_    0.800232 0.722925 0.936112 0.258815
H17   H     H_    0.829112 0.933512 0.353056 0.159849
H18   H     H_    0.803516 0.981164 0.376353 0.119827
H19   H     H_    0.752073 0.902153 0.335862 0.242856
H20   H     H_    0.729924 0.955345 0.351405 0.225168
H21   H     H_    0.777406 0.991707 0.294075 0.258643
H22   H     H_    0.740334 0.951068 0.270752 0.261445
H23   H     H_    0.798025 0.938000 0.277631 0.259132
H24   H     H_    0.989957 0.779541 0.707164 0.258881
H25   H     H_    0.352769 0.934451 0.170686 0.159713
H26   H     H_    0.376704 0.981975 0.195999 0.120529
H27   H     H_    0.335104 0.903787 0.247724 0.242569
H28   H     H_    0.351705 0.956705 0.269830 0.225433
H29   H     H_    0.294966 0.994122 0.222537 0.258182
H30   H     H_    0.270961 0.953914 0.259576 0.262224
H31   H     H_    0.277445 0.940750 0.201851 0.259036
H32   H     H_    0.175640 0.942648 0.652100 0.163380
H33   H     H_    0.178693 0.986923 0.613499 0.133954
H34   H     H_    0.256725 0.947826 0.667274 0.237115
H35   H     H_    0.949276 0.742718 0.730733 0.261474
H36   H     H_    0.261499 0.992326 0.627942 0.206143
H37   H     H_    0.205760 0.036376 0.672339 0.258527
H38   H     H_    0.256333 0.024814 0.701064 0.266118
H39   H     H_    0.207232 0.993282 0.713865 0.259215
H40   H     H_    0.647148 0.932119 0.830210 0.159679
H41   H     H_    0.624355 0.979825 0.804281 0.120309
H42   H     H_    0.665139 0.900724 0.753335 0.241606
H43   H     H_    0.650262 0.954070 0.731108 0.226661
H44   H     H_    0.707179 0.989968 0.779527 0.258880
H45   H     H_    0.730752 0.949274 0.742723 0.261468
H46   H     H_    0.936097 0.800253 0.722939 0.258816
H47   H     H_    0.722951 0.936116 0.800262 0.258815
H48   H     H_    0.829309 0.065536 0.647225 0.159735
H49   H     H_    0.804010 0.018016 0.623272 0.120565
H50   H     H_    0.752269 0.096176 0.664891 0.242531
H51   H     H_    0.730171 0.043264 0.648264 0.225424
H52   H     H_    0.777455 0.005827 0.704996 0.258189
H53   H     H_    0.740410 0.046019 0.729011 0.262219
H54   H     H_    0.798133 0.059193 0.722543 0.259034
H55   H     H_    0.347846 0.057235 0.824290 0.163432
H56   H     H_    0.386502 0.013012 0.821314 0.134003
H57   H     H_    0.933554 0.353032 0.829076 0.159870
H58   H     H_    0.332776 0.051985 0.743193 0.237119
H59   H     H_    0.372163 0.007535 0.738501 0.206118
H60   H     H_    0.327751 0.963473 0.794230 0.258549
H61   H     H_    0.299083 0.974954 0.743607 0.266089
H62   H     H_    0.286174 0.006507 0.792661 0.259221
H63   H     H_    0.169788 0.067887 0.352852 0.159672
H64   H     H_    0.195681 0.020168 0.375661 0.120334
H65   H     H_    0.246680 0.099227 0.334848 0.241627
H66   H     H_    0.268879 0.045878 0.349756 0.226647
H67   H     H_    0.220464 0.009971 0.292851 0.258887
H68   H     H_    0.981181 0.376328 0.803435 0.119817
H69   H     H_    0.257273 0.050654 0.269260 0.261465
H70   H     H_    0.199735 0.063819 0.277054 0.258813
H71   H     H_    0.646945 0.066478 0.170919 0.159809
H72   H     H_    0.623663 0.018842 0.196574 0.119757
H73   H     H_    0.664115 0.097947 0.247924 0.242762
H74   H     H_    0.648584 0.044773 0.270143 0.225203
H75   H     H_    0.705933 0.008369 0.222708 0.258603
H76   H     H_    0.729236 0.049045 0.259757 0.261450
H77   H     H_    0.722377 0.062065 0.202051 0.259137
H78   H     H_    0.442749 0.152159 0.675720 0.163425
H79   H     H_    0.902110 0.335857 0.752076 0.242808
H80   H     H_    0.486976 0.113501 0.678678 0.133989
H81   H     H_    0.448024 0.167221 0.756822 0.237092
H82   H     H_    0.492479 0.127832 0.761495 0.206108
H83   H     H_    0.536526 0.172252 0.705765 0.258548
H84   H     H_    0.525057 0.200915 0.756395 0.266081
H85   H     H_    0.493490 0.213829 0.707350 0.259220
H86   H     H_    0.432050 0.330211 0.147129 0.159679
H87   H     H_    0.479783 0.304328 0.124338 0.120324
H88   H     H_    0.400715 0.253309 0.165109 0.241646
H89   H     H_    0.454078 0.231124 0.150229 0.226623
H90   H     H_    0.955281 0.351398 0.729870 0.225226
H91   H     H_    0.489939 0.279553 0.207157 0.258880
H92   H     H_    0.449259 0.242725 0.230722 0.261470
H93   H     H_    0.436074 0.300258 0.222926 0.258813
H94   H     H_    0.433574 0.853038 0.329087 0.159811
H95   H     H_    0.481200 0.876340 0.303434 0.119775
H96   H     H_    0.402120 0.835843 0.252084 0.242756
H97   H     H_    0.455285 0.851403 0.229865 0.225212
H98   H     H_    0.491721 0.794078 0.277300 0.258611
H99   H     H_    0.451055 0.770748 0.240258 0.261449
H100  H     H_    0.438037 0.777606 0.297964 0.259136
H101  H     H_    0.991682 0.294053 0.777305 0.258638
H102  H     H_    0.434453 0.670693 0.852778 0.159738
H103  H     H_    0.481975 0.695984 0.876733 0.120579
H104  H     H_    0.403823 0.747735 0.835115 0.242540
H105  H     H_    0.456733 0.769829 0.851751 0.225423
H106  H     H_    0.494175 0.722551 0.795018 0.258194
H107  H     H_    0.453987 0.759599 0.771002 0.262221
H108  H     H_    0.440812 0.701875 0.777464 0.259039
H109  H     H_    0.567885 0.852850 0.669791 0.159676
H110  H     H_    0.520177 0.875644 0.695716 0.120305
H111  H     H_    0.599276 0.834864 0.746669 0.241610
H112  H     H_    0.986977 0.613508 0.178693 0.133966
H113  H     H_    0.951009 0.270743 0.740261 0.261446
H114  H     H_    0.545928 0.849741 0.768892 0.226654
H115  H     H_    0.510034 0.792820 0.720475 0.258876
H116  H     H_    0.550728 0.769249 0.757281 0.261466
H117  H     H_    0.563888 0.777050 0.699741 0.258813
H118  H     H_    0.566535 0.670893 0.146927 0.159841
H119  H     H_    0.518874 0.696495 0.123651 0.119798
H120  H     H_    0.597913 0.747935 0.164101 0.242854
H121  H     H_    0.544710 0.770085 0.148589 0.225158
H122  H     H_    0.508383 0.722598 0.205941 0.258632
H123  H     H_    0.549028 0.759680 0.229239 0.261443
H124  H     H_    0.937989 0.277606 0.797965 0.259137
H125  H     H_    0.562102 0.701990 0.222356 0.259132
H126  H     H_    0.565490 0.147252 0.329315 0.159711
H127  H     H_    0.517976 0.123295 0.304005 0.120539
H128  H     H_    0.596143 0.164935 0.252279 0.242558
H129  H     H_    0.543235 0.148303 0.230170 0.225439
H130  H     H_    0.505782 0.205021 0.277459 0.258181
H131  H     H_    0.545980 0.229049 0.240424 0.262226
H132  H     H_    0.559141 0.222573 0.298150 0.259037
H133  H     H_    0.557391 0.324328 0.847895 0.163391
H134  H     H_    0.513108 0.321311 0.886494 0.133927
H135  H     H_    0.934435 0.170693 0.352783 0.159730
H136  H     H_    0.552191 0.243226 0.832768 0.237100
H137  H     H_    0.507671 0.238501 0.872088 0.206103
H138  H     H_    0.463659 0.294233 0.827634 0.258504
H139  H     H_    0.475208 0.243626 0.798947 0.266080
H140  H     H_    0.506772 0.292704 0.786121 0.259198
H141  H     H_    0.147237 0.329338 0.565578 0.159744
H142  H     H_    0.123264 0.304130 0.518016 0.120568
H143  H     H_    0.164903 0.252226 0.596067 0.242646
H144  H     H_    0.148266 0.230237 0.543110 0.225307
H145  H     H_    0.204996 0.277604 0.505759 0.258143
H146  H     H_    0.981963 0.195985 0.376731 0.120558
H147  H     H_    0.229014 0.240472 0.545875 0.262259
H148  H     H_    0.222550 0.298171 0.559168 0.259031
H149  H     H_    0.324343 0.847877 0.557287 0.163386
H150  H     H_    0.321320 0.886507 0.513038 0.133969
H151  H     H_    0.243261 0.832713 0.552070 0.237087
H152  H     H_    0.238511 0.872081 0.507602 0.206153
H153  H     H_    0.294252 0.827717 0.463526 0.258526
H154  H     H_    0.243677 0.798975 0.475064 0.266096
H155  H     H_    0.292775 0.786158 0.506589 0.259207
H156  H     H_    0.852837 0.669792 0.567917 0.159725
H157  H     H_    0.903800 0.247741 0.335131 0.242537
H158  H     H_    0.875674 0.695617 0.520177 0.120374
H159  H     H_    0.834858 0.746728 0.599156 0.241688
H160  H     H_    0.849790 0.768854 0.545785 0.226553
H161  H     H_    0.792877 0.720395 0.509926 0.258838
H162  H     H_    0.769291 0.757286 0.550536 0.261522
H163  H     H_    0.777051 0.699766 0.563805 0.258815
H164  H     H_    0.670907 0.146946 0.566298 0.159732
H165  H     H_    0.696800 0.123733 0.518768 0.119698
H166  H     H_    0.747747 0.164180 0.598113 0.242600
H167  H     H_    0.770211 0.148725 0.545029 0.225504
H168  H     H_    0.956717 0.269832 0.351752 0.225402
H169  H     H_    0.722899 0.206051 0.508466 0.258733
H170  H     H_    0.759698 0.229369 0.549350 0.261313
H171  H     H_    0.701940 0.222407 0.562066 0.259137
H172  H     H_    0.853035 0.329085 0.433738 0.159730
H173  H     H_    0.876268 0.303205 0.481265 0.119710
H174  H     H_    0.835795 0.252240 0.401945 0.242602
H175  H     H_    0.851280 0.229783 0.455023 0.225497
H176  H     H_    0.793964 0.277084 0.491614 0.258732
H177  H     H_    0.770632 0.240283 0.450739 0.261309
H178  H     H_    0.777580 0.298043 0.438022 0.259136
H179  H     H_    0.994141 0.222546 0.295010 0.258174
H180  H     H_    0.670666 0.852780 0.434357 0.159754
H181  H     H_    0.695855 0.876738 0.481935 0.120563
H182  H     H_    0.747791 0.835135 0.403886 0.242675
H183  H     H_    0.769759 0.851749 0.456859 0.225278
H184  H     H_    0.722378 0.794999 0.494165 0.258138
H185  H     H_    0.759528 0.771002 0.454054 0.262264
H186  H     H_    0.701835 0.777469 0.440739 0.259029
H187  H     H_    0.152138 0.675693 0.442728 0.163391
H188  H     H_    0.113500 0.678701 0.486970 0.133970
H189  H     H_    0.167260 0.756785 0.447940 0.237085
H190  H     H_    0.953953 0.259604 0.271005 0.262225
H191  H     H_    0.127882 0.761520 0.492400 0.206134
H192  H     H_    0.172267 0.705805 0.536490 0.258530
H193  H     H_    0.200981 0.756397 0.524953 0.266081
H194  H     H_    0.213834 0.707302 0.493437 0.259205
H195  H     H_    0.330209 0.147150 0.432051 0.159711
H196  H     H_    0.304372 0.124331 0.479798 0.120338
H197  H     H_    0.253269 0.165111 0.400791 0.241696
H198  H     H_    0.231140 0.150210 0.454173 0.226539
H199  H     H_    0.279609 0.207140 0.489995 0.258844
H200  H     H_    0.242710 0.230703 0.449380 0.261524
H201  H     H_    0.940769 0.201880 0.277467 0.259033
H202  H     H_    0.300228 0.222938 0.436105 0.258819
H203  H     H_    0.329095 0.433513 0.853043 0.159834
H204  H     H_    0.303493 0.481168 0.876339 0.119780
H205  H     H_    0.252046 0.402133 0.835876 0.242839
H206  H     H_    0.229897 0.455334 0.851403 0.225145
H207  H     H_    0.277364 0.491678 0.794048 0.258634
H208  H     H_    0.240285 0.451027 0.770749 0.261417
H209  H     H_    0.297980 0.437963 0.777619 0.259124
H210  H     H_    0.852781 0.434444 0.670678 0.159712
H211  H     H_    0.876715 0.481969 0.695989 0.120530
H212  H     H_    0.067876 0.352845 0.169792 0.159688
H213  H     H_    0.835108 0.403787 0.747718 0.242564
H214  H     H_    0.851710 0.456707 0.769821 0.225441
H215  H     H_    0.794976 0.494122 0.722520 0.258180
H216  H     H_    0.770967 0.453917 0.759561 0.262225
H217  H     H_    0.777454 0.440748 0.701839 0.259037
H218  H     H_    0.675688 0.442769 0.152162 0.163404
H219  H     H_    0.678688 0.487001 0.113510 0.133960
H220  H     H_    0.756785 0.448001 0.167268 0.237092
H221  H     H_    0.761502 0.492461 0.127885 0.206126
H222  H     H_    0.705778 0.536534 0.172279 0.258523
H223  H     H_    0.947959 0.667253 0.256790 0.237096
H224  H     H_    0.020162 0.375653 0.195693 0.120325
H225  H     H_    0.756382 0.525022 0.200979 0.266092
H226  H     H_    0.707304 0.493485 0.213851 0.259208
H227  H     H_    0.147142 0.432093 0.330207 0.159690
H228  H     H_    0.124344 0.479812 0.304307 0.120324
H229  H     H_    0.165121 0.400739 0.253313 0.241641
H230  H     H_    0.150239 0.454095 0.231116 0.226627
H231  H     H_    0.207162 0.489971 0.279545 0.258875
H232  H     H_    0.230730 0.449296 0.242716 0.261474
H233  H     H_    0.222937 0.436108 0.300250 0.258815
H234  H     H_    0.329306 0.565535 0.147229 0.159730
H235  H     H_    0.099227 0.334859 0.246685 0.241639
H236  H     H_    0.304015 0.518012 0.123272 0.120559
H237  H     H_    0.252260 0.596166 0.164891 0.242535
H238  H     H_    0.230168 0.543252 0.148257 0.225406
H239  H     H_    0.277453 0.505814 0.204990 0.258175
H240  H     H_    0.240398 0.546000 0.229006 0.262224
H241  H     H_    0.298122 0.559182 0.222544 0.259034
H242  H     H_    0.847863 0.557296 0.324306 0.163406
H243  H     H_    0.886493 0.513046 0.321306 0.133964
H244  H     H_    0.832759 0.552078 0.243209 0.237096
H245  H     H_    0.872119 0.507600 0.238492 0.206124
H246  H     H_    0.045875 0.349753 0.268884 0.226630
H247  H     H_    0.827699 0.463545 0.294213 0.258532
H248  H     H_    0.799009 0.475072 0.243607 0.266095
H249  H     H_    0.786149 0.506613 0.292684 0.259211
H250  H     H_    0.669791 0.567864 0.852837 0.159673
H251  H     H_    0.695691 0.520149 0.875647 0.120315
H252  H     H_    0.746683 0.599215 0.834837 0.241641
H253  H     H_    0.768885 0.545865 0.849741 0.226643
H254  H     H_    0.720465 0.509963 0.792834 0.258885
H255  H     H_    0.757278 0.550643 0.769247 0.261471
H256  H     H_    0.699742 0.563813 0.777040 0.258816
H257  H     H_    0.009985 0.292837 0.220459 0.258876
H258  H     H_    0.146949 0.566495 0.670925 0.159871
H259  H     H_    0.123669 0.518860 0.696567 0.119809
H260  H     H_    0.164106 0.597948 0.747928 0.242816
H261  H     H_    0.148589 0.544769 0.770131 0.225216
H262  H     H_    0.205951 0.508397 0.722689 0.258635
H263  H     H_    0.229241 0.549073 0.759742 0.261449
H264  H     H_    0.222375 0.562102 0.702040 0.259137
H265  H     H_    0.097204 0.460964 0.144632 0.246988
H266  H     H_    0.061393 0.419681 0.128334 0.245929
H267  H     H_    0.095752 0.851486 0.462718 0.243523
H268  H     H_    0.050659 0.269260 0.257283 0.261472
H269  H     H_    0.061806 0.871480 0.421870 0.245188
H270  H     H_    0.096208 0.538694 0.854825 0.246417
H271  H     H_    0.060552 0.580026 0.871338 0.247166
H272  H     H_    0.096245 0.145132 0.538535 0.246921
H273  H     H_    0.060631 0.128839 0.580009 0.246763
H274  H     H_    0.904254 0.537295 0.148517 0.243525
H275  H     H_    0.938208 0.578139 0.128523 0.245189
H276  H     H_    0.903778 0.145164 0.461348 0.246409
H277  H     H_    0.939420 0.128662 0.419999 0.247163
H278  H     H_    0.903775 0.461418 0.854872 0.246906
H279  H     H_    0.063842 0.277051 0.199747 0.258814
H280  H     H_    0.939407 0.419960 0.871156 0.246783
H281  H     H_    0.902787 0.855366 0.539022 0.247003
H282  H     H_    0.938592 0.871665 0.580310 0.245916
H283  H     H_    0.461394 0.854870 0.903792 0.246885
H284  H     H_    0.419937 0.871141 0.939435 0.246841
H285  H     H_    0.855369 0.538998 0.902778 0.246997
H286  H     H_    0.871673 0.580292 0.938573 0.245910
H287  H     H_    0.537298 0.148529 0.904255 0.243528
H288  H     H_    0.578129 0.128515 0.938207 0.245176
H289  H     H_    0.145171 0.461342 0.903773 0.246438
H290  H     H_    0.066541 0.170910 0.646940 0.159841
H291  H     H_    0.128651 0.419998 0.939417 0.247124
H292  H     H_    0.538675 0.854824 0.096221 0.246435
H293  H     H_    0.580010 0.871351 0.060569 0.247124
H294  H     H_    0.145130 0.538591 0.096214 0.246882
H295  H     H_    0.128858 0.580053 0.060580 0.246842
H296  H     H_    0.460954 0.144634 0.097203 0.246993
H297  H     H_    0.419680 0.128329 0.061388 0.245917
H298  H     H_    0.851481 0.462755 0.095765 0.243543
H299  H     H_    0.871484 0.421901 0.061833 0.245169
H300  H     H_    0.854832 0.096219 0.538666 0.246406
H301  H     H_    0.018875 0.196507 0.623661 0.119772
H302  H     H_    0.871339 0.060572 0.580009 0.247165
H303  H     H_    0.538561 0.096235 0.145120 0.246910
H304  H     H_    0.580029 0.060608 0.128845 0.246773
H305  H     H_    0.144644 0.097212 0.460978 0.246984
H306  H     H_    0.128332 0.061409 0.419693 0.245927
H307  H     H_    0.462709 0.095742 0.851481 0.243523
H308  H     H_    0.421864 0.061790 0.871476 0.245197
H309  H     H_    0.854858 0.903757 0.461460 0.246905
H310  H     H_    0.871169 0.939371 0.419993 0.246767
H311  H     H_    0.539036 0.902791 0.855371 0.246991
H312  H     H_    0.097922 0.247965 0.664086 0.242855
H313  H     H_    0.580320 0.938603 0.871665 0.245927
H314  H     H_    0.148510 0.904233 0.537258 0.243554
H315  H     H_    0.128508 0.938173 0.578108 0.245167
H316  H     H_    0.461320 0.903786 0.145170 0.246427
H317  H     H_    0.419979 0.939436 0.128665 0.247160
H318  H     H_    0.597209 0.960962 0.644626 0.246994
H319  H     H_    0.561395 0.919678 0.628334 0.245923
H320  H     H_    0.595776 0.351492 0.962769 0.243540
H321  H     H_    0.561849 0.371486 0.921903 0.245177
H322  H     H_    0.596202 0.038706 0.354824 0.246415
H323  H     H_    0.044709 0.270106 0.648584 0.225133
H324  H     H_    0.560542 0.080036 0.371335 0.247168
H325  H     H_    0.596249 0.645135 0.038525 0.246918
H326  H     H_    0.560640 0.628833 0.080000 0.246758
H327  H     H_    0.404254 0.037285 0.648520 0.243516
H328  H     H_    0.438203 0.078135 0.628527 0.245195
H329  H     H_    0.403779 0.645168 0.961344 0.246403
H330  H     H_    0.439421 0.628660 0.919997 0.247166
H331  H     H_    0.403773 0.961415 0.354875 0.246900
H332  H     H_    0.439409 0.919959 0.371158 0.246777
H333  H     H_    0.402778 0.355361 0.038997 0.246996
H334  H     H_    0.992427 0.627883 0.261507 0.206126
H335  H     H_    0.008402 0.222633 0.705960 0.258632
H336  H     H_    0.438571 0.371667 0.080293 0.245919
H337  H     H_    0.961389 0.354867 0.403794 0.246879
H338  H     H_    0.919935 0.371140 0.439437 0.246846
H339  H     H_    0.355372 0.039023 0.402789 0.247003
H340  H     H_    0.371671 0.080309 0.438596 0.245908
H341  H     H_    0.037292 0.648517 0.404253 0.243533
H342  H     H_    0.078135 0.628524 0.438205 0.245183
H343  H     H_    0.645173 0.961346 0.403771 0.246446
H344  H     H_    0.628651 0.920002 0.439413 0.247116
H345  H     H_    0.038680 0.354825 0.596219 0.246430
H346  H     H_    0.049055 0.259725 0.729236 0.261420
H347  H     H_    0.080013 0.371351 0.560566 0.247129
H348  H     H_    0.645131 0.038587 0.596215 0.246884
H349  H     H_    0.628857 0.080050 0.560582 0.246842
H350  H     H_    0.960965 0.644633 0.597207 0.246994
H351  H     H_    0.919685 0.628328 0.561398 0.245914
H352  H     H_    0.351473 0.962720 0.595754 0.243533
H353  H     H_    0.371485 0.921881 0.561808 0.245171
H354  H     H_    0.354834 0.596215 0.038670 0.246408
H355  H     H_    0.371338 0.560566 0.080012 0.247164
H356  H     H_    0.038555 0.596235 0.645126 0.246912
H357  H     H_    0.062129 0.202032 0.722364 0.259127
H358  H     H_    0.080024 0.560614 0.628844 0.246780
H359  H     H_    0.644638 0.597199 0.960947 0.246996
H360  H     H_    0.628336 0.561382 0.919671 0.245921
H361  H     H_    0.962723 0.595753 0.351485 0.243527
H362  H     H_    0.921872 0.561806 0.371478 0.245188
H363  H     H_    0.354863 0.403764 0.961445 0.246910
H364  H     H_    0.371162 0.439385 0.919979 0.246772
H365  H     H_    0.039018 0.402789 0.355368 0.246991
H366  H     H_    0.080308 0.438593 0.371666 0.245925
H367  H     H_    0.648516 0.404260 0.037315 0.243519
H368  H     H_    0.065501 0.647240 0.829322 0.159710
H369  H     H_    0.628521 0.438220 0.078151 0.245194
H370  H     H_    0.961333 0.403781 0.645171 0.246425
H371  H     H_    0.919991 0.439426 0.628661 0.247158
H372  H     H_    0.017986 0.623287 0.804010 0.120535
H373  H     H_    0.096155 0.664926 0.752285 0.242556
H374  H     H_    0.043243 0.648302 0.730178 0.225446
H375  H     H_    0.005799 0.705021 0.777473 0.258182
H376  H     H_    0.045999 0.729047 0.740439 0.262224
H377  H     H_    0.059162 0.722564 0.798163 0.259037
H378  H     H_    0.036493 0.672290 0.205785 0.258533
H379  H     H_    0.057285 0.824310 0.347858 0.163406
H380  H     H_    0.013040 0.821315 0.386496 0.133968
H381  H     H_    0.052052 0.743215 0.332752 0.237090
H382  H     H_    0.007582 0.738500 0.372123 0.206126
H383  H     H_    0.963523 0.794225 0.327718 0.258525
H384  H     H_    0.975039 0.743620 0.299022 0.266092
H385  H     H_    0.006582 0.792696 0.286157 0.259209
H386  H     H_    0.647237 0.829337 0.065593 0.159749
H387  H     H_    0.623262 0.804145 0.018024 0.120573
H388  H     H_    0.664900 0.752217 0.096060 0.242661
H389  H     H_    0.024973 0.700984 0.256389 0.266094
H390  H     H_    0.648262 0.730243 0.043097 0.225291
H391  H     H_    0.704994 0.777616 0.005758 0.258139
H392  H     H_    0.729012 0.740477 0.045868 0.262261
H393  H     H_    0.722546 0.798173 0.059171 0.259028
H394  H     H_    0.824328 0.347902 0.057351 0.163399
H395  H     H_    0.821310 0.386511 0.013086 0.133981
H396  H     H_    0.743245 0.332751 0.052149 0.237097
H397  H     H_    0.738496 0.372102 0.007668 0.206151
H398  H     H_    0.794222 0.327713 0.963598 0.258535
H399  H     H_    0.743645 0.298986 0.975157 0.266093
H400  H     H_    0.993436 0.713849 0.207312 0.259213
H401  H     H_    0.792745 0.286172 0.006675 0.259217
H402  H     H_    0.352834 0.169785 0.067891 0.159701
H403  H     H_    0.375669 0.195632 0.020157 0.120342
H404  H     H_    0.334846 0.246716 0.099155 0.241673
H405  H     H_    0.349772 0.268859 0.045786 0.226561
H406  H     H_    0.292866 0.220395 0.009922 0.258846
H407  H     H_    0.269277 0.257277 0.050538 0.261520
H408  H     H_    0.277044 0.199755 0.063798 0.258818
H409  H     H_    0.170914 0.646952 0.066299 0.159735
H410  H     H_    0.196790 0.623728 0.018764 0.119711
H411  H     H_    0.932079 0.830208 0.647141 0.159675
H412  H     H_    0.247763 0.664181 0.098089 0.242611
H413  H     H_    0.270213 0.648710 0.045005 0.225490
H414  H     H_    0.222906 0.706036 0.008436 0.258730
H415  H     H_    0.259716 0.729358 0.049311 0.261311
H416  H     H_    0.201957 0.722408 0.062036 0.259136
H417  H     H_    0.353040 0.829083 0.933719 0.159737
H418  H     H_    0.376267 0.803204 0.981250 0.119705
H419  H     H_    0.335809 0.752237 0.901922 0.242613
H420  H     H_    0.351282 0.729783 0.955006 0.225490
H421  H     H_    0.293957 0.777088 0.991578 0.258734
H422  H     H_    0.979804 0.804312 0.624347 0.120311
H423  H     H_    0.270634 0.740281 0.950702 0.261313
H424  H     H_    0.277584 0.798040 0.937980 0.259137
H425  H     H_    0.170666 0.352778 0.934374 0.159749
H426  H     H_    0.195875 0.376735 0.981944 0.120558
H427  H     H_    0.247781 0.335133 0.903874 0.242658
H428  H     H_    0.269767 0.351744 0.956840 0.225297
H429  H     H_    0.222394 0.294994 0.994158 0.258142
H430  H     H_    0.259535 0.270998 0.954038 0.262263
H431  H     H_    0.201838 0.277465 0.940738 0.259033
H432  H     H_    0.652135 0.175653 0.942750 0.163388
N1    N     N_3   0.066482 0.453669 0.130597 -0.580093
N2    N     N_3   0.869406 0.546302 0.933497 -0.580115
N3    N     N_3   0.544169 0.132355 0.933999 -0.578618
N4    N     N_3   0.131000 0.453992 0.934402 -0.578964
N5    N     N_3   0.546018 0.868998 0.065591 -0.578962
N6    N     N_3   0.131064 0.546047 0.065554 -0.579460
N7    N     N_3   0.453666 0.130596 0.066481 -0.580095
N8    N     N_3   0.867649 0.455865 0.066023 -0.578631
N9    N     N_3   0.868999 0.065589 0.546015 -0.578950
N10   N     N_3   0.546023 0.065574 0.131056 -0.579485
N11   N     N_3   0.130601 0.066492 0.453682 -0.580086
N12   N     N_3   0.066007 0.867651 0.455834 -0.578597
N13   N     N_3   0.455828 0.065997 0.867648 -0.578589
N14   N     N_3   0.868938 0.934411 0.454000 -0.579506
N15   N     N_3   0.546332 0.933514 0.869404 -0.580099
N16   N     N_3   0.132345 0.933976 0.544145 -0.578613
N17   N     N_3   0.453972 0.934418 0.131003 -0.578946
N18   N     N_3   0.566485 0.953666 0.630594 -0.580088
N19   N     N_3   0.566033 0.367655 0.955870 -0.578621
N20   N     N_3   0.565570 0.046044 0.368994 -0.578935
N21   N     N_3   0.565595 0.631059 0.045992 -0.579515
N22   N     N_3   0.433999 0.044170 0.632354 -0.578585
N23   N     N_3   0.065576 0.546034 0.868995 -0.578941
N24   N     N_3   0.434408 0.631000 0.953991 -0.578955
N25   N     N_3   0.434435 0.953964 0.368943 -0.579478
N26   N     N_3   0.433497 0.369401 0.046303 -0.580096
N27   N     N_3   0.953940 0.368935 0.434456 -0.579450
N28   N     N_3   0.369406 0.046320 0.433511 -0.580099
N29   N     N_3   0.044172 0.632352 0.433999 -0.578603
N30   N     N_3   0.631001 0.953996 0.434399 -0.578973
N31   N     N_3   0.046020 0.368999 0.565588 -0.578954
N32   N     N_3   0.631063 0.046044 0.565555 -0.579463
N33   N     N_3   0.953673 0.630595 0.566486 -0.580097
N34   N     N_3   0.065589 0.131060 0.546002 -0.579501
N35   N     N_3   0.367646 0.955843 0.566012 -0.578620
N36   N     N_3   0.369000 0.565584 0.046019 -0.578946
N37   N     N_3   0.046018 0.565577 0.631058 -0.579500
N38   N     N_3   0.630600 0.566476 0.953659 -0.580065
N39   N     N_3   0.955837 0.566008 0.367650 -0.578604
N40   N     N_3   0.368939 0.434420 0.953986 -0.579491
N41   N     N_3   0.046319 0.433510 0.369403 -0.580103
N42   N     N_3   0.632350 0.434007 0.044189 -0.578583
N43   N     N_3   0.953984 0.434411 0.631003 -0.578953
N44   N     N_3   0.934001 0.544175 0.132352 -0.578586
N45   N     N_3   0.934408 0.130999 0.453993 -0.578953
N46   N     N_3   0.934434 0.453965 0.868941 -0.579484
N47   N     N_3   0.933509 0.869402 0.546321 -0.580078
N48   N     N_3   0.453943 0.868936 0.934455 -0.579455
O1    O     O_R   0.962420 0.435100 0.500010 -0.586619
O2    O     O_R   0.499990 0.564900 0.037580 -0.586667
O3    O     O_R   0.564900 0.500010 0.037580 -0.588674
O4    O     O_R   0.500010 0.435100 0.037580 -0.585885
O5    O     O_R   0.564900 0.499990 0.962420 -0.585882
O6    O     O_R   0.500010 0.564900 0.962420 -0.586620
O7    O     O_R   0.435100 0.500010 0.962420 -0.586657
O8    O     O_R   0.499990 0.435100 0.962420 -0.588695
O9    O     O_R   0.499990 0.962420 0.564900 -0.585880
O10   O     O_R   0.564900 0.962420 0.500010 -0.586639
O11   O     O_R   0.500010 0.962420 0.435100 -0.586649
O12   O     O_R   0.962420 0.499990 0.435100 -0.588668
O13   O     O_R   0.435100 0.962420 0.499990 -0.588691
O14   O     O_R   0.499990 0.037580 0.435100 -0.586616
O15   O     O_R   0.564900 0.037580 0.499990 -0.586624
O16   O     O_R   0.500010 0.037580 0.564900 -0.588668
O17   O     O_R   0.435100 0.037580 0.500010 -0.585878
O18   O     O_R   0.462420 0.935100 0.000010 -0.586619
O19   O     O_R   0.462420 0.999990 0.935100 -0.588665
O20   O     O_R   0.462420 0.064900 0.999990 -0.585876
O21   O     O_R   0.462420 0.000010 0.064900 -0.586620
O22   O     O_R   0.537580 0.064900 0.000010 -0.588689
O23   O     O_R   0.962420 0.564900 0.499990 -0.585885
O24   O     O_R   0.537580 0.000010 0.935100 -0.585880
O25   O     O_R   0.537580 0.935100 0.999990 -0.586638
O26   O     O_R   0.537580 0.999990 0.064900 -0.586649
O27   O     O_R   0.935100 0.999990 0.537580 -0.586619
O28   O     O_R   0.999990 0.064900 0.537580 -0.586658
O29   O     O_R   0.064900 0.000010 0.537580 -0.588696
O30   O     O_R   0.000010 0.935100 0.537580 -0.585886
O31   O     O_R   0.064900 0.999990 0.462420 -0.585885
O32   O     O_R   0.000010 0.064900 0.462420 -0.586624
O33   O     O_R   0.935100 0.000010 0.462420 -0.586668
O34   O     O_R   0.962420 0.500010 0.564900 -0.586628
O35   O     O_R   0.999990 0.935100 0.462420 -0.588682
O36   O     O_R   0.999990 0.462420 0.064900 -0.585884
O37   O     O_R   0.064900 0.462420 0.000010 -0.586636
O38   O     O_R   0.000010 0.462420 0.935100 -0.586646
O39   O     O_R   0.935100 0.462420 0.999990 -0.588694
O40   O     O_R   0.999990 0.537580 0.935100 -0.586625
O41   O     O_R   0.064900 0.537580 0.999990 -0.586623
O42   O     O_R   0.000010 0.537580 0.064900 -0.588665
O43   O     O_R   0.935100 0.537580 0.000010 -0.585889
O44   O     O_3   0.926526 0.594826 0.207967 -0.596395
O45   O     O_R   0.037580 0.564900 0.500010 -0.588677
O46   O     O_3   0.918377 0.794016 0.591804 -0.624307
O47   O     O_3   0.919686 0.408792 0.793679 -0.623708
O48   O     O_3   0.920150 0.206139 0.408445 -0.623846
O49   O     O_3   0.081599 0.408180 0.205981 -0.624321
O50   O     O_3   0.080356 0.206320 0.591171 -0.623682
O51   O     O_3   0.079811 0.591596 0.793859 -0.623808
O52   O     O_3   0.073487 0.792037 0.405181 -0.596389
O53   O     O_3   0.591581 0.793862 0.079831 -0.623782
O54   O     O_3   0.792034 0.405217 0.073529 -0.596395
O55   O     O_3   0.408171 0.205979 0.081593 -0.624319
O56   O     O_R   0.037580 0.500010 0.435100 -0.585882
O57   O     O_3   0.206321 0.591222 0.080286 -0.623709
O58   O     O_3   0.408768 0.793677 0.919725 -0.623708
O59   O     O_3   0.206137 0.408439 0.920145 -0.623795
O60   O     O_3   0.594837 0.207962 0.926538 -0.596408
O61   O     O_3   0.794022 0.591788 0.918360 -0.624316
O62   O     O_3   0.793684 0.919670 0.408808 -0.623668
O63   O     O_3   0.408423 0.920164 0.206143 -0.623797
O64   O     O_3   0.207953 0.926474 0.594791 -0.596398
O65   O     O_3   0.591817 0.918389 0.794018 -0.624333
O66   O     O_3   0.793860 0.079834 0.591570 -0.623852
O67   O     O_R   0.037580 0.435100 0.499990 -0.586636
O68   O     O_3   0.405174 0.073461 0.792031 -0.596370
O69   O     O_3   0.205984 0.081604 0.408183 -0.624311
O70   O     O_3   0.591182 0.080342 0.206319 -0.623697
O71   O     O_3   0.426533 0.094825 0.707971 -0.596372
O72   O     O_3   0.418362 0.294017 0.091790 -0.624311
O73   O     O_3   0.419688 0.908792 0.293681 -0.623698
O74   O     O_3   0.420160 0.706139 0.908436 -0.623846
O75   O     O_3   0.581612 0.908183 0.705980 -0.624331
O76   O     O_3   0.580357 0.706317 0.091169 -0.623670
O77   O     O_3   0.579802 0.091605 0.293857 -0.623802
O78   O     O_R   0.037580 0.499990 0.564900 -0.586650
O79   O     O_3   0.573549 0.292043 0.905225 -0.596393
O80   O     O_3   0.091584 0.293864 0.579827 -0.623799
O81   O     O_3   0.292035 0.905180 0.573487 -0.596403
O82   O     O_3   0.908181 0.705979 0.581606 -0.624317
O83   O     O_3   0.706320 0.091220 0.580289 -0.623716
O84   O     O_3   0.908760 0.293677 0.419734 -0.623709
O85   O     O_3   0.706139 0.908443 0.420140 -0.623776
O86   O     O_3   0.094819 0.707970 0.426517 -0.596387
O87   O     O_3   0.294022 0.091802 0.418376 -0.624319
O88   O     O_3   0.293681 0.419673 0.908804 -0.623685
O89   O     O_R   0.435100 0.499990 0.037580 -0.586623
O90   O     O_3   0.908431 0.420157 0.706140 -0.623807
O91   O     O_3   0.707963 0.426547 0.094845 -0.596392
O92   O     O_3   0.091804 0.418382 0.294018 -0.624321
O93   O     O_3   0.293860 0.579831 0.091572 -0.623847
O94   O     O_3   0.905189 0.573495 0.292035 -0.596394
O95   O     O_3   0.705985 0.581589 0.908167 -0.624306
O96   O     O_3   0.091182 0.580344 0.706320 -0.623707

loop_
_geom_bond_atom_site_label_1
_geom_bond_atom_site_label_2
_ccdc_geom_bond_type
C3    C82   A    
C220  H98   S    
C3    C224  A    
C188  O63   S    
C164  H398  S    
Cu3   O36   S    
H296  N7    S    
C41   C121  A    
Cu3   O39   S    
C214  H83   S    
C209  H73   S    
C8    C56   A    
H336  N26   S    
C240  H144  S    
C257  N48   S    
C169  H409  S    
C60   C74   A    
C88   O54   S    
C282  C283  S    
C6    C85   A    
C315  C351  A    
C290  N4    S    
C86   O52   S    
C78   C129  A    
C178  O60   S    
C168  C332  A    
C141  H124  S    
H285  N2    S    
C59   C66   A    
C181  H7    S    
C327  N40   S    
C234  H131  S    
C236  O79   S    
C116  O81   S    
C82   O48   S    
C143  C144  S    
C204  H60   S    
C110  O76   S    
C267  H208  S    
C307  N19   S    
C323  N36   S    
C175  H425  S    
C266  H205  S    
Cu10  O19   S    
H281  N47   S    
C182  C183  S    
Cu9   O16   S    
H328  N22   S    
C171  H416  S    
C233  H128  S    
C17   C61   A    
C265  H203  S    
H303  N10   S    
C162  O54   S    
Cu11  O22   S    
C23   C103  A    
Cu4   O43   S    
C275  C276  S    
C41   C316  A    
C19   C63   A    
C272  C273  S    
C254  H178  S    
C200  H54   S    
C25   C298  A    
C124  O36   A    
Cu6   O4    S    
C293  C340  A    
H364  N40   S    
C284  H249  S    
C33   C307  A    
C276  H229  S    
C172  H417  S    
C36   C71   A    
C187  H23   S    
C238  H139  S    
C222  H104  S    
C339  O4    A    
C199  C200  S    
C311  N24   S    
C234  H130  S    
C214  H85   S    
C202  H55   S    
C271  H217  S    
C98   O64   S    
C53   C359  A    
C96   C120  A    
C26   C105  A    
C213  H81   S    
Cu8   Cu9   S    
C19   C98   A    
C302  C344  A    
C181  H6    S    
C44   C125  A    
C327  C354  A    
C227  H111  S    
C177  H431  S    
C306  C354  S    
C202  C203  S    
C30   C109  A    
C28   C67   A    
C160  H390  S    
H284  N48   S    
C140  C141  S    
C310  C345  A    
H332  N25   S    
C241  H147  S    
H315  N16   S    
C51   C131  A    
C206  C207  S    
C258  H184  S    
C128  O93   S    
C207  H69   S    
C324  N37   S    
C185  O62   S    
C20   C302  A    
C239  O80   S    
C4    C168  A    
C211  H80   S    
C215  C216  S    
H304  N10   S    
C229  C230  S    
Cu7   O6    S    
C50   C76   A    
C255  O85   S    
C68   C342  S    
C250  H167  S    
C322  N35   S    
C111  O77   S    
C350  O16   A    
C192  H33   S    
C10   C59   A    
C78   O44   S    
H337  N27   S    
C86   C121  A    
C228  H117  S    
C135  O37   A    
C17   C96   A    
C16   C58   A    
C322  C351  A    
C274  H226  S    
H344  N30   S    
H282  N47   S    
C280  H238  S    
C316  C352  A    
C237  H137  S    
C291  H264  S    
C208  H71   S    
C243  H151  S    
C220  H100  S    
C275  H227  S    
H321  N19   S    
C221  O74   S    
C81   O47   S    
C7    C53   A    
C52   C77   A    
C100  O66   S    
C259  H188  S    
H360  N38   S    
C145  H212  S    
C231  H123  S    
C252  H173  S    
C328  C356  S    
H293  N5    S    
Cu11  O25   S    
C339  C346  S    
C80   C117  A    
C39   C70   A    
C296  C337  A    
C281  H239  S    
C288  C289  S    
C184  H14   S    
C93   C123  A    
C305  C345  A    
C196  C197  S    
C89   O55   S    
C113  C333  S    
C139  C140  S    
C237  H136  S    
C303  N16   S    
C195  O65   S    
C174  H424  S    
Cu8   O9    S    
C163  H397  S    
C248  H162  S    
C222  C225  S    
Cu2   O31   S    
C146  C334  S    
H358  N37   S    
C156  C158  S    
C271  H216  S    
H280  N46   S    
C294  N7    S    
C9    C88   A    
C27   C66   A    
C85   C131  A    
C276  C277  S    
C97   O63   S    
C20   C99   A    
H287  N3    S    
C214  H84   S    
C87   O53   S    
C254  H176  S    
C252  H172  S    
Cu6   O2    S    
C31   C110  A    
C144  H190  S    
H338  N27   S    
C57   O22   A    
C25   C62   A    
C151  H346  S    
C179  N12   S    
C132  H1    S    
C80   O46   S    
H369  N42   S    
C187  H21   S    
H367  N42   S    
C244  H153  S    
C97   C107  A    
C11   C91   A    
C285  H250  S    
C37   C117  A    
C47   C329  A    
C193  C194  S    
C285  O95   S    
Cu2   Cu12  S    
C155  C156  S    
C171  H414  S    
C257  C336  A    
C165  H402  S    
C188  C189  S    
C269  H211  S    
Cu4   O42   S    
C186  C187  S    
C170  H413  S    
C203  H59   S    
C277  H232  S    
C101  C343  S    
C308  N20   S    
C252  C253  S    
C152  H372  S    
C181  H8    S    
C109  O75   S    
C229  H119  S    
C44   C331  A    
C32   C111  A    
C194  H37   S    
C196  H43   S    
Cu12  O28   S    
C191  H30   S    
C147  C148  S    
C226  H109  S    
C15   C94   A    
Cu10  Cu11  S    
H286  N2    S    
C58   C76   A    
C313  N26   S    
C87   C110  A    
C68   O26   A    
C192  O64   S    
H353  N35   S    
H295  N6    S    
C202  O68   S    
C249  C250  S    
C311  C348  A    
C251  H171  S    
C1    O1    A    
C21   C297  A    
C148  H257  S    
Cu5   O67   S    
C124  C332  S    
C204  H61   S    
Cu10  O21   S    
C106  O72   S    
C49   C326  A    
C5    C201  A    
C253  C254  S    
C38   C73   A    
C139  H57   S    
C7    C86   A    
C170  C171  S    
C180  H4    S    
C232  O77   S    
H347  N31   S    
C236  C237  S    
H327  N22   S    
C124  O42   A    
C298  N10   S    
C127  O92   S    
C189  C191  S    
C167  H408  S    
C42   C71   A    
C186  H20   S    
C3    C55   A    
C92   C108  A    
C321  C352  A    
C225  H107  S    
C10   C89   A    
C197  H45   S    
C221  H102  S    
H271  N23   S    
C154  H375  S    
C95   C130  A    
C43   C327  A    
C267  H209  S    
H325  N21   S    
C158  H385  S    
C166  H404  S    
C212  C358  A    
C233  C234  S    
C236  H133  S    
C14   C93   A    
C249  H164  S    
C245  O82   S    
C272  H219  S    
C212  C332  A    
C204  H62   S    
H272  N34   S    
C237  C238  S    
C282  H242  S    
H326  N21   S    
C182  H10   S    
C281  H241  S    
C114  O79   S    
C184  H16   S    
C277  H233  S    
C160  H388  S    
C278  O93   S    
C148  H279  S    
C34   C319  A    
C239  H141  S    
C33   C66   A    
C1    O67   A    
C51   C324  A    
C145  O49   S    
Cu8   O11   S    
C185  H18   S    
H359  N38   S    
C313  C346  A    
C153  H373  S    
C280  C281  S    
C242  O81   S    
C122  O87   S    
H277  N45   S    
C161  H391  S    
C5    C84   A    
C309  N21   S    
C255  H180  S    
C330  C356  A    
C142  H146  S    
C27   C106  A    
C210  H76   S    
C34   C115  A    
C119  O84   S    
C263  H197  S    
H297  N7    S    
C197  H47   S    
C264  H202  S    
C286  H253  S    
C198  H48   S    
C89   C106  A    
C301  C341  A    
H343  N30   S    
C159  H386  S    
C14   C290  A    
C221  C222  S    
H341  N29   S    
C244  H155  S    
C306  O7    A    
H320  N19   S    
C45   C126  A    
C131  O96   S    
C206  H65   S    
H298  N8    S    
C309  C348  A    
C209  C210  S    
C143  H168  S    
C29   C108  A    
C235  N46   S    
C12   C56   A    
C258  H186  S    
C137  H2    S    
C176  H428  S    
C217  H91   S    
Cu7   O7    S    
C32   C67   A    
C270  H214  S    
C272  O91   S    
C320  C353  A    
C231  H125  S    
H371  N43   S    
C155  H380  S    
C231  H122  S    
C264  H199  S    
H316  N17   S    
C138  H35   S    
C36   C322  A    
C120  O85   S    
C164  H399  S    
C149  H301  S    
H299  N8    S    
C283  H245  S    
C144  H179  S    
C154  H376  S    
C90   C335  S    
C36   C116  A    
C147  H246  S    
C43   C123  A    
C35   C336  S    
C328  O3    A    
C40   C318  A    
H300  N9    S    
C242  H149  S    
C11   C293  A    
H288  N3    S    
C215  O72   S    
C176  C177  S    
C297  N9    S    
C81   C125  A    
C142  C143  S    
H278  N46   S    
C22   C300  A    
C83   C127  A    
C136  C137  S    
H265  N1    S    
C317  C348  S    
C259  O86   S    
C230  H120  S    
C262  C263  S    
C251  H170  S    
C314  C349  A    
H351  N33   S    
C92   O58   S    
C180  H5    S    
C299  C343  A    
C15   C279  A    
C201  C335  A    
C167  H406  S    
C235  C360  A    
C53   C72   A    
C301  N14   S    
C146  O38   A    
C279  N3    S    
C125  O90   S    
C23   C63   A    
C240  C241  S    
H307  N13   S    
C267  H207  S    
C153  H374  S    
C148  H268  S    
C136  H411  S    
Cu12  O30   S    
C158  H383  S    
C157  O43   A    
C268  N2    S    
H361  N39   S    
Cu9   O15   S    
C30   C65   A    
C171  H415  S    
C156  H381  S    
C54   C75   A    
C175  O59   S    
C261  H194  S    
C296  N8    S    
C197  H44   S    
C152  C153  S    
C256  H183  S    
C226  C227  S    
C12   C257  A    
C283  C284  S    
C150  C151  S    
H324  N20   S    
C134  H389  S    
H363  N40   S    
C300  C344  A    
C345  C350  S    
C299  N11   S    
C183  H11   S    
C273  H220  S    
C172  H418  S    
C255  C256  S    
C229  O76   S    
C238  H140  S    
C190  N23   S    
C300  N13   S    
C222  H105  S    
C260  H191  S    
C284  H247  S    
C279  C338  A    
Cu2   O35   S    
C159  O53   S    
C118  O83   S    
C215  H86   S    
C202  H56   S    
C239  C240  S    
C192  C193  S    
C162  H394  S    
H319  N18   S    
C201  N34   S    
C161  H393  S    
C263  C264  S    
C138  H46   S    
C317  O2    A    
C199  H51   S    
C213  C214  S    
C31   C309  A    
C189  H27   S    
C200  H52   S    
C177  H430  S    
C165  C166  S    
C138  H24   S    
C85   O51   S    
C45   C76   A    
C196  H42   S    
C82   C119  A    
C191  H31   S    
C96   O62   S    
C6    C54   A    
C2    O15   A    
C310  N22   S    
C249  O83   S    
C205  H64   S    
Cu1   O1    S    
C68   O21   A    
C284  H248  S    
C288  H259  S    
C247  H159  S    
C243  C244  S    
C99   C109  A    
C287  H256  S    
C312  N25   S    
C40   C73   A    
C152  O51   S    
C102  C105  A    
C223  O45   A    
C9    C58   A    
C293  N6    S    
C218  H94   S    
C57   O20   A    
Cu6   Cu7   S    
C13   O14   A    
C217  H93   S    
Cu7   O5    S    
C152  H368  S    
C262  H196  S    
C195  H40   S    
C16   C95   A    
Cu3   Cu4   S    
C151  H357  S    
C298  C342  A    
C18   C97   A    
H339  N28   S    
C129  O94   S    
C34   C70   A    
C189  H28   S    
C21   C61   A    
C223  C352  S    
C192  H32   S    
C12   C92   A    
C10   C294  A    
C173  H420  S    
C234  H132  S    
C291  H263  S    
C208  H72   S    
C169  H410  S    
H352  N35   S    
C113  O35   A    
C269  C270  S    
C216  H88   S    
C233  H129  S    
H318  N18   S    
H355  N36   S    
C182  O61   S    
C115  O80   S    
C79   O33   A    
C259  H187  S    
C242  H150  S    
C145  C147  S    
C5    C55   A    
C272  H218  S    
C282  O94   S    
C240  H143  S    
C269  O90   S    
H348  N32   S    
C178  H3    S    
C190  C334  A    
C91   C128  A    
H313  N15   S    
C178  H432  S    
H291  N4    S    
C149  O50   S    
C227  H114  S    
C147  H235  S    
C289  H260  S    
C1    C349  S    
C292  C336  A    
C208  C209  S    
C219  C220  S    
C172  C173  S    
C288  H258  S    
C260  C261  S    
C224  C335  A    
C195  C196  S    
C61   C73   A    
C250  C251  S    
C205  C206  S    
Cu8   O10   S    
C102  O68   S    
C219  H96   S    
C81   C360  A    
C139  O47   S    
Cu10  O18   S    
C350  O9    A    
C271  H215  S    
C208  O70   S    
C285  C286  S    
C339  O8    A    
C132  C133  S    
H314  N16   S    
C48   C128  A    
C318  C353  A    
C101  O29   A    
C112  O56   A    
C239  H142  S    
C295  C355  S    
C159  C160  S    
C95   O61   S    
C90   O28   A    
C246  C359  A    
C254  H177  S    
C185  H17   S    
C200  H53   S    
C193  H36   S    
C276  H230  S    
C242  C243  S    
C28   C312  A    
C25   C104  A    
C33   C114  A    
H333  N26   S    
C157  C337  S    
H292  N5    S    
C112  O12   A    
C159  H387  S    
H273  N34   S    
C238  H138  S    
C244  H154  S    
C40   C120  A    
C207  H67   S    
Cu5   O56   S    
C29   C69   A    
C170  H412  S    
C133  C134  S    
C103  O69   S    
C304  C342  A    
Cu1   O34   S    
C100  C118  A    
C269  H210  S    
C132  O44   S    
H276  N45   S    
C320  N32   S    
C213  H82   S    
C23   C299  A    
C317  O6    A    
H330  N24   S    
C162  C163  S    
H370  N43   S    
Cu6   O89   S    
C229  H118  S    
Cu1   Cu5   S    
C32   C308  A    
C235  C334  A    
C224  N45   S    
C263  H198  S    
C57   C338  S    
C15   C59   A    
C191  H29   S    
C226  H110  S    
C241  H148  S    
C46   O24   A    
C178  C180  S    
C179  C333  A    
H366  N41   S    
C150  H323  S    
H362  N39   S    
C207  H70   S    
C295  O34   A    
C287  H254  S    
H274  N44   S    
C123  O88   S    
C198  O66   S    
C314  N27   S    
C216  H89   S    
C104  O70   S    
C64   C65   A    
C121  O86   S    
C247  H160  S    
C230  C231  S    
C149  C150  S    
C13   C347  S    
C144  H201  S    
C250  H166  S    
C185  C186  S    
C253  H175  S    
C4    C83   A    
C223  O23   A    
C321  N33   S    
C155  O52   S    
C26   C310  A    
C232  C233  S    
C268  C337  A    
C38   C320  A    
C163  H396  S    
C167  H407  S    
C324  C355  A    
C274  H225  S    
C211  O71   S    
C126  O91   S    
C80   C359  A    
C22   C64   A    
C280  H237  S    
C38   C118  A    
C325  C356  A    
H309  N14   S    
C199  H50   S    
C245  H156  S    
C243  H152  S    
C220  H99   S    
C134  H400  S    
C275  H228  S    
C330  N42   S    
C37   C72   A    
Cu2   O32   S    
C326  N39   S    
C329  N41   S    
C270  C271  S    
C288  O96   S    
C308  C347  A    
C142  O48   S    
C29   C311  A    
Cu3   O38   S    
H365  N41   S    
C149  H290  S    
C103  C122  A    
C175  H426  S    
H329  N24   S    
C180  C181  S    
C303  C343  A    
C45   C330  A    
Cu11  O26   S    
C289  H261  S    
C203  C204  S    
H269  N12   S    
C256  H182  S    
H283  N48   S    
C241  H145  S    
C282  H243  S    
C169  C170  S    
C17   C301  A    
C188  H25   S    
C163  C164  S    
C8    C292  A    
C228  H116  S    
C117  O82   S    
C183  C184  S    
C94   C114  A    
C326  C357  A    
C173  C174  S    
C203  H58   S    
Cu9   O17   S    
C174  H423  S    
Cu1   O23   S    
C154  H377  S    
H311  N15   S    
C248  H161  S    
H289  N4    S    
C62   C67   A    
C4    C52   A    
C306  O89   A    
H317  N17   S    
C157  O39   A    
C215  H87   S    
C105  O71   S    
C30   C305  A    
C51   C75   A    
Cu8   O13   S    
Cu5   O78   S    
C307  C346  A    
C286  C287  S    
C101  O31   A    
C39   C119  A    
H305  N11   S    
C28   C107  A    
H306  N11   S    
C305  N18   S    
C265  H204  S    
C79   C341  S    
C183  H12   S    
C194  H38   S    
C277  H231  S    
C198  H49   S    
C151  H335  S    
C227  C228  S    
C275  O92   S    
C88   C126  A    
C142  H135  S    
C50   C130  A    
C323  C354  A    
C107  O73   S    
C278  H236  S    
C285  H251  S    
C312  C347  A    
C150  H312  S    
C98   C116  A    
C175  C176  S    
C49   C77   A    
C133  H334  S    
C206  H66   S    
C18   C304  A    
C42   C315  A    
C165  H403  S    
C169  O57   S    
C198  C199  S    
C46   O19   A    
H356  N37   S    
C136  H422  S    
C265  C266  S    
C262  H195  S    
C46   C344  S    
C187  H22   S    
C79   O27   A    
C260  H189  S    
H266  N1    S    
C94   O60   S    
C145  H224  S    
C43   C74   A    
C266  H206  S    
H345  N31   S    
C155  H379  S    
C130  O95   S    
C195  H41   S    
C168  N1    S    
C35   O25   A    
C264  H200  S    
Cu10  O20   S    
C24   O13   A    
C134  H378  S    
Cu12  O27   S    
C292  N5    S    
C137  H13   S    
C211  H78   S    
C22   C102  A    
H322  N20   S    
C274  H222  S    
C48   C74   A    
Cu6   O3    S    
C273  H221  S    
C262  O87   S    
C291  H262  S    
C48   C323  A    
C136  O46   S    
C304  N17   S    
C140  H79   S    
C319  N31   S    
C83   O49   S    
C318  N30   S    
H308  N13   S    
C55   C70   A    
C246  C333  A    
C216  C217  S    
Cu7   O8    S    
C225  H106  S    
C146  O40   A    
H267  N12   S    
C143  H157  S    
C253  H174  S    
H275  N44   S    
C230  H121  S    
C251  H169  S    
H331  N25   S    
C49   C129  A    
C302  N15   S    
C228  H115  S    
C139  H68   S    
C256  C258  S    
C246  N47   S    
C91   O57   S    
C20   C64   A    
C44   C75   A    
C186  H19   S    
C78   C358  A    
Cu1   O12   S    
C212  N44   S    
C47   C127  A    
C297  C341  A    
C225  H108  S    
C31   C69   A    
C221  H103  S    
C35   O18   A    
C84   O50   S    
C164  H401  S    
C6    C190  A    
C218  O73   S    
C331  C355  A    
C135  C340  S    
C7    C179  A    
C325  N38   S    
C219  H97   S    
C158  H384  S    
C113  O30   A    
C295  O78   A    
C99   O65   S    
C52   C358  A    
Cu9   O14   S    
C16   C268  A    
C156  H382  S    
H350  N33   S    
C41   C72   A    
C232  H126  S    
C261  H193  S    
Cu11  O24   S    
C211  C213  S    
C13   O11   A    
C316  N29   S    
C56   C69   A    
C84   C115  A    
C132  H112  S    
C27   C313  A    
C166  C167  S    
Cu4   O41   S    
C182  H9    S    
C278  C280  S    
C209  H74   S    
C184  H15   S    
C47   C77   A    
C2    O10   A    
C141  H113  S    
C259  C260  S    
H354  N36   S    
C283  H244  S    
C193  H34   S    
C140  H90   S    
C226  O75   S    
C42   C122  A    
C172  O58   S    
C24   O17   A    
C165  O55   S    
C54   C360  A    
C174  H421  S    
H270  N23   S    
C248  H163  S    
C141  H101  S    
C21   C100  A    
C26   C65   A    
C236  H134  S    
C50   C325  A    
C112  C357  S    
C2    C353  S    
C63   C71   A    
C162  H395  S    
C265  O88   S    
C37   C321  A    
C104  C111  A    
C247  C248  S    
C261  H192  S    
C90   O32   A    
C210  H75   S    
C255  H181  S    
C137  C138  S    
C319  C349  A    
C281  H240  S    
C177  H429  S    
C93   O59   S    
C14   C60   A    
C8    C87   A    
C205  O69   S    
C160  C161  S    
C245  C247  S    
H342  N29   S    
C252  O84   S    
C194  H39   S    
Cu2   O33   S    
H302  N9    S    
C315  N28   S    
C135  O41   A    
H349  N32   S    
Cu5   O45   S    
C328  O5    A    
C278  H234  S    
C218  C219  S    
C205  H63   S    
C331  N43   S    
H310  N14   S    
C249  H165  S    
C287  H255  S    
C289  C291  S    
C166  H405  S    
H340  N28   S    
Cu4   O40   S    
C19   C303  A    
C258  H185  S    
C329  C357  A    
C218  H95   S    
C133  H223  S    
C176  H427  S    
C217  H92   S    
C266  C267  S    
C232  H127  S    
C270  H213  S    
C108  O74   S    
H294  N6    S    
C24   C351  S    
C286  H252  S    
Cu3   O37   S    
Cu12  O29   S    
C245  H158  S    
C210  H77   S    
C18   C62   A    
C188  H26   S    
C153  C154  S    
C39   C314  A    
C290  C340  A    
C9    C296  A    
C294  C338  A    
C11   C60   A    
C173  H419  S    
C161  H392  S    
C273  C274  S    
