data_mof_unit_46446.cif
_audit_creation_date              2012-12-10T17:29:13-0500
_audit_creation_method            fapswitch 2.2
_symmetry_space_group_name_H-M    P1
_symmetry_Int_Tables_number       1
_space_group_crystal_system       triclinic
_cell_length_a                    11.993585
_cell_length_b                    12.951728
_cell_length_c                    13.004301
_cell_angle_alpha                 87.819373
_cell_angle_beta                  113.492909
_cell_angle_gamma                 92.923785
_cell_volume                      1849.85605219

loop_
_atom_site_label
_atom_site_type_symbol
_atom_type_description
_atom_site_fract_x
_atom_site_fract_y
_atom_site_fract_z
_atom_type_partial_charge
C1    C     C_R   0.475368 0.299976 0.492274 0.902334
C2    C     C_R   0.614109 0.507576 0.830862 -0.080550
C3    C     C_R   0.534525 0.812234 0.506969 -0.181064
C4    C     C_R   0.567504 0.499616 0.709216 0.949058
C5    C     C_R   0.457164 0.189474 0.478878 -0.122392
C6    C     C_R   0.331598 0.032286 0.443825 0.434711
C7    C     C_R   0.340187 0.140476 0.435314 0.072810
C8    C     C_R   0.561283 0.132725 0.506752 -0.296766
C9    C     C_R   0.553356 0.026310 0.502587 0.032962
C10   C     C_R   0.439246 0.975984 0.482452 -0.089104
C11   C     C_R   0.435049 0.869467 0.499874 0.433650
C12   C     C_R   0.571853 0.535956 0.994077 0.007902
C13   C     C_R   0.644422 0.861785 0.517033 -0.294219
C14   C     C_R   0.657092 0.968966 0.520481 0.243420
C15   C     C_R   0.023731 0.621838 0.428616 0.074165
C16   C     C_R   0.522590 0.700634 0.503815 0.992497
C17   C     C_R   0.140144 0.605734 0.430889 0.079615
C18   C     C_R   0.151057 0.445733 0.527600 -0.077059
C19   C     C_R   0.032851 0.455779 0.526183 0.027027
C20   C     C_R   0.968258 0.545392 0.475982 0.019298
C21   C     C_R   0.849900 0.555260 0.474302 -0.063927
C22   C     C_R   0.860046 0.394420 0.569418 -0.001388
C23   C     C_R   0.549444 0.559824 0.881573 -0.057207
C24   C     C_R   0.977587 0.379474 0.573867 0.120504
C25   C     C_R   0.433304 0.506288 0.290566 0.893428
C26   C     C_R   0.294037 0.640667 0.009580 -0.277462
C27   C     C_R   0.395577 0.530536 0.171373 -0.106475
C28   C     C_R   0.717128 0.453098 0.897021 -0.269630
C29   C     C_R   0.755704 0.449983 0.012718 -0.133706
C30   C     C_R   0.685783 0.492582 0.063352 0.232905
C31   C     C_3   0.779736 0.019562 0.538698 -0.918073
C32   C     C_3   0.226951 0.200934 0.372208 -0.865784
C33   C     C_3   0.962564 0.721073 0.377544 -0.911380
C34   C     C_R   0.478358 0.554514 0.030244 0.032125
C35   C     C_3   0.040697 0.281948 0.628351 -0.962585
C36   C     C_3   0.270155 0.726883 0.789985 -0.912393
C37   C     C_3   0.745456 0.503688 0.189034 -0.932539
C38   C     C_R   0.381734 0.619634 0.966747 0.052882
C39   C     C_R   0.375824 0.662099 0.862978 0.077694
C40   C     C_R   0.464802 0.635931 0.823774 0.429491
C41   C     C_R   0.473163 0.501542 0.123257 -0.314293
C42   C     C_R   0.302868 0.599229 0.113946 0.443543
H1    H     H_    0.721379 0.816761 0.525206 0.181298
H2    H     H_    0.840585 0.414182 0.063205 0.155766
H3    H     H_    0.166645 0.676619 0.111206 0.330041
H4    H     H_    0.162630 0.021073 0.425111 0.330689
H5    H     H_    0.848210 0.961782 0.546626 0.240445
H6    H     H_    0.771565 0.071866 0.466578 0.245559
H7    H     H_    0.814479 0.064384 0.617141 0.233080
H8    H     H_    0.154155 0.153133 0.309130 0.246524
H9    H     H_    0.191819 0.230965 0.431898 0.236347
H10   H     H_    0.246620 0.265750 0.322795 0.250708
H11   H     H_    0.020155 0.772269 0.346542 0.275352
H12   H     H_    0.649548 0.172244 0.532836 0.190102
H13   H     H_    0.875334 0.704097 0.305559 0.241165
H14   H     H_    0.944774 0.763882 0.441493 0.242872
H15   H     H_    0.983674 0.230959 0.660188 0.242101
H16   H     H_    0.060514 0.237856 0.566404 0.243254
H17   H     H_    0.126971 0.301740 0.700417 0.250801
H18   H     H_    0.267033 0.742042 0.704455 0.269210
H19   H     H_    0.182806 0.684894 0.777574 0.246215
H20   H     H_    0.275039 0.801923 0.830365 0.236436
H21   H     H_    0.701856 0.562359 0.219091 0.255600
H22   H     H_    0.744291 0.427879 0.231502 0.243721
H23   H     H_    0.797300 0.621908 0.435226 0.154009
H24   H     H_    0.841853 0.530788 0.213950 0.250105
H25   H     H_    0.460050 0.762246 0.738088 0.335025
H26   H     H_    0.313172 0.864465 0.562366 0.336837
H27   H     H_    0.816915 0.336484 0.605039 0.133316
H28   H     H_    0.182825 0.663134 0.394322 0.200312
H29   H     H_    0.204041 0.379482 0.567384 0.152761
H30   H     H_    0.221616 0.692568 0.965400 0.151424
H31   H     H_    0.533754 0.439628 0.163091 0.189810
H32   H     H_    0.768707 0.413939 0.859267 0.165225
N1    N     N_R   0.798200 0.480260 0.519790 -0.116435
N2    N     N_R   0.201820 0.519740 0.480210 -0.123102
O1    O     O_R   0.579910 0.341070 0.505280 -0.639768
O2    O     O_3   0.219639 0.979867 0.407079 -0.753543
O3    O     O_3   0.477556 0.688819 0.734700 -0.758469
O4    O     O_3   0.336671 0.820722 0.513815 -0.715509
O5    O     O_R   0.388440 0.353740 0.492580 -0.628720
O6    O     O_R   0.643280 0.490550 0.663120 -0.626410
O7    O     O_R   0.451810 0.503220 0.650420 -0.577413
O8    O     O_R   0.611560 0.646260 0.507420 -0.650871
O9    O     O_R   0.420090 0.658930 0.494720 -0.527179
O10   O     O_R   0.548190 0.496780 0.349580 -0.626495
O11   O     O_R   0.356720 0.509450 0.336880 -0.567570
O12   O     O_3   0.225262 0.627323 0.162163 -0.763327
Zn1   Zn    Zn3+2 0.627850 0.491540 0.508480 0.931126
Zn2   Zn    Zn3+2 0.372150 0.508460 0.491520 1.003545

loop_
_geom_bond_atom_site_label_1
_geom_bond_atom_site_label_2
_ccdc_geom_bond_type
H26   O4    S    
C33   H13   S    
C1    O1    A    
C19   C20   A    
C25   O11   A    
C14   C31   S    
C28   H32   S    
C12   C23   A    
O1    Zn1   S    
O6    Zn1   S    
C35   H16   S    
C1    C5    S    
C28   C29   A    
C38   C39   A    
C6    O2    S    
C1    O5    A    
C23   C40   A    
C16   O8    A    
C26   H30   S    
C35   H17   S    
C18   C19   A    
C32   H10   S    
C8    C9    A    
C17   N2    A    
C9    C10   A    
C22   H27   S    
C3    C13   A    
C12   C30   A    
C33   H14   S    
C17   H28   S    
C31   H5    S    
C13   C14   A    
C34   C41   A    
C22   N1    A    
C31   H7    S    
C36   H20   S    
C37   H21   S    
C33   H11   S    
C15   C20   A    
C24   C35   S    
H3    O12   S    
H25   O3    S    
C10   C11   A    
C8    H12   S    
C39   C40   A    
C5    C7    A    
C26   C38   A    
C30   C37   S    
C2    C4    S    
C9    C14   A    
C32   H9    S    
C29   C30   A    
C27   C41   A    
C37   H24   S    
C40   O3    S    
C32   H8    S    
O5    Zn2   S    
C31   H6    S    
C29   H2    S    
C16   O9    A    
C22   C24   A    
C42   O12   S    
O8    Zn1   S    
C12   C34   A    
C36   H19   S    
C13   H1    S    
C37   H22   S    
C26   C42   A    
H4    O2    S    
C18   H29   S    
C15   C17   A    
O7    Zn2   S    
C18   N2    A    
C7    C32   S    
C21   H23   S    
C34   C38   A    
C36   C39   S    
C36   H18   S    
O10   Zn1   S    
C6    C10   A    
C5    C8    A    
O9    Zn2   S    
C6    C7    A    
C25   C27   S    
C21   N1    A    
C35   H15   S    
C19   C24   A    
C27   C42   A    
C4    O7    A    
C25   O10   A    
C3    C11   A    
C11   O4    S    
N1    Zn1   S    
C41   H31   S    
C4    O6    A    
C20   C21   A    
O11   Zn2   S    
C2    C23   A    
C2    C28   A    
C15   C33   S    
C3    C16   S    
N2    Zn2   S    
