data_mof_unit_14561.cif
_audit_creation_date              2012-12-11T15:55:43-0500
_audit_creation_method            fapswitch 2.2
_symmetry_space_group_name_H-M    P1
_symmetry_Int_Tables_number       1
_space_group_crystal_system       triclinic
_cell_length_a                    6.948728
_cell_length_b                    14.528893
_cell_length_c                    16.11412
_cell_angle_alpha                 89.975647
_cell_angle_beta                  89.918737
_cell_angle_gamma                 89.990364
_cell_volume                      1626.8366535

loop_
_atom_site_label
_atom_site_type_symbol
_atom_type_description
_atom_site_fract_x
_atom_site_fract_y
_atom_site_fract_z
_atom_type_partial_charge
O1    O     O_R   0.505680 0.583900 0.413320 -0.543449
O2    O     O_R   0.176010 0.594950 0.586080 -0.529486
O3    O     O_R   0.005680 0.416100 0.586680 -0.537800
C1    C     C_R   0.344785 0.614213 0.617155 0.676013
O4    O     O_R   0.175960 0.594930 0.413930 -0.521878
O5    O     O_R   0.005640 0.416080 0.413300 -0.547851
C2    C     C_R   0.344693 0.618370 0.385904 0.702652
O6    O     O_R   0.505720 0.583920 0.586700 -0.545275
O7    O     O_3   0.339190 0.441320 0.500000 -0.370136
V1    V     V_3+5 0.064350 0.510890 0.500000 1.467693
O8    O     O_R   0.675920 0.405050 0.413920 -0.519130
C3    C     C_R   0.844957 0.381431 0.386281 0.724420
O9    O     O_R   0.675960 0.405070 0.586070 -0.550586
C4    C     C_R   0.844620 0.383149 0.614939 0.705658
V2    V     V_3+5 0.564340 0.489110 0.500000 1.445671
O10   O     O_3   0.839370 0.558680 0.500000 -0.361722
C5    C     C_R   0.017062 0.258464 0.693662 0.057093
C6    C     C_R   0.853262 0.312981 0.681762 -0.079630
C7    C     C_R   0.699903 0.301365 0.737850 -0.170822
H1    H     H_    0.575410 0.345371 0.733398 0.120668
C8    C     C_R   0.712608 0.238104 0.804005 -0.178165
H2    H     H_    0.597601 0.233353 0.848532 0.125441
C9    C     C_R   0.879035 0.185522 0.816903 -0.066100
C10   C     C_R   0.031362 0.198093 0.761236 0.086642
C11   C     C_3   0.230170 0.230486 0.780225 0.016101
C12   C     C_3   0.217858 0.291500 0.703887 -0.387820
H3    H     H_    0.338760 0.174480 0.776341 0.111339
H4    H     H_    0.311491 0.267771 0.652147 0.147919
H5    H     H_    0.225994 0.366636 0.716889 0.179585
C13   C     C_R   0.023676 0.244289 0.201077 -0.164881
H6    H     H_    0.147039 0.246345 0.159941 0.125677
C14   C     C_R   0.013449 0.308142 0.265756 -0.215438
H7    H     H_    0.129016 0.357614 0.272397 0.132170
C15   C     C_R   0.854892 0.310097 0.319891 -0.057758
C16   C     C_R   0.707838 0.243710 0.310099 0.171358
C17   C     C_R   0.717594 0.178724 0.244584 -0.034699
C18   C     C_R   0.875582 0.180159 0.188088 -0.125607
C19   C     C_R   0.215112 0.746361 0.699363 -0.098640
H8    H     H_    0.096095 0.750852 0.656200 0.139761
C20   C     C_R   0.226356 0.810844 0.763415 -0.215334
H9    H     H_    0.115156 0.862870 0.768045 0.128327
C21   C     C_R   0.380609 0.810186 0.819551 -0.069306
C22   C     C_R   0.522489 0.740714 0.812399 0.182077
C23   C     C_R   0.510148 0.673750 0.748040 -0.044603
C24   C     C_R   0.356814 0.678354 0.689520 -0.138206
C25   C     C_R   0.194629 0.745441 0.297853 0.209650
C26   C     C_R   0.208523 0.807515 0.231002 -0.161754
H10   H     H_    0.086055 0.850601 0.216114 0.123365
C27   C     C_R   0.379024 0.816140 0.184735 -0.057921
C28   C     C_R   0.537626 0.761387 0.206345 -0.148590
H11   H     H_    0.671437 0.766519 0.172100 0.132046
C29   C     C_R   0.524805 0.698104 0.271615 -0.203475
H12   H     H_    0.649191 0.655814 0.285201 0.153391
C30   C     C_R   0.353984 0.688427 0.318016 -0.064575
O11   O     O_R   0.229200 0.915950 0.913350 -0.545537
O12   O     O_R   0.559090 0.905000 0.086080 -0.538732
O13   O     O_R   0.729280 0.083880 0.086680 -0.550889
C31   C     C_R   0.390201 0.883183 0.115165 0.720029
O14   O     O_R   0.558920 0.904980 0.913920 -0.519651
O15   O     O_R   0.729110 0.083860 0.913300 -0.545446
C32   C     C_R   0.390119 0.881504 0.886092 0.729736
O16   O     O_R   0.229360 0.915970 0.086730 -0.543339
O17   O     O_3   0.395680 0.058580 0.000030 -0.385935
V3    V     V_3+5 0.670570 0.989070 0.999990 1.431461
O18   O     O_R   0.058820 0.094950 0.913870 -0.543990
C33   C     C_R   0.890002 0.117942 0.885883 0.688486
O19   O     O_R   0.058990 0.094970 0.086020 -0.543399
C34   C     C_R   0.889513 0.114952 0.116595 0.700268
V4    V     V_3+5 0.170560 0.010930 0.999930 1.398638
O20   O     O_3   0.895590 0.941310 0.999960 -0.360632
C35   C     C_2   0.562640 0.109112 0.237453 0.343607
H13   H     H_    0.463162 0.111311 0.185664 0.067505
O21   O     O_2   0.545154 0.048987 0.289839 -0.536315
N1    N     N_3   0.671456 0.735734 0.873938 -0.647370
H14   H     H_    0.804500 0.746768 0.845322 0.270247
H15   H     H_    0.669388 0.670652 0.901609 0.239631
C36   C     C_2   0.647331 0.595018 0.745807 0.370811
H16   H     H_    0.596368 0.526969 0.728968 0.032418
O22   O     O_2   0.818139 0.605299 0.760742 -0.542244
N2    N     N_3   0.020446 0.741966 0.346037 -0.652802
H17   H     H_    0.914074 0.783604 0.319682 0.225970
H18   H     H_    0.051064 0.770198 0.404214 0.225324
N3    N     N_3   0.234370 0.284112 0.857306 -0.636998
H19   H     H_    0.343583 0.333384 0.853585 0.223946
H20   H     H_    0.271085 0.239861 0.905893 0.235825
N4    N     N_3   0.549134 0.242251 0.367354 -0.650932
H21   H     H_    0.420781 0.248346 0.334013 0.225788
H22   H     H_    0.549268 0.179456 0.398979 0.260443

loop_
_geom_bond_atom_site_label_1
_geom_bond_atom_site_label_2
_ccdc_geom_bond_type
C31   O16   A    
C13   C14   A    
C4    C6    S    
C7    H1    S    
C1    O6    A    
C26   C27   A    
C36   H16   S    
C23   C24   A    
O14   V3    S    
N1    H15   S    
N3    H19   S    
C5    C12   S    
C9    C33   S    
C17   C18   A    
C7    C8    A    
C6    C7    A    
O5    C3    A    
C13   H6    S    
C16   N4    S    
N4    H22   S    
V2    O10   S    
C18   C34   S    
C15   C16   A    
C19   C24   A    
O8    V2    S    
O17   V4    S    
C28   C29   A    
C9    C10   A    
O12   V3    S    
O1    V2    S    
V3    O20   S    
O7    V1    S    
C17   C35   S    
C22   N1    S    
C20   C21   A    
O15   C33   A    
O9    C4    A    
C29   C30   A    
C28   H11   S    
C1    C24   S    
C36   O22   D    
O14   C32   A    
C5    C10   A    
N1    H14   S    
O19   C34   A    
C10   C11   S    
N2    H18   S    
C35   O21   D    
N4    H21   S    
C11   C12   S    
C27   C31   S    
O16   V4    S    
O19   V4    S    
C16   C17   A    
C14   C15   A    
O2    C1    A    
C22   C23   A    
C26   H10   S    
C25   C30   A    
C5    C6    A    
C21   C32   S    
O11   V4    S    
O3    C4    A    
C20   H9    S    
N3    H20   S    
O18   C33   A    
O6    V2    S    
O9    V2    S    
C21   C22   A    
O13   C34   A    
C3    C15   S    
O2    V1    S    
C29   H12   S    
O13   V3    S    
O4    C2    A    
C25   C26   A    
C23   C36   S    
O1    C2    A    
N2    H17   S    
O5    V1    S    
O8    C3    A    
C11   H3    S    
C12   H4    S    
O15   V3    S    
C14   H7    S    
C8    C9    A    
O7    V2    S    
C35   H13   S    
O3    V1    S    
V1    O10   S    
C19   C20   A    
C19   H8    S    
O18   V4    S    
O11   C32   A    
O12   C31   A    
V4    O20   S    
O17   V3    S    
O4    V1    S    
C13   C18   A    
C12   H5    S    
C27   C28   A    
C11   N3    S    
C25   N2    S    
C2    C30   S    
C8    H2    S    
