data_mof_unit_19166.cif
_audit_creation_date              2012-12-11T15:49:09-0500
_audit_creation_method            fapswitch 2.2
_symmetry_space_group_name_H-M    P1
_symmetry_Int_Tables_number       1
_space_group_crystal_system       triclinic
_cell_length_a                    21.624873
_cell_length_b                    7.180626
_cell_length_c                    14.884684
_cell_angle_alpha                 90.0
_cell_angle_beta                  106.377755
_cell_angle_gamma                 90.000019
_cell_volume                      2217.51135921

loop_
_atom_site_label
_atom_site_type_symbol
_atom_type_description
_atom_site_fract_x
_atom_site_fract_y
_atom_site_fract_z
_atom_type_partial_charge
O1    O     O_R   0.335860 0.638190 0.002110 -0.545314
O2    O     O_R   0.664140 0.361810 0.997890 -0.545314
O3    O     O_R   0.164140 0.138190 0.997890 -0.545314
O4    O     O_R   0.835860 0.861810 0.002110 -0.545314
O5    O     O_R   0.217530 0.305920 0.861960 -0.534448
O6    O     O_R   0.782470 0.694080 0.138040 -0.534448
O7    O     O_R   0.282470 0.805920 0.138040 -0.534448
O8    O     O_R   0.717530 0.194080 0.861960 -0.534448
C1    C     C_R   0.205857 0.476740 0.825835 0.769963
C2    C     C_R   0.794143 0.523260 0.174165 0.769963
C3    C     C_R   0.294143 0.976740 0.174165 0.769963
C4    C     C_R   0.705857 0.023259 0.825835 0.769963
O9    O     O_R   0.338690 0.308320 0.993240 -0.545014
O10   O     O_R   0.661310 0.691680 0.006760 -0.545013
O11   O     O_R   0.161310 0.808320 0.006760 -0.545013
O12   O     O_R   0.838690 0.191680 0.993240 -0.545014
O13   O     O_R   0.286170 0.140430 0.130100 -0.538520
O14   O     O_R   0.713830 0.859570 0.869900 -0.538520
O15   O     O_R   0.213830 0.640430 0.869900 -0.538520
O16   O     O_R   0.786170 0.359570 0.130100 -0.538520
C5    C     C_R   0.364975 0.477229 0.997794 0.701124
C6    C     C_R   0.635025 0.522771 0.002206 0.701123
C7    C     C_R   0.135025 0.977229 0.002206 0.701123
C8    C     C_R   0.864975 0.022771 0.997794 0.701124
O17   O     O_3   0.232630 0.472410 0.044750 -0.379435
O18   O     O_3   0.767370 0.527590 0.955250 -0.379434
O19   O     O_3   0.267370 0.972410 0.955250 -0.379434
O20   O     O_3   0.732630 0.027590 0.044750 -0.379435
V1    V     V_3+5 0.253220 0.196620 0.991700 1.474322
V2    V     V_3+5 0.746780 0.803380 0.008300 1.474322
V3    V     V_3+5 0.246780 0.696620 0.008300 1.474322
V4    V     V_3+5 0.753220 0.303380 0.991700 1.474322
C9    C     C_R   0.030034 0.826359 0.004325 -0.141670
C10   C     C_R   0.969966 0.173641 0.995674 -0.141670
C11   C     C_R   0.469966 0.326359 0.995674 -0.141670
C12   C     C_R   0.530034 0.673641 0.004326 -0.141670
H1    H     H_    0.051955 0.690021 0.007511 0.118318
H2    H     H_    0.948045 0.309979 0.992489 0.118318
H3    H     H_    0.448045 0.190021 0.992489 0.118318
H4    H     H_    0.551955 0.809979 0.007511 0.118318
C13   C     C_R   0.965061 0.837736 0.002714 -0.137644
C14   C     C_R   0.034939 0.162264 0.997286 -0.137644
C15   C     C_R   0.534938 0.337736 0.997285 -0.137645
C16   C     C_R   0.465061 0.662264 0.002715 -0.137645
H5    H     H_    0.939254 0.709400 0.005002 0.119614
H6    H     H_    0.060746 0.290599 0.994998 0.119614
H7    H     H_    0.560746 0.209400 0.994998 0.119614
H8    H     H_    0.439254 0.790599 0.005002 0.119614
C17   C     C_R   0.934014 0.011566 0.998344 -0.027659
C18   C     C_R   0.065986 0.988433 0.001656 -0.027659
C19   C     C_R   0.565986 0.511566 0.001656 -0.027659
C20   C     C_R   0.434014 0.488434 0.998344 -0.027659
C21   C     C_R   0.678287 0.015709 0.724268 -0.146003
C22   C     C_R   0.321713 0.984291 0.275732 -0.146003
C23   C     C_R   0.821713 0.515709 0.275732 -0.146003
C24   C     C_R   0.178287 0.484291 0.724268 -0.146003
C25   C     C_R   0.691044 0.020558 0.567997 -0.133418
C26   C     C_R   0.308956 0.979441 0.432003 -0.133417
C27   C     C_R   0.808956 0.520559 0.432003 -0.133417
C28   C     C_R   0.191044 0.479440 0.567997 -0.133418
C29   C     C_R   0.718009 0.023186 0.665096 0.580175
C30   C     C_R   0.281991 0.976814 0.334903 0.580175
C31   C     C_R   0.781991 0.523187 0.334903 0.580175
C32   C     C_R   0.218008 0.476812 0.665096 0.580176
C33   C     C_R   0.611518 0.006365 0.687313 -0.303472
C34   C     C_R   0.388482 0.993635 0.312687 -0.303472
C35   C     C_R   0.888482 0.506364 0.312687 -0.303472
C36   C     C_R   0.111518 0.493636 0.687313 -0.303472
C37   C     C_R   0.582087 0.005923 0.589493 0.094738
C38   C     C_R   0.417913 0.994077 0.410507 0.094739
C39   C     C_R   0.917913 0.505923 0.410507 0.094739
C40   C     C_R   0.082087 0.494077 0.589493 0.094738
C41   C     C_R   0.623070 0.012498 0.529555 0.007966
C42   C     C_R   0.376929 0.987501 0.470444 0.007966
C43   C     C_R   0.876930 0.512499 0.470444 0.007966
C44   C     C_R   0.123070 0.487501 0.529555 0.007966
C45   C     C_R   0.513435 0.999997 0.549704 0.079809
C46   C     C_R   0.486565 0.000002 0.450296 0.079809
C47   C     C_R   0.986565 0.499997 0.450296 0.079809
C48   C     C_R   0.013435 0.500002 0.549704 0.079809
C49   C     C_R   0.529254 0.005421 0.393883 -0.168146
C50   C     C_R   0.470746 0.994578 0.606117 -0.168146
C51   C     C_R   0.970746 0.505421 0.606117 -0.168146
C52   C     C_R   0.029254 0.494579 0.393883 -0.168146
C53   C     C_R   0.595486 0.011524 0.432511 -0.123562
C54   C     C_R   0.404514 0.988475 0.567489 -0.123562
C55   C     C_R   0.904514 0.511524 0.567489 -0.123562
C56   C     C_R   0.095486 0.488475 0.432511 -0.123562
H9    H     H_    0.625120 0.015893 0.384790 0.150311
H10   H     H_    0.374880 0.984105 0.615209 0.150311
H11   H     H_    0.874880 0.515894 0.615209 0.150311
H12   H     H_    0.125120 0.484106 0.384790 0.150311
H13   H     H_    0.415697 0.998558 0.262346 0.120400
H14   H     H_    0.584303 0.001442 0.737654 0.120400
H15   H     H_    0.084303 0.498559 0.737654 0.120400
H16   H     H_    0.915697 0.501441 0.262346 0.120400
H17   H     H_    0.513431 0.005256 0.318629 0.125550
H18   H     H_    0.486569 0.994742 0.681371 0.125551
H19   H     H_    0.986569 0.505255 0.681371 0.125551
H20   H     H_    0.013431 0.494744 0.318629 0.125551
F1    F     F_    0.216952 0.967096 0.297784 -0.693599
F2    F     F_    0.783048 0.032903 0.702216 -0.693599
F3    F     F_    0.283048 0.467094 0.702216 -0.693599
F4    F     F_    0.716952 0.532906 0.297784 -0.693599
C57   C     C_1   0.734335 0.027067 0.509481 0.416407
N1    N     N_1   0.768993 0.032158 0.462792 -0.340794
C58   C     C_1   0.265665 0.972933 0.490519 0.416407
N2    N     N_1   0.231006 0.967841 0.537208 -0.340794
C59   C     C_1   0.765665 0.527067 0.490519 0.416406
N3    N     N_1   0.731007 0.532159 0.537208 -0.340794
C60   C     C_1   0.234335 0.472932 0.509481 0.416406
N4    N     N_1   0.268993 0.467841 0.462792 -0.340794

loop_
_geom_bond_atom_site_label_1
_geom_bond_atom_site_label_2
_ccdc_geom_bond_type
O17   V3    S    
C32   F3    S    
C25   C57   S    
C26   C30   A    
C55   H11   S    
O19   V1    S    
O13   V1    S    
C37   C45   A    
C60   N4    T    
C10   C14   A    
C40   C44   A    
O15   V3    S    
C39   C47   A    
C45   C46   A    
O1    C5    A    
O9    V1    S    
C47   C52   A    
O4    C8    A    
C38   C46   A    
O1    V3    S    
O2    V4    S    
C26   C58   S    
C14   H6    S    
C25   C41   A    
O3    V1    S    
O3    C7    A    
C38   C42   A    
C21   C29   A    
C1    O15   A    
C56   H12   S    
C2    O16   A    
C23   C31   A    
O2    C6    A    
C58   N2    T    
C24   C32   A    
C37   C41   A    
O14   V2    S    
C11   C15   A    
C44   C56   A    
C4    C21   S    
C36   C40   A    
C30   F1    S    
C16   C20   A    
O11   C7    A    
O12   C8    A    
C51   H19   S    
C50   H18   S    
O10   V2    S    
C48   C51   A    
C13   C17   A    
O5    V1    S    
C36   H15   S    
O7    V3    S    
O8    V4    S    
C12   H4    S    
C54   H10   S    
C53   H9    S    
O18   V4    S    
C7    C18   S    
C22   C30   A    
C9    C18   A    
C50   C54   A    
C28   C44   A    
C9    H1    S    
C52   H20   S    
O7    C3    A    
O5    C1    A    
O8    C4    A    
O9    C5    A    
C1    C24   S    
C42   C54   A    
C25   C29   A    
C2    C23   S    
C3    C22   S    
C41   C53   A    
C12   C19   A    
C14   C18   A    
C34   H13   S    
C43   C55   A    
C33   H14   S    
O6    V2    S    
C35   H16   S    
C12   C16   A    
C27   C43   A    
C21   C33   A    
C26   C42   A    
O16   V4    S    
C8    C17   S    
C3    O13   A    
C10   C17   A    
C10   H2    S    
C52   C56   A    
C31   F4    S    
C51   C55   A    
O6    C2    A    
C23   C35   A    
O11   V3    S    
C22   C34   A    
O12   V4    S    
C57   N1    T    
C27   C31   A    
C28   C32   A    
C9    C13   A    
O10   C6    A    
O20   V2    S    
C29   F2    S    
C40   C48   A    
C28   C60   S    
C24   C36   A    
C59   N3    T    
C39   C43   A    
C46   C49   A    
C15   C19   A    
C34   C38   A    
C49   H17   S    
C45   C50   A    
C33   C37   A    
C11   H3    S    
C27   C59   S    
C35   C39   A    
O4    V2    S    
C47   C48   A    
C4    O14   A    
C11   C20   A    
C13   H5    S    
C15   H7    S    
C5    C20   S    
C49   C53   A    
C16   H8    S    
C6    C19   S    
