data_mof_unit_48232.cif
_audit_creation_date              2012-12-11T15:22:48-0500
_audit_creation_method            fapswitch 2.2
_symmetry_space_group_name_H-M    P1
_symmetry_Int_Tables_number       1
_space_group_crystal_system       triclinic
_cell_length_a                    22.488725
_cell_length_b                    12.994896
_cell_length_c                    26.942607
_cell_angle_alpha                 90.00609
_cell_angle_beta                  90.428585
_cell_angle_gamma                 89.999189
_cell_volume                      7873.45057178

loop_
_atom_site_label
_atom_site_type_symbol
_atom_type_description
_atom_site_fract_x
_atom_site_fract_y
_atom_site_fract_z
_atom_type_partial_charge
C1    C     C_R   0.720905 0.345532 0.178330 0.570747
C2    C     C_R   0.478869 0.255395 0.897439 -0.108573
C3    C     C_R   0.940261 0.606870 0.542395 -0.083453
C4    C     C_R   0.567647 0.097881 0.407031 -0.103567
C5    C     C_R   0.484047 0.076397 0.602588 -0.106023
C6    C     C_R   0.015928 0.576404 0.397393 -0.106116
C7    C     C_R   0.932366 0.597826 0.592965 -0.104169
C8    C     C_R   0.732396 0.977843 0.375800 -0.012609
C9    C     C_R   0.262120 0.966304 0.625556 -0.025059
C10   C     C_R   0.237886 0.466347 0.374435 -0.024495
C11   C     C_R   0.767613 0.477844 0.624197 -0.012551
C12   C     C_R   0.717245 0.879096 0.392163 -0.139971
C13   C     C_R   0.021337 0.755295 0.102431 -0.109833
C14   C     C_R   0.305551 0.901515 0.605196 -0.130636
C15   C     C_R   0.194497 0.401471 0.394780 -0.128660
C16   C     C_R   0.782773 0.379102 0.607822 -0.140179
C17   C     C_R   0.709141 0.861207 0.442705 -0.095575
C18   C     C_R   0.308496 0.888238 0.554097 -0.122548
C19   C     C_R   0.191559 0.388179 0.445876 -0.122450
C20   C     C_R   0.790884 0.361222 0.557279 -0.095606
C21   C     C_R   0.714432 0.942525 0.476629 0.065420
C22   C     C_R   0.268752 0.940851 0.523062 0.069270
C23   C     C_R   0.231260 0.440879 0.476916 0.068459
C24   C     C_R   0.978927 0.755478 0.897381 -0.109770
C25   C     C_R   0.785588 0.442545 0.523366 0.065388
C26   C     C_R   0.723598 0.043088 0.459404 0.216399
C27   C     C_R   0.223998 0.003117 0.543191 0.252336
C28   C     C_R   0.275965 0.503259 0.456803 0.252059
C29   C     C_R   0.776417 0.543104 0.540604 0.216384
C30   C     C_R   0.733956 0.060022 0.409411 -0.094686
C31   C     C_R   0.220432 0.014551 0.594241 -0.095116
C32   C     C_R   0.279531 0.514694 0.405757 -0.095250
C33   C     C_R   0.766053 0.560029 0.590597 -0.094492
C34   C     C_R   0.786556 0.927375 0.543173 -0.065298
C35   C     C_R   0.509370 0.255211 0.051502 0.007945
C36   C     C_R   0.232390 0.828861 0.458802 -0.092140
C37   C     C_R   0.267537 0.328865 0.541257 -0.092104
C38   C     C_R   0.713457 0.427417 0.456826 -0.065325
C39   C     C_R   0.720516 0.346219 0.322657 0.538312
C40   C     C_R   0.278531 0.348022 0.678757 0.534992
C41   C     C_R   0.221464 0.848002 0.321261 0.535675
C42   C     C_R   0.779484 0.846210 0.677342 0.538087
C43   C     C_R   0.804210 0.909208 0.591804 -0.022474
C44   C     C_R   0.216480 0.809333 0.410130 -0.023483
C45   C     C_R   0.283361 0.309476 0.589986 -0.023840
C46   C     C_R   0.490669 0.255207 0.948446 0.009790
C47   C     C_R   0.695798 0.409249 0.408195 -0.022517
C48   C     C_R   0.699147 0.885991 0.614071 -0.000528
C49   C     C_R   0.274114 0.959932 0.383388 -0.002870
C50   C     C_R   0.225999 0.460639 0.616445 -0.006957
C51   C     C_R   0.800858 0.386008 0.385921 -0.000432
C52   C     C_R   0.683263 0.897834 0.563591 0.277527
C53   C     C_R   0.288116 0.980595 0.433676 0.297054
C54   C     C_R   0.212106 0.480759 0.566233 0.293968
C55   C     C_R   0.816747 0.397843 0.436400 0.277528
C56   C     C_R   0.727270 0.920103 0.528762 0.086785
C57   C     C_R   0.009768 0.755133 0.051382 0.008440
C58   C     C_R   0.266191 0.914750 0.470735 0.055731
C59   C     C_R   0.233839 0.414784 0.529220 0.055552
C60   C     C_R   0.772745 0.420127 0.471233 0.086769
C61   C     C_R   0.760463 0.885926 0.628126 0.010475
C62   C     C_R   0.237023 0.875064 0.372175 0.036740
C63   C     C_R   0.262863 0.375442 0.627944 0.039790
C64   C     C_R   0.739540 0.385953 0.371870 0.010526
C65   C     C_R   0.555090 0.158518 0.321959 0.537627
C66   C     C_R   0.446688 0.158671 0.678902 0.532796
C67   C     C_R   0.053302 0.658677 0.321093 0.533207
C68   C     C_R   0.990973 0.755255 0.948346 0.008202
C69   C     C_R   0.944909 0.658510 0.678039 0.537120
C70   C     C_R   0.730994 0.003740 0.323536 0.552000
C71   C     C_R   0.268571 0.003065 0.676546 0.544278
C72   C     C_R   0.231429 0.503081 0.323452 0.544738
C73   C     C_R   0.769007 0.503734 0.676463 0.551054
C74   C     C_R   0.514571 0.069392 0.103379 -0.134082
C75   C     C_R   0.485608 0.069412 0.896535 -0.135303
C76   C     C_R   0.015351 0.569237 0.103131 -0.134379
C77   C     C_R   0.986584 0.569605 0.896246 -0.132801
C78   C     C_R   0.507633 0.066192 0.051770 0.006584
C79   C     C_R   0.503960 0.160426 0.025808 0.041603
C80   C     C_R   0.492586 0.066200 0.948139 0.005801
C81   C     C_R   0.008935 0.566103 0.051479 0.006273
C82   C     C_R   0.994005 0.566264 0.947823 0.007442
C83   C     C_R   0.494204 0.971136 0.974109 0.006246
C84   C     C_R   0.506079 0.971134 0.025778 0.006041
C85   C     C_R   0.996510 0.471092 0.973681 0.007151
C86   C     C_R   0.008201 0.471133 0.025386 0.005747
C87   C     C_3   0.855118 0.873305 0.035395 -0.351814
C88   C     C_3   0.144832 0.872784 0.964464 -0.351828
C89   C     C_3   0.354702 0.370961 0.035616 -0.351702
C90   C     C_R   0.496192 0.160429 0.974120 0.039628
C91   C     C_3   0.640856 0.383263 0.962675 -0.354053
C92   C     C_3   0.870286 0.910887 0.602346 -0.346117
C93   C     C_3   0.174061 0.722314 0.399910 -0.352728
C94   C     C_3   0.325722 0.222346 0.600224 -0.352837
C95   C     C_3   0.629721 0.410943 0.397656 -0.346107
C96   C     C_3   0.479281 0.871311 0.947285 -0.397028
C97   C     C_3   0.521040 0.871306 0.052574 -0.397069
C98   C     C_3   0.982924 0.370944 0.946637 -0.397165
C99   C     C_3   0.023817 0.371474 0.052080 -0.397598
C100  C     C_3   0.650214 0.875968 0.652009 -0.327053
C101  C     C_R   0.004882 0.660369 0.025591 0.041312
C102  C     C_3   0.296725 0.026965 0.341740 -0.347374
C103  C     C_3   0.202394 0.531164 0.656307 -0.341306
C104  C     C_3   0.849787 0.375980 0.347979 -0.326994
C105  C     C_R   0.279079 0.345682 0.821614 0.566393
C106  C     C_R   0.997102 0.660450 0.973904 0.041301
C107  C     C_R   0.505164 0.348298 0.025495 -0.153171
C108  C     C_R   0.494672 0.348277 0.974472 -0.148769
C109  C     C_R   0.005216 0.848257 0.025455 -0.151347
C110  C     C_R   0.994640 0.848299 0.974450 -0.151345
C111  C     C_R   0.737687 0.960446 0.129102 0.041009
C112  C     C_R   0.262291 0.960365 0.870871 0.040755
C113  C     C_R   0.237618 0.460829 0.129050 0.041090
C114  C     C_R   0.761477 0.457814 0.870375 0.038841
C115  C     C_R   0.687153 0.964164 0.098273 -0.164348
C116  C     C_R   0.220915 0.845638 0.178375 0.567221
C117  C     C_R   0.312793 0.964159 0.901740 -0.164751
C118  C     C_R   0.187296 0.466277 0.098050 -0.165721
C119  C     C_R   0.812551 0.452203 0.900526 -0.160112
C120  C     C_R   0.691574 0.945509 0.048000 -0.144043
C121  C     C_R   0.308333 0.945387 0.951999 -0.144891
C122  C     C_R   0.191765 0.447557 0.047788 -0.145524
C123  C     C_R   0.808074 0.431830 0.950677 -0.141532
C124  C     C_R   0.746451 0.921554 0.027405 0.006905
C125  C     C_R   0.253449 0.921254 0.972536 0.006556
C126  C     C_R   0.246482 0.421892 0.027379 0.006494
C127  C     C_R   0.779072 0.845691 0.821610 0.570406
C128  C     C_R   0.752548 0.415338 0.971898 0.009882
C129  C     C_R   0.797450 0.909349 0.058032 0.025163
C130  C     C_R   0.202489 0.908986 0.941868 0.025230
C131  C     C_R   0.297252 0.408344 0.058142 0.025530
C132  C     C_R   0.700714 0.411833 0.941661 0.020066
C133  C     C_R   0.553529 0.157199 0.177654 0.547968
C134  C     C_R   0.446495 0.157203 0.822326 0.547426
C135  C     C_R   0.053560 0.657182 0.177632 0.547913
C136  C     C_R   0.946534 0.657219 0.822304 0.548644
C137  C     C_R   0.793013 0.930634 0.109427 0.245416
C138  C     C_R   0.474449 0.162211 0.871681 -0.003299
C139  C     C_R   0.206968 0.930356 0.890485 0.245310
C140  C     C_R   0.292768 0.429623 0.109540 0.245534
C141  C     C_R   0.705355 0.434818 0.890599 0.243685
C142  C     C_R   0.720187 0.827873 0.950507 -0.138102
C143  C     C_R   0.279405 0.827171 0.049368 -0.138059
C144  C     C_R   0.220359 0.327860 0.950570 -0.138208
C145  C     C_R   0.779343 0.324254 0.049459 -0.136905
C146  C     C_R   0.725912 0.813004 0.899741 -0.169736
C147  C     C_R   0.273715 0.812350 0.100138 -0.169059
C148  C     C_R   0.226061 0.312909 0.899806 -0.169229
C149  C     C_R   0.525640 0.162198 0.128263 -0.001383
C150  C     C_R   0.773888 0.311021 0.100333 -0.168875
C151  C     C_R   0.785695 0.968661 0.893923 0.235029
C152  C     C_R   0.214432 0.968568 0.106058 0.235503
C153  C     C_R   0.285711 0.468709 0.893892 0.235397
C154  C     C_R   0.714041 0.466724 0.105286 0.234636
C155  C     C_R   0.779685 0.982809 0.944971 -0.083409
C156  C     C_R   0.220400 0.982669 0.055001 -0.083327
C157  C     C_R   0.279761 0.482901 0.944943 -0.083466
C158  C     C_R   0.719914 0.479431 0.054123 -0.086041
C159  C     C_R   0.749099 0.910314 0.973448 -0.012500
C160  C     C_R   0.974765 0.662340 0.871552 -0.000979
C161  C     C_R   0.250746 0.909922 0.026481 -0.012692
C162  C     C_R   0.249219 0.410417 0.973452 -0.012743
C163  C     C_R   0.750303 0.405938 0.025997 -0.013940
C164  C     C_R   0.760867 0.880324 0.871207 0.032619
C165  C     C_R   0.239057 0.880038 0.128732 0.033529
C166  C     C_R   0.260913 0.380297 0.871222 0.033356
C167  C     C_R   0.738975 0.379086 0.128515 0.032856
C168  C     C_R   0.538314 0.164642 0.374144 0.019399
C169  C     C_R   0.476647 0.166354 0.630666 0.004394
C170  C     C_R   0.023312 0.666360 0.369320 0.004544
C171  C     C_R   0.025929 0.662084 0.128139 -0.001671
C172  C     C_R   0.961687 0.664615 0.625853 0.018608
C173  C     C_R   0.501229 0.242103 0.392801 -0.126756
C174  C     C_R   0.488168 0.262439 0.608638 -0.124366
C175  C     C_R   0.011748 0.762440 0.391349 -0.124244
C176  C     C_R   0.998745 0.742104 0.607194 -0.126070
C177  C     C_R   0.491819 0.249242 0.444079 -0.087407
C178  C     C_R   0.503273 0.268220 0.558425 -0.099556
C179  C     C_R   0.996639 0.768218 0.441563 -0.099512
C180  C     C_R   0.008134 0.749254 0.555913 -0.086934
C181  C     C_R   0.731223 0.001784 0.179427 0.589499
C182  C     C_R   0.521168 0.255393 0.102516 -0.109919
C183  C     C_R   0.268773 0.001771 0.820565 0.589878
C184  C     C_R   0.231224 0.501799 0.179433 0.590407
C185  C     C_R   0.768691 0.501565 0.820528 0.585703
C186  C     C_R   0.520703 0.180538 0.476674 0.037894
C187  C     C_R   0.507397 0.177981 0.530055 0.043738
C188  C     C_R   0.992546 0.677982 0.469932 0.043659
C189  C     C_R   0.979256 0.680532 0.523317 0.037691
C190  C     C_R   0.559730 0.106913 0.457600 -0.083227
C191  C     C_R   0.498285 0.082326 0.552801 -0.069685
C192  C     C_R   0.001684 0.582332 0.447179 -0.070019
Cl1   Cl    Cl    0.825023 0.062792 0.860418 -0.582689
Cl2   Cl    Cl    0.331349 0.088448 0.451435 -0.649984
Cl3   Cl    Cl    0.168793 0.588968 0.549196 -0.648372
Cl4   Cl    Cl    0.891266 0.383391 0.456324 -0.673406
Cl5   Cl    Cl    0.721934 0.149040 0.499850 -0.675248
Cl6   Cl    Cl    0.171595 0.067540 0.505403 -0.605578
Cl7   Cl    Cl    0.328318 0.567801 0.494598 -0.606357
Cl8   Cl    Cl    0.778077 0.649063 0.500172 -0.675117
Cl9   Cl    Cl    0.175449 0.063014 0.139647 -0.582572
Cl10  Cl    Cl    0.324902 0.562904 0.860316 -0.581827
Cl11  Cl    Cl    0.674614 0.561530 0.138267 -0.580618
Cl12  Cl    Cl    0.855716 0.920721 0.149263 -0.599622
Cl13  Cl    Cl    0.144338 0.920241 0.850574 -0.601423
Cl14  Cl    Cl    0.355150 0.417916 0.149612 -0.601212
Cl15  Cl    Cl    0.641128 0.433119 0.852192 -0.598716
Cl16  Cl    Cl    0.608744 0.883420 0.543661 -0.673203
Cr1   Cr    Cr6+3 0.756570 0.170940 0.251190 1.052000
Cr2   Cr    Cr6+3 0.374010 0.036240 0.749520 1.037214
Cr3   Cr    Cr6+3 0.125990 0.536240 0.250480 1.037285
Cr4   Cr    Cr6+3 0.874010 0.536240 0.749520 1.045399
Cr5   Cr    Cr6+3 0.243430 0.170940 0.748810 1.059525
Cr6   Cr    Cr6+3 0.256570 0.670940 0.251190 1.058639
Cr7   Cr    Cr6+3 0.743430 0.670940 0.748810 1.053833
Cr8   Cr    Cr6+3 0.623740 0.299110 0.249580 1.067598
Cr9   Cr    Cr6+3 0.376260 0.299110 0.750420 1.075585
Cr10  Cr    Cr6+3 0.123740 0.799110 0.249580 1.074668
Cr11  Cr    Cr6+3 0.876260 0.799110 0.750420 1.067951
Cr12  Cr    Cr6+3 0.625990 0.036240 0.250480 1.046551
H1    H     H_    0.485269 0.998766 0.875387 0.145828
H2    H     H_    0.584037 0.055588 0.481936 0.193549
H3    H     H_    0.040234 0.310911 0.026694 0.140869
H4    H     H_    0.613895 0.931442 0.643760 0.174170
H5    H     H_    0.631995 0.796578 0.651305 0.172601
H6    H     H_    0.665719 0.895191 0.690055 0.132605
H7    H     H_    0.325569 0.090765 0.354607 0.201709
H8    H     H_    0.323060 0.979470 0.315621 0.131322
H9    H     H_    0.258451 0.061180 0.321357 0.152007
H10   H     H_    0.218878 0.610608 0.649991 0.185994
H11   H     H_    0.153031 0.531424 0.654954 0.172515
H12   H     H_    0.216193 0.507901 0.694260 0.127526
H13   H     H_    0.915959 0.555526 0.518060 0.193652
H14   H     H_    0.886106 0.431453 0.356230 0.174313
H15   H     H_    0.868007 0.296590 0.348675 0.172388
H16   H     H_    0.834279 0.395200 0.309935 0.132844
H17   H     H_    0.000108 0.511723 0.468463 0.173587
H18   H     H_    0.475127 0.001120 0.618104 0.153232
H19   H     H_    0.598510 0.040292 0.393699 0.147622
H20   H     H_    0.901523 0.540213 0.606298 0.147768
H21   H     H_    0.024874 0.501130 0.381877 0.153156
H22   H     H_    0.461359 0.306639 0.458126 0.143896
H23   H     H_    0.510758 0.342755 0.541620 0.128005
H24   H     H_    0.989132 0.842750 0.458372 0.127962
H25   H     H_    0.514927 0.998738 0.124513 0.145860
H26   H     H_    0.038571 0.806677 0.541865 0.144002
H27   H     H_    0.712130 0.816403 0.365979 0.144344
H28   H     H_    0.338406 0.864083 0.628602 0.152440
H29   H     H_    0.161672 0.363974 0.371366 0.152644
H30   H     H_    0.787890 0.316406 0.633998 0.144049
H31   H     H_    0.819671 0.945277 0.515364 0.144046
H32   H     H_    0.215151 0.780608 0.488260 0.188238
H33   H     H_    0.284747 0.280449 0.511845 0.188521
H34   H     H_    0.680346 0.445330 0.484639 0.144047
H35   H     H_    0.700340 0.783923 0.455452 0.210501
H36   H     H_    0.986410 0.499099 0.874995 0.145019
H37   H     H_    0.341595 0.837043 0.538664 0.171457
H38   H     H_    0.158497 0.336909 0.461300 0.171286
H39   H     H_    0.799691 0.283942 0.544521 0.210502
H40   H     H_    0.740695 0.138143 0.396445 0.156552
H41   H     H_    0.187077 0.066020 0.609046 0.174156
H42   H     H_    0.312850 0.566237 0.390961 0.174214
H43   H     H_    0.759308 0.638148 0.603573 0.156586
H44   H     H_    0.470550 0.327499 0.878362 0.161633
H45   H     H_    0.529401 0.327508 0.121616 0.160211
H46   H     H_    0.970153 0.827546 0.878411 0.160049
H47   H     H_    0.015660 0.498540 0.124229 0.145825
H48   H     H_    0.029199 0.827436 0.121615 0.160216
H49   H     H_    0.490307 0.421169 0.955251 0.136852
H50   H     H_    0.509309 0.421210 0.044736 0.137716
H51   H     H_    0.989965 0.921214 0.955299 0.137431
H52   H     H_    0.009029 0.921145 0.044764 0.137451
H53   H     H_    0.644402 0.987985 0.112536 0.141234
H54   H     H_    0.355545 0.988109 0.887520 0.141480
H55   H     H_    0.144738 0.491402 0.112204 0.140779
H56   H     H_    0.856073 0.470460 0.886000 0.142703
H57   H     H_    0.695320 0.772741 0.972259 0.133275
H58   H     H_    0.479667 0.296080 0.367897 0.131465
H59   H     H_    0.304064 0.771814 0.027577 0.132949
H60   H     H_    0.195528 0.272748 0.972363 0.132871
H61   H     H_    0.804047 0.268311 0.028050 0.132353
H62   H     H_    0.706165 0.744639 0.883553 0.157221
H63   H     H_    0.293262 0.743787 0.116292 0.155798
H64   H     H_    0.206360 0.244470 0.883653 0.156011
H65   H     H_    0.793748 0.243144 0.116895 0.156650
H66   H     H_    0.652349 0.953440 0.024673 0.136665
H67   H     H_    0.347531 0.953358 0.975361 0.136614
H68   H     H_    0.152739 0.456689 0.024327 0.137179
H69   H     H_    0.482463 0.333016 0.629439 0.146151
H70   H     H_    0.847950 0.433515 0.973531 0.134128
H71   H     H_    0.799865 0.049180 0.962706 0.139944
H72   H     H_    0.200389 0.049221 0.037297 0.139838
H73   H     H_    0.299930 0.549313 0.962651 0.139872
H74   H     H_    0.699486 0.545097 0.035979 0.142452
H75   H     H_    0.847039 0.803758 0.012343 0.139815
H76   H     H_    0.873874 0.934959 0.011723 0.129139
H77   H     H_    0.888972 0.851785 0.063474 0.199069
H78   H     H_    0.152904 0.802888 0.987266 0.139165
H79   H     H_    0.126186 0.934147 0.988379 0.129637
H80   H     H_    0.017435 0.833015 0.370551 0.146026
H81   H     H_    0.110888 0.851806 0.936367 0.199204
H82   H     H_    0.346221 0.300983 0.012967 0.139200
H83   H     H_    0.373647 0.431775 0.011546 0.129407
H84   H     H_    0.388579 0.349756 0.063731 0.199239
H85   H     H_    0.621708 0.318148 0.941187 0.185962
H86   H     H_    0.643080 0.357825 0.001890 0.132289
H87   H     H_    0.610510 0.450454 0.960155 0.156690
H88   H     H_    0.896876 0.926814 0.568609 0.123556
H89   H     H_    0.881086 0.972140 0.629669 0.169600
H90   H     H_    0.884541 0.834681 0.616339 0.166400
H91   H     H_    0.020297 0.796103 0.632097 0.131906
H92   H     H_    0.164966 0.675272 0.433448 0.166037
H93   H     H_    0.131769 0.755866 0.386821 0.154230
H94   H     H_    0.191881 0.670952 0.371016 0.148065
H95   H     H_    0.334789 0.175231 0.566700 0.166409
H96   H     H_    0.368048 0.255790 0.613306 0.154247
H97   H     H_    0.307862 0.171041 0.629114 0.148275
H98   H     H_    0.603135 0.426894 0.431395 0.123619
H99   H     H_    0.618924 0.472188 0.370333 0.169624
H100  H     H_    0.615457 0.334736 0.383664 0.166327
H101  H     H_    0.440338 0.882078 0.922328 0.134314
H102  H     H_    0.499883 0.011715 0.531513 0.173834
H103  H     H_    0.518099 0.845169 0.925412 0.144604
H104  H     H_    0.464917 0.809152 0.972637 0.141049
H105  H     H_    0.559871 0.882133 0.077648 0.134122
H106  H     H_    0.482166 0.844931 0.074316 0.144801
H107  H     H_    0.535607 0.809306 0.027200 0.141028
H108  H     H_    0.943555 0.380224 0.922028 0.130951
H109  H     H_    0.021892 0.347102 0.924350 0.144604
H110  H     H_    0.969923 0.307592 0.971808 0.140648
H111  H     H_    0.061649 0.383227 0.078081 0.134441
H112  H     H_    0.984647 0.342803 0.072747 0.144882
O1    O     O_R   0.769900 0.064540 0.196060 -0.462176
O2    O     O_R   0.433710 0.069580 0.694600 -0.517433
O3    O     O_R   0.066290 0.569580 0.305400 -0.517420
O4    O     O_R   0.933710 0.569580 0.694600 -0.505893
O5    O     O_R   0.680760 0.993330 0.302620 -0.499754
O6    O     O_R   0.319240 0.993330 0.697380 -0.500691
O7    O     O_R   0.180760 0.493330 0.302620 -0.500793
O8    O     O_R   0.819240 0.493330 0.697380 -0.499887
O9    O     O_3   0.668770 0.168760 0.250420 -0.271022
O10   O     O_3   0.331230 0.168760 0.749580 -0.272220
O11   O     O_3   0.168770 0.668760 0.250420 -0.272109
O12   O     O_R   0.230100 0.064540 0.803940 -0.461047
O13   O     O_3   0.831230 0.668760 0.749580 -0.270507
O14   O     O_R   0.750800 0.274080 0.199250 -0.521101
O15   O     O_R   0.249200 0.274080 0.800750 -0.519923
O16   O     O_R   0.250800 0.774080 0.199250 -0.520013
O17   O     O_R   0.749200 0.774080 0.800750 -0.520127
O18   O     O_R   0.669990 0.371670 0.194150 -0.447576
O19   O     O_R   0.330010 0.371670 0.805850 -0.449929
O20   O     O_R   0.169990 0.871670 0.194150 -0.450187
O21   O     O_R   0.830010 0.871670 0.805850 -0.447632
O22   O     O_R   0.574600 0.238480 0.197800 -0.491065
O23   O     O_R   0.269900 0.564540 0.196060 -0.461826
O24   O     O_R   0.425400 0.238480 0.802200 -0.490619
O25   O     O_R   0.074600 0.738480 0.197800 -0.490624
O26   O     O_R   0.925400 0.738480 0.802200 -0.491103
O27   O     O_R   0.566130 0.068680 0.194240 -0.524784
O28   O     O_R   0.433870 0.068680 0.805760 -0.525470
O29   O     O_R   0.066130 0.568680 0.194240 -0.525507
O30   O     O_R   0.933870 0.568680 0.805760 -0.524772
O31   O     O_R   0.680610 0.992490 0.199570 -0.506196
O32   O     O_R   0.319390 0.992490 0.800430 -0.505209
O33   O     O_R   0.180610 0.492490 0.199570 -0.505002
O34   O     O_R   0.730100 0.564540 0.803940 -0.459130
O35   O     O_R   0.819390 0.492490 0.800430 -0.507425
O36   O     O_R   0.770060 0.065440 0.307230 -0.496327
O37   O     O_R   0.229940 0.065440 0.692770 -0.507322
O38   O     O_R   0.270060 0.565440 0.307230 -0.507390
O39   O     O_R   0.729940 0.565440 0.692770 -0.496464
O40   O     O_R   0.750960 0.274920 0.302300 -0.511568
O41   O     O_R   0.249040 0.274920 0.697700 -0.503805
O42   O     O_R   0.250960 0.774920 0.302300 -0.504014
O43   O     O_R   0.749040 0.774920 0.697700 -0.511606
O44   O     O_R   0.670160 0.372580 0.305320 -0.511442
O45   O     O_R   0.574760 0.239320 0.300850 -0.507772
O46   O     O_R   0.329840 0.372580 0.694680 -0.496910
O47   O     O_R   0.170160 0.872580 0.305320 -0.498018
O48   O     O_R   0.829840 0.872580 0.694680 -0.511424
O49   O     O_R   0.425240 0.239320 0.699150 -0.503386
O50   O     O_R   0.074760 0.739320 0.300850 -0.503242
O51   O     O_R   0.925240 0.739320 0.699150 -0.507656
O52   O     O_R   0.566290 0.069580 0.305400 -0.505304

loop_
_geom_bond_atom_site_label_1
_geom_bond_atom_site_label_2
_ccdc_geom_bond_type
Cr11  O13   S    
C21   C26   A    
C34   C56   A    
C72   O38   A    
C153  C166  A    
C142  C146  A    
C95   H99   S    
C132  C141  A    
C154  Cl11  S    
C111  C137  A    
C108  H49   S    
C154  C158  A    
C3    C189  A    
C113  C184  S    
C1    C167  S    
C29   C33   A    
C94   H95   S    
C120  H66   S    
C26   Cl5   S    
C79   C90   A    
C131  C140  A    
C89   H84   S    
C136  O26   A    
C104  H15   S    
C57   C109  A    
C152  C156  A    
C116  O20   A    
C169  C174  A    
C133  O27   A    
C6    H21   S    
C150  H65   S    
C151  C155  A    
C81   C86   A    
C92   H89   S    
C103  H10   S    
C50   C103  S    
Cr7   O34   S    
C7    C172  A    
C53   Cl2   S    
Cr12  O5    S    
C27   Cl6   S    
Cr11  O51   S    
C80   C83   A    
C142  H57   S    
C152  C165  A    
C25   C29   A    
C48   C100  S    
C5    H18   S    
C27   C31   A    
C72   O7    A    
C28   C32   A    
C69   O51   A    
C47   C64   A    
C74   H25   S    
C179  C188  A    
C15   H29   S    
C51   C104  S    
C96   H103  S    
C17   C21   A    
C177  C186  A    
C4    C168  A    
C2    H44   S    
C105  O15   A    
C69   C172  S    
C186  C190  A    
C19   C23   A    
C134  O28   A    
C115  H53   S    
C98   H108  S    
C16   C20   A    
C42   O48   A    
C88   H79   S    
C68   C110  A    
C86   C99   S    
C38   H34   S    
C65   O45   A    
C22   C27   A    
C149  C182  A    
Cr8   O18   S    
C152  Cl9   S    
C36   C44   A    
C127  O17   A    
C37   C45   A    
C82   C85   A    
C97   H105  S    
C43   C61   A    
C173  H58   S    
C70   O5    A    
Cr3   O3    S    
C49   C62   A    
C51   C64   A    
Cr3   O29   S    
C1    O18   A    
C75   C138  A    
C22   C58   S    
C53   C58   A    
Cr7   O43   S    
C137  Cl12  S    
C119  C123  A    
C12   H27   S    
C89   C131  S    
Cr1   O36   S    
C31   H41   S    
C44   C62   A    
Cr10  O50   S    
C3    H13   S    
C52   C56   A    
C77   C82   A    
C49   C53   A    
C36   H32   S    
C4    H19   S    
C51   C55   A    
C66   O2    A    
Cr3   O7    S    
C35   C107  A    
C65   O52   A    
C48   C52   A    
C129  C137  A    
Cr5   O12   S    
C186  C187  S    
C157  C162  A    
C143  C161  A    
Cr9   O10   S    
C91   H87   S    
C127  C164  S    
C96   H104  S    
C183  O32   A    
C145  H61   S    
Cr5   O37   S    
C81   C101  A    
C85   C86   A    
C23   C59   S    
C65   C168  S    
C185  O35   A    
C114  C185  S    
C30   H40   S    
Cr7   O17   S    
Cr1   O40   S    
C180  C189  A    
C190  H2    S    
C13   C57   A    
Cr2   O2    S    
C105  C166  S    
C118  C122  A    
C123  H70   S    
Cr2   O28   S    
C18   H37   S    
C147  C165  A    
C119  H56   S    
Cr1   O9    S    
C93   H93   S    
C107  C108  A    
C173  C177  A    
Cr10  O47   S    
C97   H107  S    
C145  C150  A    
C73   O39   A    
C104  H14   S    
C55   Cl4   S    
C107  H50   S    
C50   C63   A    
C54   C59   A    
C103  H11   S    
C93   H92   S    
C99   H3    S    
C94   H97   S    
C28   Cl7   S    
Cr8   O9    S    
C155  C159  A    
C114  C141  A    
C4    C190  A    
C11   C33   A    
C5    C191  A    
C39   O40   A    
C69   O4    A    
C145  C163  A    
C146  C164  A    
C98   H110  S    
Cr2   O6    S    
C121  C125  A    
Cr2   O32   S    
Cr8   O44   S    
C83   C84   A    
C8    C12   A    
C102  H8    S    
C191  H102  S    
Cr12  O9    S    
C23   C28   A    
C100  H6    S    
C37   C59   A    
C158  C163  A    
C38   C60   A    
C91   H85   S    
C25   C60   S    
C156  C161  A    
C26   C30   A    
C42   O43   A    
C88   H78   S    
Cr9   O24   S    
C13   H48   S    
C6    C170  A    
C101  C106  A    
Cr6   O11   S    
C24   H46   S    
C105  O19   A    
C34   C43   A    
C134  O24   A    
Cr9   O19   S    
C181  O1    A    
C99   H112  S    
C57   C101  A    
C178  H23   S    
C73   O8    A    
C8    C70   S    
C43   C92   S    
C188  C192  A    
C87   C129  S    
Cr6   O42   S    
C83   C96   S    
C35   C79   A    
Cr10  O11   S    
C94   H96   S    
C82   C106  A    
C89   H83   S    
C20   H39   S    
C136  C160  S    
C184  O33   A    
C104  H16   S    
C67   O3    A    
C7    H20   S    
C151  C164  A    
Cr5   O10   S    
C172  C176  A    
Cr8   O45   S    
C10   C72   S    
Cr10  O20   S    
C148  C166  A    
C66   C169  S    
C142  C159  A    
C15   C19   A    
C39   C64   S    
C77   H36   S    
C50   C54   A    
C40   C63   S    
C70   O36   A    
C84   C97   S    
C41   C62   S    
C3    C7    A    
C112  C117  A    
C182  H45   S    
C20   C25   A    
C111  C181  S    
C156  H72   S    
C135  O25   A    
C157  H73   S    
C139  Cl13  S    
C184  O23   A    
C174  H69   S    
C12   C17   A    
C176  H91   S    
Cr3   O11   S    
C74   C149  A    
C34   H31   S    
C135  C171  S    
C174  C178  A    
C146  H62   S    
C66   O49   A    
C144  C148  A    
C155  H71   S    
C41   O47   A    
Cr5   O15   S    
C18   C22   A    
C55   C60   A    
C95   H100  S    
C130  C139  A    
C112  C183  S    
C170  C175  A    
C67   C170  S    
Cr9   O46   S    
Cr6   O16   S    
C91   C132  S    
C92   H88   S    
C140  Cl14  S    
C87   H77   S    
C2    C138  A    
Cr4   O30   S    
C9    C14   A    
C141  Cl15  S    
C147  H63   S    
C11   C16   A    
Cr4   O4    S    
C29   Cl8   S    
C24   C160  A    
C175  H80   S    
C178  C187  A    
C37   H33   S    
C11   C73   S    
C116  C165  S    
Cr4   O35   S    
C39   O44   A    
C49   C102  S    
C71   O37   A    
C153  Cl10  S    
C181  O31   A    
C54   Cl3   S    
Cr12  O31   S    
Cr2   O10   S    
C125  C161  S    
C88   H81   S    
C9    C71   S    
C117  H54   S    
C21   C56   S    
C46   C90   A    
C41   O42   A    
C33   H43   S    
C185  O34   A    
C71   O6    A    
C8    C30   A    
C151  Cl1   S    
C40   O41   A    
C109  C110  A    
Cr11  O21   S    
C192  H17   S    
C150  C167  A    
C124  C129  A    
C153  C157  A    
C24   C68   A    
C77   C160  A    
C74   C78   A    
C6    C192  A    
C5    C169  A    
C95   H98   S    
C97   H106  S    
C136  O30   A    
C116  O16   A    
C14   C18   A    
C88   C130  S    
Cr6   O38   S    
C19   H38   S    
C135  O29   A    
C123  C128  A    
C92   H90   S    
C2    C46   A    
C35   C182  A    
C143  C147  A    
C109  H52   S    
C36   C58   A    
C10   C15   A    
C110  H51   S    
C100  H4    S    
C124  C159  S    
C133  O22   A    
C121  H67   S    
C122  H68   S    
C102  H7    S    
C117  C121  A    
C44   C93   S    
C125  C130  A    
C102  H9    S    
C85   C98   S    
C40   O46   A    
C75   C80   A    
C187  C191  A    
C179  H24   S    
C177  H22   S    
Cr9   O49   S    
C112  C139  A    
C68   C106  A    
C45   C94   S    
C128  C132  A    
C87   H76   S    
C118  H55   S    
C14   H28   S    
C168  C173  A    
Cr8   O22   S    
C133  C149  S    
C158  H74   S    
C183  O12   A    
C16   H30   S    
C78   C79   A    
C175  C179  A    
Cr12  O27   S    
C99   H111  S    
C45   C63   A    
C128  C163  S    
C87   H75   S    
C46   C108  A    
C188  C189  S    
C122  C126  A    
C76   C171  A    
Cr3   O33   S    
C1    O14   A    
C10   C32   A    
C176  C180  A    
Cr7   O39   S    
C13   C171  A    
C93   H94   S    
C143  H59   S    
C113  C140  A    
C144  H60   S    
C32   H42   S    
C42   C61   S    
C38   C47   A    
C89   H82   S    
Cr12  O52   S    
C76   H47   S    
Cr1   O1    S    
C103  H12   S    
C127  O21   A    
C17   H35   S    
C148  H64   S    
C144  C162  A    
C52   Cl16  S    
C114  C119  A    
C76   C81   A    
C134  C138  S    
Cr4   O8    S    
Cr10  O25   S    
C98   H109  S    
Cr5   O41   S    
Cr6   O23   S    
C48   C61   A    
C126  C131  A    
Cr1   O14   S    
C96   H101  S    
Cr11  O48   S    
Cr7   O13   S    
C80   C90   A    
C100  H5    S    
C154  C167  A    
Cr4   O13   S    
C9    C31   A    
Cr11  O26   S    
C113  C118  A    
C91   H86   S    
C78   C84   A    
C75   H1    S    
C115  C120  A    
C67   O50   A    
C47   C95   S    
C111  C115  A    
C126  C162  S    
C120  C124  A    
C180  H26   S    
