data_mof_unit_23288.cif
_audit_creation_date              2012-12-10T18:12:42-0500
_audit_creation_method            fapswitch 2.2
_symmetry_space_group_name_H-M    P1
_symmetry_Int_Tables_number       1
_space_group_crystal_system       triclinic
_cell_length_a                    12.683894
_cell_length_b                    13.080117
_cell_length_c                    15.672722
_cell_angle_alpha                 92.207911
_cell_angle_beta                  101.819022
_cell_angle_gamma                 82.022479
_cell_volume                      2520.31885589

loop_
_atom_site_label
_atom_site_type_symbol
_atom_type_description
_atom_site_fract_x
_atom_site_fract_y
_atom_site_fract_z
_atom_type_partial_charge
C1    C     C_R   0.438669 0.691432 0.490847 0.875846
C2    C     C_R   0.596284 0.201195 0.531530 -0.099838
C3    C     C_R   0.304107 0.837657 0.420472 0.390210
C4    C     C_R   0.501144 0.499453 0.661709 0.872100
C5    C     C_R   0.278338 0.942542 0.403365 -0.175776
C6    C     C_R   0.349366 0.010737 0.441244 -0.270642
C7    C     C_R   0.446375 0.975500 0.500834 0.125399
C8    C     C_R   0.462417 0.873246 0.530017 0.050981
C9    C     C_R   0.527965 0.038584 0.532413 0.051050
C10   C     C_R   0.614356 0.006210 0.603358 0.072689
C11   C     C_R   0.618125 0.910044 0.640665 -0.194032
C12   C     C_3   0.509209 0.492767 0.918544 0.194503
C13   C     C_R   0.543149 0.844541 0.604519 -0.211806
C14   C     C_R   0.526481 0.132590 0.493553 -0.246454
C15   C     C_R   0.682161 0.170574 0.600812 -0.229489
C16   C     C_R   0.560757 0.309042 0.511205 0.921896
C17   C     C_R   0.398376 0.801793 0.483021 -0.212278
C18   C     C_R   0.122233 0.303228 0.439062 -0.266427
C19   C     C_R   0.790757 0.642496 0.591142 0.007899
C20   C     C_R   0.893343 0.670073 0.621150 -0.260584
C21   C     C_R   0.985243 0.608488 0.601984 0.137422
C22   C     C_R   0.970040 0.523400 0.542541 -0.054962
C23   C     C_3   0.563032 0.405539 0.036919 -0.137705
C24   C     C_R   0.863507 0.493055 0.518986 0.108736
C25   C     C_R   0.054515 0.465070 0.506028 -0.034597
C26   C     C_R   0.042305 0.363281 0.475330 0.108867
C27   C     C_R   0.944894 0.326342 0.470456 -0.272991
C28   C     C_R   0.499212 0.500092 0.338334 0.949852
C29   C     C_R   0.853553 0.395610 0.475111 0.386160
C30   C     C_R   0.146507 0.505246 0.491561 0.013948
C31   C     C_R   0.212143 0.346131 0.429340 0.038288
C32   C     C_3   0.403000 0.500691 0.010323 -0.165566
C33   C     C_3   0.450579 0.581313 0.965085 -0.167062
C34   C     C_3   0.504250 0.494147 0.083289 0.189461
C35   C     C_1   0.505312 0.496050 0.751391 -0.166531
C36   C     C_1   0.498937 0.497890 0.249064 -0.115400
C37   C     C_3   0.461698 0.412097 0.962124 -0.173230
C38   C     C_3   0.093332 0.624296 0.660986 -0.416594
C39   C     C_3   0.144434 0.527068 0.713957 -0.329334
C40   C     C_3   0.232190 0.551653 0.790978 -0.861819
C41   C     C_3   0.610604 0.486222 0.991436 -0.147194
C42   C     C_3   0.551861 0.574784 0.039753 -0.149897
C43   C     C_1   0.508736 0.493678 0.827366 -0.075685
C44   C     C_1   0.500832 0.495909 0.173825 -0.045420
C45   C     C_R   0.693197 0.072175 0.635842 0.383987
Cl1   Cl    Cl    0.217963 0.755519 0.357936 -0.605965
Cl2   Cl    Cl    0.747717 0.364746 0.392193 -0.611343
Cl3   Cl    Cl    0.802860 0.037680 0.723241 -0.641983
H1    H     H_    0.404766 0.653236 0.933610 0.147325
H2    H     H_    0.721990 0.688196 0.610534 0.148682
H3    H     H_    0.318048 0.506690 0.019983 0.152079
H4    H     H_    0.900961 0.736493 0.664371 0.168435
H5    H     H_    0.588514 0.641350 0.073692 0.151172
H6    H     H_    0.695410 0.480279 0.981454 0.149681
H7    H     H_    0.608826 0.333722 0.068582 0.156663
H8    H     H_    0.425030 0.345539 0.928186 0.146560
H9    H     H_    0.736728 0.224610 0.630553 0.188624
H10   H     H_    0.679832 0.883714 0.696756 0.194870
H11   H     H_    0.292931 0.591616 0.768314 0.266957
H12   H     H_    0.467699 0.157106 0.435469 0.152574
H13   H     H_    0.195714 0.601943 0.839021 0.258786
H14   H     H_    0.273256 0.478781 0.823481 0.256804
H15   H     H_    0.081142 0.493551 0.739364 0.230971
H16   H     H_    0.181379 0.468197 0.672002 0.235544
H17   H     H_    0.151248 0.650990 0.625920 0.191588
H18   H     H_    0.080127 0.688243 0.708183 0.215923
H19   H     H_    0.325106 0.090909 0.424214 0.145633
H20   H     H_    0.205247 0.971058 0.357131 0.181942
H21   H     H_    0.548445 0.771154 0.635798 0.150175
H22   H     H_    0.276203 0.299692 0.403745 0.128491
H23   H     H_    0.935313 0.250057 0.442413 0.195840
H24   H     H_    0.113801 0.224916 0.416148 0.147167
H25   H     H_    0.158249 0.584242 0.505500 0.147921
N1    N     N_R   0.222180 0.444680 0.455580 -0.102459
N2    N     N_R   0.776980 0.554790 0.543960 -0.116830
O1    O     O_R   0.366730 0.627160 0.478790 -0.566080
O2    O     O_R   0.544830 0.662520 0.507160 -0.627552
O3    O     O_R   0.410960 0.482330 0.609040 -0.613873
O4    O     O_R   0.589060 0.517690 0.637410 -0.625731
O5    O     O_R   0.455170 0.337480 0.492840 -0.639534
O6    O     O_R   0.633270 0.372840 0.521210 -0.575500
O7    O     O_R   0.410940 0.482310 0.362590 -0.603190
O8    O     O_R   0.589040 0.517670 0.390960 -0.545385
Zn1   Zn    Zn3+2 0.381080 0.476390 0.481050 0.978891
Zn2   Zn    Zn3+2 0.618920 0.523610 0.518950 0.988148

loop_
_geom_bond_atom_site_label_1
_geom_bond_atom_site_label_2
_ccdc_geom_bond_type
C8    C13   A    
C27   C29   A    
C1    O2    A    
C41   C42   S    
C19   C20   A    
C34   C42   S    
O5    Zn1   S    
C35   C43   T    
O1    Zn1   S    
C27   H23   S    
C7    C8    A    
C39   H16   S    
C26   C27   A    
C29   Cl2   S    
C33   C42   S    
C12   C43   S    
C42   H5    S    
C38   C39   S    
C30   N1    A    
C33   H1    S    
C40   H14   S    
C12   C37   S    
C24   C29   A    
C37   H8    S    
N2    Zn2   S    
C31   H22   S    
C21   C38   S    
C38   H18   S    
C22   C25   A    
C18   C26   A    
C11   H10   S    
C2    C16   S    
C9    C10   A    
C4    C35   S    
O2    Zn2   S    
C40   H11   S    
C21   C22   A    
C28   O8    A    
C15   H9    S    
C5    H20   S    
C18   H24   S    
C28   O7    A    
C34   C44   S    
C4    O4    A    
C39   C40   S    
C30   H25   S    
C31   N1    A    
C25   C26   A    
C23   C37   S    
C40   H13   S    
C16   O5    A    
C32   C34   S    
C9    C14   A    
C32   H3    S    
C4    O3    A    
C12   C41   S    
C38   H17   S    
C23   C34   S    
C10   C45   A    
C32   C37   S    
C2    C15   A    
C6    H19   S    
O8    Zn2   S    
O7    Zn1   S    
C22   C24   A    
C36   C44   T    
C15   C45   A    
O4    Zn2   S    
C14   H12   S    
C45   Cl3   S    
C25   C30   A    
C7    C9    A    
C1    O1    A    
N1    Zn1   S    
C3    C5    A    
C24   N2    A    
C23   H7    S    
C6    C7    A    
C39   H15   S    
C3    Cl1   S    
C1    C17   S    
C8    C17   A    
C23   C41   S    
C32   C33   S    
C19   N2    A    
C20   H4    S    
C11   C13   A    
C19   H2    S    
C5    C6    A    
C13   H21   S    
C16   O6    A    
C3    C17   A    
C2    C14   A    
C41   H6    S    
C10   C11   A    
O3    Zn1   S    
C20   C21   A    
C28   C36   S    
C18   C31   A    
C12   C33   S    
O6    Zn2   S    
