data_mof_unit_29336.cif
_audit_creation_date              2012-12-11T15:06:50-0500
_audit_creation_method            fapswitch 2.2
_symmetry_space_group_name_H-M    P1
_symmetry_Int_Tables_number       1
_space_group_crystal_system       monoclinic
_cell_length_a                    19.671807
_cell_length_b                    11.39098
_cell_length_c                    18.693715
_cell_angle_alpha                 90.0
_cell_angle_beta                  89.988514
_cell_angle_gamma                 90.0
_cell_volume                      4188.90925962

loop_
_atom_site_label
_atom_site_type_symbol
_atom_type_description
_atom_site_fract_x
_atom_site_fract_y
_atom_site_fract_z
_atom_type_partial_charge
C1    C     C_R   0.761180 0.525253 0.639729 0.532395
C2    C     C_R   0.238820 0.525253 0.360270 0.532395
C3    C     C_R   0.261180 0.025253 0.639730 0.532395
C4    C     C_R   0.738820 0.025253 0.360270 0.532395
C5    C     C_3   0.810032 0.133812 0.449196 -0.282032
C6    C     C_3   0.189968 0.133812 0.550804 -0.282032
C7    C     C_3   0.310032 0.633811 0.449196 -0.282032
C8    C     C_3   0.689967 0.633812 0.550804 -0.282032
C9    C     C_3   0.746046 0.061141 0.436104 0.028658
C10   C     C_3   0.253954 0.061141 0.563896 0.028658
C11   C     C_3   0.246046 0.561140 0.436104 0.028658
C12   C     C_3   0.753954 0.561140 0.563896 0.028658
C13   C     C_3   0.758773 0.093807 0.574160 0.063627
C14   C     C_3   0.241227 0.093807 0.425840 0.063627
C15   C     C_3   0.258773 0.593808 0.574160 0.063628
C16   C     C_3   0.741227 0.593807 0.425840 0.063627
C17   C     C_3   0.746665 0.964249 0.561420 -0.264437
C18   C     C_3   0.253335 0.964249 0.438580 -0.264437
C19   C     C_3   0.246665 0.464249 0.561420 -0.264437
C20   C     C_3   0.753335 0.464249 0.438580 -0.264437
C21   C     C_3   0.823097 0.131940 0.530324 -0.265158
C22   C     C_3   0.176903 0.131940 0.469676 -0.265158
C23   C     C_3   0.323097 0.631940 0.530324 -0.265158
C24   C     C_3   0.676903 0.631940 0.469676 -0.265158
C25   C     C_3   0.005020 0.200428 0.458870 -0.223806
C26   C     C_3   0.994980 0.200428 0.541130 -0.223806
C27   C     C_3   0.505020 0.700428 0.458870 -0.223806
C28   C     C_3   0.494980 0.700428 0.541130 -0.223806
C29   C     C_3   0.063852 0.401296 0.474387 -0.214979
C30   C     C_3   0.936148 0.401296 0.525613 -0.214980
C31   C     C_3   0.563851 0.901296 0.474387 -0.214980
C32   C     C_3   0.436148 0.901296 0.525613 -0.214980
C33   C     C_3   0.941223 0.380949 0.444930 -0.260561
C34   C     C_3   0.058777 0.380948 0.555070 -0.260560
C35   C     C_3   0.441223 0.880948 0.444930 -0.260560
C36   C     C_3   0.558777 0.880949 0.555070 -0.260560
C37   C     C_3   0.010570 0.328563 0.430835 0.042110
C38   C     C_3   0.989430 0.328563 0.569164 0.042110
C39   C     C_3   0.510570 0.828563 0.430835 0.042110
C40   C     C_3   0.489430 0.828563 0.569164 0.042110
C41   C     C_3   0.819298 0.026308 0.046506 -0.234299
C42   C     C_3   0.180702 0.026308 0.953493 -0.234300
C43   C     C_3   0.319298 0.526308 0.046506 -0.234299
C44   C     C_3   0.680702 0.526308 0.953493 -0.234300
C45   C     C_R   0.773929 0.121645 0.649574 0.562297
C46   C     C_R   0.226071 0.121645 0.350426 0.562297
C47   C     C_R   0.273929 0.621645 0.649574 0.562297
C48   C     C_R   0.726071 0.621645 0.350426 0.562297
C49   C     C_3   0.818511 0.022655 0.965758 -0.234596
C50   C     C_3   0.181489 0.022655 0.034242 -0.234597
C51   C     C_3   0.318511 0.522655 0.965758 -0.234596
C52   C     C_3   0.681489 0.522655 0.034242 -0.234597
C53   C     C_3   0.691211 0.015730 0.031708 -0.225689
C54   C     C_3   0.308789 0.015730 0.968292 -0.225689
C55   C     C_3   0.191211 0.515730 0.031708 -0.225689
C56   C     C_3   0.808789 0.515730 0.968292 -0.225689
C57   C     C_3   0.744714 0.201937 0.061175 -0.253433
C58   C     C_3   0.255286 0.201937 0.938825 -0.253432
C59   C     C_3   0.244714 0.701937 0.061175 -0.253433
C60   C     C_3   0.755286 0.701937 0.938825 -0.253432
C61   C     C_3   0.749167 0.071245 0.075483 0.062249
C62   C     C_3   0.250833 0.071246 0.924517 0.062249
C63   C     C_3   0.249167 0.571245 0.075483 0.062249
C64   C     C_3   0.750833 0.571246 0.924517 0.062249
C65   C     C_3   0.760702 0.103795 0.936113 0.060484
C66   C     C_3   0.239298 0.103795 0.063886 0.060484
C67   C     C_3   0.260702 0.603795 0.936113 0.060484
C68   C     C_3   0.739298 0.603795 0.063886 0.060484
C69   C     C_3   0.693698 0.042359 0.950462 -0.251756
C70   C     C_3   0.306301 0.042359 0.049538 -0.251756
C71   C     C_3   0.193698 0.542359 0.950462 -0.251756
C72   C     C_3   0.806301 0.542359 0.049538 -0.251756
C73   C     C_3   0.758169 0.218958 0.980210 -0.232066
C74   C     C_3   0.241830 0.218959 0.019790 -0.232066
C75   C     C_3   0.258170 0.718958 0.980210 -0.232066
C76   C     C_3   0.741830 0.718958 0.019790 -0.232066
C77   C     C_3   0.998665 0.479788 0.040677 -0.235855
C78   C     C_3   0.001335 0.479788 0.959323 -0.235855
C79   C     C_3   0.498665 0.979788 0.040677 -0.235855
C80   C     C_3   0.501335 0.979788 0.959323 -0.235855
C81   C     C_3   0.067563 0.292789 0.025800 -0.229993
C82   C     C_3   0.932437 0.292788 0.974200 -0.229992
C83   C     C_3   0.567563 0.792789 0.025800 -0.229993
C84   C     C_3   0.432436 0.792788 0.974200 -0.229992
C85   C     C_3   0.947070 0.281259 0.054924 -0.254676
C86   C     C_3   0.052929 0.281259 0.945076 -0.254677
C87   C     C_3   0.447070 0.781259 0.054924 -0.254676
C88   C     C_3   0.552929 0.781259 0.945076 -0.254677
C89   C     C_R   0.969109 0.341423 0.645170 0.534775
C90   C     C_R   0.030891 0.341423 0.354830 0.534775
C91   C     C_R   0.469109 0.841423 0.645170 0.534775
C92   C     C_R   0.530891 0.841423 0.354830 0.534775
C93   C     C_3   0.010533 0.352328 0.069491 0.062470
C94   C     C_3   0.989467 0.352328 0.930509 0.062470
C95   C     C_3   0.510533 0.852328 0.069491 0.062470
C96   C     C_3   0.489466 0.852328 0.930509 0.062470
C97   C     C_R   0.759912 0.534954 0.848152 0.529350
C98   C     C_R   0.240088 0.534954 0.151848 0.529350
C99   C     C_R   0.259912 0.034954 0.848152 0.529350
C100  C     C_R   0.740088 0.034954 0.151848 0.529350
C101  C     C_R   0.774258 0.132641 0.858851 0.534346
C102  C     C_R   0.225742 0.132641 0.141149 0.534346
C103  C     C_R   0.274258 0.632641 0.858851 0.534346
C104  C     C_R   0.725742 0.632641 0.141149 0.534346
C105  C     C_R   0.968102 0.353522 0.853988 0.536862
C106  C     C_R   0.031898 0.353522 0.146012 0.536862
C107  C     C_R   0.468102 0.853522 0.853988 0.536862
C108  C     C_R   0.531898 0.853522 0.146012 0.536862
C109  C     C_3   0.685719 0.135210 0.464076 -0.192438
C110  C     C_3   0.314281 0.135209 0.535924 -0.192438
C111  C     C_3   0.185719 0.635209 0.464076 -0.192438
C112  C     C_3   0.814281 0.635209 0.535924 -0.192438
C113  C     C_3   0.695943 0.160665 0.544009 0.097153
C114  C     C_3   0.304057 0.160665 0.455991 0.097153
C115  C     C_3   0.195942 0.660665 0.544009 0.097153
C116  C     C_3   0.804058 0.660665 0.455991 0.097153
C117  C     C_3   0.753059 0.946028 0.480609 -0.237071
C118  C     C_3   0.246941 0.946028 0.519391 -0.237071
C119  C     C_3   0.253059 0.446027 0.480609 -0.237071
C120  C     C_3   0.746941 0.446027 0.519391 -0.237071
Cr1   Cr    Cr6+3 0.885690 0.492860 0.745310 1.022974
Cr2   Cr    Cr6+3 0.114310 0.492860 0.254690 1.022974
Cr3   Cr    Cr6+3 0.385690 0.992860 0.745310 1.022974
Cr4   Cr    Cr6+3 0.614310 0.992860 0.254690 1.022973
Cr5   Cr    Cr6+3 0.729880 0.332270 0.748190 1.053451
Cr6   Cr    Cr6+3 0.270120 0.332270 0.251810 1.053451
Cr7   Cr    Cr6+3 0.229880 0.832270 0.748190 1.053451
Cr8   Cr    Cr6+3 0.770120 0.832270 0.251810 1.053451
Cr9   Cr    Cr6+3 0.888120 0.178590 0.753010 1.002410
Cr10  Cr    Cr6+3 0.111880 0.178590 0.246990 1.002410
Cr11  Cr    Cr6+3 0.388120 0.678590 0.753010 1.002410
Cr12  Cr    Cr6+3 0.611880 0.678590 0.246990 1.002410
H1    H     H_    0.638099 0.089702 0.455201 0.170611
H2    H     H_    0.361901 0.089702 0.544799 0.170611
H3    H     H_    0.138099 0.589702 0.455201 0.170611
H4    H     H_    0.861900 0.589701 0.544799 0.170611
H5    H     H_    0.862048 0.063432 0.540004 0.147282
H6    H     H_    0.137952 0.063432 0.459996 0.147282
H7    H     H_    0.362048 0.563432 0.540004 0.147282
H8    H     H_    0.637952 0.563432 0.459996 0.147282
H9    H     H_    0.806351 0.917355 0.471940 0.159205
H10   H     H_    0.193649 0.917355 0.528060 0.159205
H11   H     H_    0.306351 0.417355 0.471940 0.159205
H12   H     H_    0.693649 0.417355 0.528060 0.159205
H13   H     H_    0.784818 0.909942 0.590198 0.119340
H14   H     H_    0.215182 0.909942 0.409802 0.119340
H15   H     H_    0.284818 0.409942 0.590198 0.119340
H16   H     H_    0.715182 0.409942 0.409802 0.119340
H17   H     H_    0.048711 0.148726 0.443246 0.139001
H18   H     H_    0.951289 0.148726 0.556753 0.139001
H19   H     H_    0.548711 0.648726 0.443246 0.139001
H20   H     H_    0.451289 0.648726 0.556754 0.139001
H21   H     H_    0.961958 0.154441 0.432981 0.117357
H22   H     H_    0.038042 0.154441 0.567019 0.117357
H23   H     H_    0.461958 0.654441 0.432981 0.117357
H24   H     H_    0.538042 0.654441 0.567019 0.117357
H25   H     H_    0.615069 0.887806 0.454590 0.108028
H26   H     H_    0.384930 0.887805 0.545410 0.108027
H27   H     H_    0.115069 0.387806 0.454589 0.108028
H28   H     H_    0.884931 0.387806 0.545410 0.108028
H29   H     H_    0.599810 0.822898 0.574468 0.103651
H30   H     H_    0.400190 0.822897 0.425532 0.103651
H31   H     H_    0.099810 0.322896 0.574468 0.103651
H32   H     H_    0.900190 0.322897 0.425532 0.103651
H33   H     H_    0.936780 0.463283 0.415543 0.217955
H34   H     H_    0.063221 0.463282 0.584457 0.217955
H35   H     H_    0.436779 0.963283 0.415543 0.217955
H36   H     H_    0.563220 0.963283 0.584457 0.217955
H37   H     H_    0.949080 0.494877 0.534473 0.175912
H38   H     H_    0.050920 0.494877 0.465527 0.175912
H39   H     H_    0.449079 0.994877 0.534473 0.175912
H40   H     H_    0.550920 0.994877 0.465526 0.175912
H41   H     H_    0.834531 0.937776 0.064694 0.140616
H42   H     H_    0.165469 0.937776 0.935306 0.140616
H43   H     H_    0.334531 0.437776 0.064694 0.140616
H44   H     H_    0.665469 0.437776 0.935306 0.140616
H45   H     H_    0.681523 0.218757 0.433778 0.103060
H46   H     H_    0.318477 0.218757 0.566222 0.103060
H47   H     H_    0.181523 0.718756 0.433778 0.103060
H48   H     H_    0.818477 0.718756 0.566222 0.103060
H49   H     H_    0.859939 0.085658 0.065607 0.116441
H50   H     H_    0.140061 0.085658 0.934393 0.116441
H51   H     H_    0.359939 0.585658 0.065607 0.116441
H52   H     H_    0.640061 0.585658 0.934393 0.116441
H53   H     H_    0.870412 0.043777 0.947536 0.136319
H54   H     H_    0.129588 0.043777 0.052464 0.136319
H55   H     H_    0.370412 0.543777 0.947536 0.136319
H56   H     H_    0.629588 0.543777 0.052464 0.136319
H57   H     H_    0.809650 0.931596 0.947130 0.118349
H58   H     H_    0.190350 0.931596 0.052870 0.118349
H59   H     H_    0.309650 0.431596 0.947130 0.118349
H60   H     H_    0.690350 0.431596 0.052870 0.118349
H61   H     H_    0.700252 0.924433 0.039966 0.107326
H62   H     H_    0.299747 0.924433 0.960034 0.107326
H63   H     H_    0.200252 0.424433 0.039966 0.107326
H64   H     H_    0.799747 0.424433 0.960034 0.107326
H65   H     H_    0.689401 0.960199 0.918769 0.104050
H66   H     H_    0.310599 0.960199 0.081231 0.104050
H67   H     H_    0.189401 0.460199 0.918769 0.104050
H68   H     H_    0.810599 0.460199 0.081231 0.104050
H69   H     H_    0.693295 0.234891 0.075610 0.122647
H70   H     H_    0.306706 0.234891 0.924390 0.122647
H71   H     H_    0.193295 0.734891 0.075610 0.122647
H72   H     H_    0.806706 0.734891 0.924390 0.122647
H73   H     H_    0.782626 0.250610 0.093800 0.101783
H74   H     H_    0.217375 0.250610 0.906200 0.101783
H75   H     H_    0.282626 0.750610 0.093800 0.101783
H76   H     H_    0.717375 0.750610 0.906200 0.101783
H77   H     H_    0.808645 0.251395 0.976099 0.109156
H78   H     H_    0.191355 0.251395 0.023901 0.109156
H79   H     H_    0.308645 0.751395 0.976099 0.109156
H80   H     H_    0.691355 0.751395 0.023901 0.109156
H81   H     H_    0.720679 0.280179 0.957394 0.125350
H82   H     H_    0.279320 0.280179 0.042606 0.125350
H83   H     H_    0.220679 0.780179 0.957394 0.125350
H84   H     H_    0.779320 0.780179 0.042606 0.125350
H85   H     H_    0.641603 0.042101 0.053508 0.130265
H86   H     H_    0.358397 0.042100 0.946492 0.130265
H87   H     H_    0.141603 0.542101 0.053508 0.130265
H88   H     H_    0.858397 0.542100 0.946492 0.130265
H89   H     H_    0.708870 0.249724 0.549845 0.152868
H90   H     H_    0.291130 0.249724 0.450155 0.152868
H91   H     H_    0.208870 0.749724 0.549845 0.152868
H92   H     H_    0.791130 0.749724 0.450155 0.152868
H93   H     H_    0.651216 0.101445 0.935081 0.122812
H94   H     H_    0.348784 0.101445 0.064919 0.122812
H95   H     H_    0.151216 0.601445 0.935081 0.122812
H96   H     H_    0.848784 0.601445 0.064919 0.122812
H97   H     H_    0.035077 0.546076 0.060194 0.135259
H98   H     H_    0.964923 0.546076 0.939806 0.135259
H99   H     H_    0.535077 0.046076 0.060194 0.135259
H100  H     H_    0.464923 0.046076 0.939806 0.135259
H101  H     H_    0.948422 0.511076 0.059102 0.119904
H102  H     H_    0.051578 0.511076 0.940898 0.119904
H103  H     H_    0.448422 0.011076 0.059102 0.119904
H104  H     H_    0.551578 0.011076 0.940898 0.119904
H105  H     H_    0.608442 0.852700 0.031571 0.107871
H106  H     H_    0.391557 0.852699 0.968429 0.107871
H107  H     H_    0.108442 0.352700 0.031571 0.107871
H108  H     H_    0.891557 0.352699 0.968429 0.107871
H109  H     H_    0.596483 0.813829 0.912798 0.102424
H110  H     H_    0.403517 0.813829 0.087202 0.102424
H111  H     H_    0.096483 0.313829 0.912798 0.102424
H112  H     H_    0.903517 0.313829 0.087202 0.102424
H113  H     H_    0.956283 0.187877 0.069193 0.122530
H114  H     H_    0.043717 0.187877 0.930808 0.122530
H115  H     H_    0.456283 0.687877 0.069193 0.122530
H116  H     H_    0.543717 0.687877 0.930808 0.122530
H117  H     H_    0.919783 0.206355 0.951841 0.134224
H118  H     H_    0.080217 0.206356 0.048159 0.134224
H119  H     H_    0.419783 0.706356 0.951841 0.134224
H120  H     H_    0.580217 0.706356 0.048159 0.134224
H121  H     H_    0.717758 0.878504 0.462710 0.093155
H122  H     H_    0.282242 0.878504 0.537290 0.093155
H123  H     H_    0.217758 0.378504 0.462711 0.093155
H124  H     H_    0.782242 0.378504 0.537290 0.093156
H125  H     H_    0.695685 0.938309 0.580862 0.151393
H126  H     H_    0.304315 0.938309 0.419139 0.151392
H127  H     H_    0.195685 0.438309 0.580862 0.151393
H128  H     H_    0.804315 0.438309 0.419139 0.151393
H129  H     H_    0.854177 0.095966 0.420282 0.144027
H130  H     H_    0.145823 0.095966 0.579718 0.144027
H131  H     H_    0.354177 0.595966 0.420282 0.144027
H132  H     H_    0.645823 0.595966 0.579718 0.144027
H133  H     H_    0.802413 0.224799 0.429808 0.105060
H134  H     H_    0.197587 0.224799 0.570192 0.105060
H135  H     H_    0.302413 0.724799 0.429808 0.105060
H136  H     H_    0.697587 0.724799 0.570191 0.105060
H137  H     H_    0.842683 0.216914 0.548495 0.111464
H138  H     H_    0.157317 0.216914 0.451505 0.111464
H139  H     H_    0.342683 0.716914 0.548495 0.111464
H140  H     H_    0.657317 0.716914 0.451505 0.111464
O1    O     O_R   0.957210 0.449410 0.665480 -0.503322
O2    O     O_R   0.042790 0.449410 0.334520 -0.503322
O3    O     O_R   0.457210 0.949410 0.665480 -0.503322
O4    O     O_R   0.542790 0.949410 0.334520 -0.503322
O5    O     O_R   0.736260 0.212010 0.826560 -0.504576
O6    O     O_R   0.263740 0.212010 0.173440 -0.504576
O7    O     O_R   0.236260 0.712010 0.826560 -0.504576
O8    O     O_R   0.763740 0.712010 0.173440 -0.504576
O9    O     O_R   0.832520 0.095300 0.836000 -0.534214
O10   O     O_R   0.167480 0.095300 0.164000 -0.534214
O11   O     O_R   0.332520 0.595300 0.836000 -0.534214
O12   O     O_R   0.667480 0.595300 0.164000 -0.534214
O13   O     O_R   0.946380 0.253940 0.826940 -0.514712
O14   O     O_R   0.053620 0.253940 0.173060 -0.514712
O15   O     O_R   0.446380 0.753940 0.826940 -0.514712
O16   O     O_R   0.553620 0.753940 0.173060 -0.514712
O17   O     O_3   0.834560 0.334570 0.748840 -0.292181
O18   O     O_3   0.165440 0.334570 0.251160 -0.292182
O19   O     O_3   0.334560 0.834570 0.748840 -0.292181
O20   O     O_3   0.665440 0.834570 0.251160 -0.292181
O21   O     O_R   0.820730 0.541240 0.668250 -0.516384
O22   O     O_R   0.179270 0.541240 0.331750 -0.516385
O23   O     O_R   0.320730 0.041240 0.668250 -0.516385
O24   O     O_R   0.679270 0.041240 0.331750 -0.516385
O25   O     O_R   0.714240 0.455060 0.663710 -0.505715
O26   O     O_R   0.285760 0.455060 0.336290 -0.505714
O27   O     O_R   0.214240 0.955060 0.663710 -0.505715
O28   O     O_R   0.785760 0.955060 0.336290 -0.505714
O29   O     O_R   0.736780 0.204870 0.675910 -0.454103
O30   O     O_R   0.263220 0.204870 0.324090 -0.454102
O31   O     O_R   0.236780 0.704870 0.675910 -0.454103
O32   O     O_R   0.763220 0.704870 0.324090 -0.454102
O33   O     O_R   0.833070 0.087590 0.673490 -0.534003
O34   O     O_R   0.166930 0.087590 0.326510 -0.534003
O35   O     O_R   0.333070 0.587590 0.673490 -0.534003
O36   O     O_R   0.666930 0.587590 0.326510 -0.534003
O37   O     O_R   0.946890 0.246800 0.676300 -0.513122
O38   O     O_R   0.053110 0.246800 0.323700 -0.513122
O39   O     O_R   0.446890 0.746800 0.676300 -0.513122
O40   O     O_R   0.553110 0.746800 0.323700 -0.513122
O41   O     O_R   0.956650 0.457120 0.827980 -0.524108
O42   O     O_R   0.043350 0.457120 0.172020 -0.524108
O43   O     O_R   0.456650 0.957120 0.827980 -0.524108
O44   O     O_R   0.543350 0.957120 0.172020 -0.524108
O45   O     O_R   0.820220 0.548390 0.818890 -0.512199
O46   O     O_R   0.179780 0.548390 0.181110 -0.512199
O47   O     O_R   0.320220 0.048390 0.818890 -0.512199
O48   O     O_R   0.679780 0.048390 0.181110 -0.512199
O49   O     O_R   0.713680 0.462770 0.826210 -0.532101
O50   O     O_R   0.286320 0.462770 0.173790 -0.532101
O51   O     O_R   0.213680 0.962770 0.826210 -0.532101
O52   O     O_R   0.786320 0.962770 0.173790 -0.532101
Cl1   Cl    Cl    0.618771 0.155968 0.594042 -0.668718
Cl2   Cl    Cl    0.381228 0.155969 0.405958 -0.668717
Cl3   Cl    Cl    0.118771 0.655968 0.594042 -0.668718
Cl4   Cl    Cl    0.881228 0.655969 0.405958 -0.668717

loop_
_geom_bond_atom_site_label_1
_geom_bond_atom_site_label_2
_ccdc_geom_bond_type
C83   H105  S    
C5    H133  S    
C82   C94   S    
C119  H11   S    
C82   H117  S    
C120  H12   S    
C45   O33   A    
C53   C69   S    
C104  O8    A    
C43   C63   S    
C44   C64   S    
Cr6   O6    S    
C2    O26   A    
C63   C98   S    
Cr2   O2    S    
C19   H127  S    
C31   H40   S    
C28   C40   S    
C36   H36   S    
C30   C38   S    
Cr9   O33   S    
C56   C72   S    
C21   H5    S    
C8    H132  S    
C18   C118  S    
C81   C86   S    
C83   C88   S    
C48   O32   A    
C74   H82   S    
C89   O1    A    
C41   C49   S    
C54   H86   S    
Cr1   O45   S    
Cr2   O42   S    
C109  H1    S    
Cr4   O48   S    
C88   H109  S    
C26   C38   S    
Cr10  O34   S    
C14   C114  S    
Cr11  O39   S    
C60   C76   S    
C24   H8    S    
C111  H3    S    
C69   H93   S    
C30   H37   S    
C54   C70   S    
C48   O36   A    
C68   C72   S    
C23   H139  S    
C97   O45   A    
C13   C21   S    
C87   H115  S    
C79   H99   S    
C31   H25   S    
C64   C97   S    
C36   H29   S    
C15   C115  S    
C20   C120  S    
C101  O5    A    
C59   C63   S    
C70   H94   S    
Cr4   O20   S    
C57   C61   S    
C82   C85   S    
Cr6   O50   S    
C77   H97   S    
Cr11  O19   S    
C60   C64   S    
Cr9   O13   S    
C13   C45   S    
C66   C70   S    
C78   C94   S    
C43   H51   S    
C116  Cl4   S    
C95   C108  S    
C113  H89   S    
C62   C99   S    
C107  O43   A    
C5    C21   S    
C58   H70   S    
C110  H46   S    
C31   C36   S    
C47   O35   A    
C4    O28   A    
C55   C71   S    
C90   O38   A    
C54   H62   S    
Cr1   O21   S    
C80   H104  S    
Cr2   O18   S    
C65   C101  S    
Cr10  O14   S    
Cr3   O23   S    
Cr11  O11   S    
C67   C103  S    
C37   C90   S    
C24   H140  S    
C73   H77   S    
Cr5   O17   S    
C66   C74   S    
C25   H17   S    
C114  Cl2   S    
C57   C73   S    
C85   C93   S    
C60   H72   S    
C56   H88   S    
C55   C63   S    
C6    H134  S    
C56   C64   S    
C7    H131  S    
Cr7   O51   S    
C42   C62   S    
C8    C12   S    
C112  H48   S    
Cr5   O29   S    
C44   C52   S    
C70   H66   S    
Cr6   O18   S    
C84   H119  S    
C85   H113  S    
C1    C12   S    
C43   H43   S    
C112  H4    S    
C2    C11   S    
C77   H101  S    
Cr3   O3    S    
C7    C11   S    
C53   H85   S    
C111  H47   S    
C6    H130  S    
C42   H42   S    
Cr9   O37   S    
C55   H87   S    
C25   C26   S    
C85   H112  S    
C105  O13   A    
C107  O15   A    
C5    C9    S    
C108  O16   A    
C59   H71   S    
C93   C106  S    
C88   H116  S    
C78   H102  S    
C90   O2    A    
C51   C67   S    
C7    H135  S    
C42   C50   S    
Cr2   O46   S    
Cr3   O43   S    
C110  H2    S    
C61   C100  S    
C67   C75   S    
C17   H125  S    
C91   O3    A    
C50   H54   S    
C112  C116  S    
C51   H59   S    
C58   C74   S    
Cr10  O38   S    
C59   H75   S    
Cr11  O35   S    
C33   H33   S    
C44   H44   S    
C68   C76   S    
C13   C17   S    
C98   O46   A    
C14   C22   S    
C3    O23   A    
C7    C23   S    
C8    C24   S    
C40   C91   S    
C101  O9    A    
Cr7   O27   S    
C46   O30   A    
C99   O51   A    
Cr8   O20   S    
C49   H53   S    
C57   H69   S    
C52   H56   S    
Cr7   O7    S    
C4    C9    S    
Cr4   O24   S    
Cr8   O8    S    
C58   C62   S    
C5    H129  S    
C88   C96   S    
C94   C105  S    
C59   C75   S    
C83   H120  S    
C53   H61   S    
C80   H100  S    
C12   C112  S    
C81   H118  S    
C41   H49   S    
C21   H137  S    
C14   C46   S    
C77   C78   S    
C42   H50   S    
C15   C19   S    
C115  H91   S    
C75   H79   S    
C1    O25   A    
C58   H74   S    
C6    C22   S    
C66   C102  S    
C41   H41   S    
C56   H64   S    
C86   H111  S    
Cr8   O28   S    
Cr2   O22   S    
C103  O7    A    
Cr3   O19   S    
C46   O34   A    
C17   C117  S    
C19   C119  S    
C27   H23   S    
C73   H81   S    
C2    O22   A    
Cr12  O36   S    
C16   C116  S    
C9    C109  S    
C25   H21   S    
C26   H18   S    
C105  O41   A    
C60   H76   S    
C87   H110  S    
C54   C62   S    
C18   H14   S    
Cr3   O47   S    
C29   C34   S    
C108  O44   A    
C33   C37   S    
C41   C61   S    
C81   H107  S    
C116  H92   S    
C117  H9    S    
C79   C95   S    
Cr5   O25   S    
C76   H84   S    
Cr6   O30   S    
C114  H90   S    
Cr12  O12   S    
C32   H39   S    
C91   O39   A    
C100  O52   A    
C39   C92   S    
C27   H19   S    
C106  O14   A    
C14   C18   S    
C84   H106  S    
C68   C104  S    
C119  H123  S    
C17   H13   S    
C6    C10   S    
C71   H67   S    
C1    O21   A    
C78   H98   S    
C22   H6    S    
Cr5   O49   S    
C19   H15   S    
C104  O12   A    
C43   C51   S    
Cr5   O5    S    
C65   C69   S    
C77   C93   S    
C10   C110  S    
C67   C71   S    
C50   H58   S    
Cr1   O1    S    
C18   H126  S    
C51   H55   S    
C3    O27   A    
C79   H103  S    
C109  H45   S    
C72   H96   S    
C29   C37   S    
C11   C111  S    
C34   H34   S    
C55   H63   S    
C9    C117  S    
C102  O10   A    
C35   C39   S    
C84   C87   S    
C15   C47   S    
C8    H136  S    
C11   C119  S    
C16   C48   S    
C29   H27   S    
C30   H28   S    
C38   C89   S    
C49   C65   S    
C74   H78   S    
C23   H7    S    
Cr7   O31   S    
Cr8   O32   S    
C49   H57   S    
Cr1   O41   S    
C57   H73   S    
C65   C73   S    
C52   H60   S    
Cr4   O44   S    
C113  Cl1   S    
C118  H122  S    
C25   C37   S    
C12   C120  S    
C115  Cl3   S    
C27   C39   S    
C82   H108  S    
C35   H35   S    
Cr12  O20   S    
C29   H38   S    
C80   C96   S    
C86   C94   S    
C44   H52   S    
C52   C68   S    
C16   C20   S    
C22   H138  S    
C15   C23   S    
Cr9   O17   S    
C86   H114  S    
C69   H65   S    
C53   C61   S    
C102  O6    A    
C103  O11   A    
C32   H26   S    
C35   H30   S    
C117  H121  S    
C32   C35   S    
C36   C40   S    
C33   H32   S    
C34   H31   S    
C97   O49   A    
Cr7   O19   S    
C87   C95   S    
C99   O47   A    
C120  H124  S    
C10   C118  S    
C72   H68   S    
C81   C93   S    
C83   C95   S    
Cr10  O18   S    
C20   H16   S    
Cr12  O40   S    
Cr9   O9    S    
C50   C66   S    
C100  O48   A    
C20   H128  S    
Cr8   O52   S    
C28   H20   S    
C45   O29   A    
C26   H22   S    
C92   O4    A    
C84   C96   S    
C106  O42   A    
C92   O40   A    
C110  C114  S    
C30   C33   S    
C34   C38   S    
C71   H95   S    
C96   C107  S    
C47   O31   A    
C4    O24   A    
C118  H10   S    
C89   O37   A    
Cr6   O26   S    
C109  C113  S    
Cr1   O17   S    
Cr10  O10   S    
C3    C10   S    
Cr11  O15   S    
Cr4   O4    S    
C76   H80   S    
Cr12  O16   S    
C75   H83   S    
C31   C39   S    
C32   C40   S    
C79   C80   S    
C98   O50   A    
C16   C24   S    
C27   C28   S    
C28   H24   S    
C111  C115  S    
C13   C113  S    
