data_mof_unit_64189.cif
_audit_creation_date              2012-12-10T19:27:58-0500
_audit_creation_method            fapswitch 2.2
_symmetry_space_group_name_H-M    P1
_symmetry_Int_Tables_number       1
_space_group_crystal_system       triclinic
_cell_length_a                    30.647276
_cell_length_b                    30.647276
_cell_length_c                    32.848807
_cell_angle_alpha                 90.002148
_cell_angle_beta                  90.00222
_cell_angle_gamma                 89.997506
_cell_volume                      30853.4234304

loop_
_atom_site_label
_atom_site_type_symbol
_atom_type_description
_atom_site_fract_x
_atom_site_fract_y
_atom_site_fract_z
_atom_type_partial_charge
C1    C     C_R   0.118576 0.381424 0.250000 -0.127989
C2    C     C_R   0.881463 0.381403 0.249991 -0.128438
C3    C     C_R   0.084441 0.415559 0.750000 0.873793
C4    C     C_R   0.584430 0.084446 0.250006 0.871092
C5    C     C_R   0.415571 0.915555 0.749994 0.870973
C6    C     C_R   0.084442 0.415558 0.250000 0.872263
C7    C     C_R   0.915654 0.584488 0.750123 0.867179
C8    C     C_R   0.415559 0.084441 0.750000 0.873794
C9    C     C_R   0.584441 0.915559 0.250000 0.873731
C10   C     C_R   0.915555 0.415571 0.749994 0.870973
C11   C     C_R   0.084446 0.584430 0.250006 0.871092
C12   C     C_R   0.584488 0.915654 0.750123 0.867179
C13   C     C_R   0.381425 0.118575 0.750000 -0.126984
C14   C     C_R   0.415558 0.084442 0.250000 0.872263
C15   C     C_R   0.084430 0.584445 0.750006 0.869713
C16   C     C_R   0.915570 0.415554 0.249994 0.871100
C17   C     C_1   0.500007 0.999986 0.399220 -0.124829
C18   C     C_1   0.499993 0.000012 0.600780 -0.124498
C19   C     C_1   0.999986 0.500007 0.399220 -0.124829
C20   C     C_1   0.000012 0.499993 0.600780 -0.124498
C21   C     C_1   0.000007 0.499987 0.899219 -0.124679
C22   C     C_1   0.999993 0.500014 0.100780 -0.124916
C23   C     C_1   0.499987 0.000007 0.899219 -0.124679
C24   C     C_R   0.618575 0.881425 0.250000 -0.126998
C25   C     C_1   0.500014 0.999993 0.100780 -0.124916
C26   C     C_1   0.500007 0.999987 0.436802 0.031110
C27   C     C_1   0.499993 0.000010 0.563199 0.031147
C28   C     C_1   0.999987 0.500007 0.436802 0.031110
C29   C     C_1   0.000010 0.499993 0.563199 0.031147
C30   C     C_1   0.000007 0.499989 0.936801 0.030843
C31   C     C_1   0.999993 0.500012 0.063198 0.030972
C32   C     C_1   0.499989 0.000007 0.936801 0.030843
C33   C     C_1   0.500012 0.999993 0.063198 0.030972
C34   C     C_R   0.106917 0.337212 0.243164 0.018766
C35   C     C_R   0.881403 0.381465 0.749989 -0.128169
C36   C     C_R   0.892349 0.662305 0.760131 0.010242
C37   C     C_R   0.368517 0.861804 0.287202 0.025204
C38   C     C_R   0.631398 0.138274 0.712810 0.025494
C39   C     C_R   0.862070 0.631768 0.287262 0.025660
C40   C     C_R   0.137932 0.368235 0.712738 0.025704
C41   C     C_R   0.631373 0.138294 0.287217 0.024565
C42   C     C_R   0.368707 0.861634 0.712793 0.024824
C43   C     C_R   0.138274 0.631399 0.712810 0.025494
C44   C     C_R   0.861804 0.368517 0.287202 0.025204
C45   C     C_R   0.368235 0.137932 0.712738 0.025704
C46   C     C_R   0.118597 0.618537 0.250009 -0.128438
C47   C     C_R   0.631768 0.862070 0.287262 0.025659
C48   C     C_R   0.861634 0.368707 0.712793 0.024825
C49   C     C_R   0.138294 0.631373 0.287217 0.024566
C50   C     C_R   0.662305 0.892349 0.760131 0.010242
C51   C     C_R   0.337212 0.106917 0.243164 0.018766
C52   C     C_R   0.607404 0.838138 0.739336 0.017997
C53   C     C_R   0.393083 0.162788 0.256836 0.018756
C54   C     C_R   0.868590 0.361733 0.787187 0.025365
C55   C     C_R   0.131483 0.638196 0.212798 0.025278
C56   C     C_R   0.362067 0.131765 0.787261 0.025703
C57   C     C_R   0.618558 0.881578 0.750138 -0.112803
C58   C     C_R   0.637930 0.868232 0.212738 0.025865
C59   C     C_R   0.131296 0.638366 0.787203 0.024937
C60   C     C_R   0.868627 0.361706 0.212783 0.024606
C61   C     C_R   0.638196 0.131483 0.212798 0.025278
C62   C     C_R   0.361734 0.868590 0.787187 0.025365
C63   C     C_R   0.868232 0.637930 0.212738 0.025864
C64   C     C_R   0.131765 0.362067 0.787261 0.025702
C65   C     C_R   0.361706 0.868627 0.212783 0.024606
C66   C     C_R   0.638367 0.131296 0.787203 0.024938
C67   C     C_R   0.162788 0.393083 0.256836 0.018756
C68   C     C_R   0.381424 0.118576 0.250000 -0.127989
C69   C     C_R   0.838138 0.607404 0.739336 0.017996
C70   C     C_R   0.139648 0.304814 0.243646 0.429436
C71   C     C_R   0.859791 0.694679 0.758412 0.423079
C72   C     C_R   0.335617 0.829573 0.286951 0.429806
C73   C     C_R   0.664296 0.170509 0.713060 0.429777
C74   C     C_R   0.829847 0.664675 0.287010 0.430349
C75   C     C_R   0.170155 0.335327 0.712990 0.430352
C76   C     C_R   0.664274 0.170526 0.286979 0.430089
C77   C     C_R   0.335808 0.829400 0.713027 0.430144
C78   C     C_R   0.170508 0.664296 0.713059 0.429777
C79   C     C_R   0.183479 0.316521 0.250000 -0.039975
C80   C     C_R   0.829573 0.335617 0.286951 0.429805
C81   C     C_R   0.335327 0.170155 0.712990 0.430353
C82   C     C_R   0.664675 0.829847 0.287010 0.430349
C83   C     C_R   0.829399 0.335808 0.713027 0.430145
C84   C     C_R   0.170526 0.664274 0.286979 0.430088
C85   C     C_R   0.694679 0.859791 0.758413 0.423080
C86   C     C_R   0.304814 0.139648 0.243646 0.429436
C87   C     C_R   0.640160 0.805702 0.738823 0.430569
C88   C     C_R   0.360352 0.195186 0.256354 0.429436
C89   C     C_R   0.835691 0.329501 0.786935 0.429888
C90   C     C_R   0.816695 0.683569 0.748178 -0.037725
C91   C     C_R   0.164383 0.670427 0.213049 0.429792
C92   C     C_R   0.329844 0.164673 0.787009 0.430345
C93   C     C_R   0.670153 0.835325 0.212990 0.430341
C94   C     C_R   0.164197 0.670599 0.786966 0.430086
C95   C     C_R   0.835726 0.329474 0.213021 0.430081
C96   C     C_R   0.670427 0.164383 0.213049 0.429791
C97   C     C_R   0.329501 0.835691 0.786935 0.429887
C98   C     C_R   0.835324 0.670153 0.212990 0.430342
C99   C     C_R   0.164673 0.329844 0.787009 0.430345
C100  C     C_R   0.329474 0.835726 0.213021 0.430080
C101  C     C_R   0.316489 0.816573 0.249982 -0.040044
C102  C     C_R   0.670599 0.164196 0.786966 0.430086
C103  C     C_R   0.195186 0.360352 0.256354 0.429437
C104  C     C_R   0.805702 0.640160 0.738823 0.430569
C105  C     C_3   0.059751 0.325390 0.234535 -0.675727
C106  C     C_3   0.937751 0.675287 0.773866 -0.673460
C107  C     C_3   0.390825 0.874890 0.326569 -0.690153
C108  C     C_3   0.609008 0.125264 0.673463 -0.689598
C109  C     C_3   0.875444 0.609772 0.326698 -0.688506
C110  C     C_3   0.124561 0.390233 0.673303 -0.688579
C111  C     C_3   0.608986 0.125270 0.326559 -0.692614
C112  C     C_R   0.881578 0.618558 0.750138 -0.112803
C113  C     C_R   0.683504 0.183430 0.750017 -0.040118
C114  C     C_3   0.391175 0.874587 0.673470 -0.693079
C115  C     C_3   0.125263 0.609009 0.673463 -0.689596
C116  C     C_3   0.874890 0.390824 0.326569 -0.690152
C117  C     C_3   0.390233 0.124561 0.673303 -0.688578
C118  C     C_3   0.609773 0.875444 0.326698 -0.688506
C119  C     C_3   0.874586 0.391176 0.673471 -0.693080
C120  C     C_3   0.125271 0.608985 0.326559 -0.692613
C121  C     C_3   0.675287 0.937750 0.773867 -0.673459
C122  C     C_3   0.325390 0.059751 0.234535 -0.675727
C123  C     C_3   0.560736 0.827289 0.727749 -0.685824
C124  C     C_R   0.816523 0.683477 0.250000 -0.040321
C125  C     C_3   0.440249 0.174610 0.265465 -0.675706
C126  C     C_3   0.890974 0.374747 0.826537 -0.690044
C127  C     C_3   0.109175 0.625110 0.173431 -0.690333
C128  C     C_3   0.375439 0.109767 0.826697 -0.688557
C129  C     C_3   0.624556 0.890228 0.173302 -0.688934
C130  C     C_3   0.108826 0.625419 0.826526 -0.693576
C131  C     C_3   0.891014 0.374730 0.173441 -0.692702
C132  C     C_3   0.625109 0.109176 0.173431 -0.690332
C133  C     C_3   0.374748 0.890973 0.826537 -0.690044
C134  C     C_3   0.890227 0.624556 0.173302 -0.688934
C135  C     C_R   0.183477 0.316523 0.750000 -0.040350
C136  C     C_3   0.109768 0.375439 0.826697 -0.688558
C137  C     C_3   0.374729 0.891015 0.173441 -0.692701
C138  C     C_3   0.625420 0.108825 0.826525 -0.693578
C139  C     C_3   0.174610 0.440249 0.265465 -0.675707
C140  C     C_3   0.827289 0.560736 0.727750 -0.685824
C141  C     C_R   0.683427 0.183510 0.250018 -0.040044
C142  C     C_R   0.316577 0.816488 0.749976 -0.040104
C143  C     C_R   0.183430 0.683504 0.750017 -0.040119
C144  C     C_R   0.816573 0.316489 0.249982 -0.040044
C145  C     C_R   0.316523 0.183477 0.750000 -0.040350
C146  C     C_R   0.683477 0.816523 0.250000 -0.040321
C147  C     C_R   0.816488 0.316577 0.749976 -0.040104
C148  C     C_R   0.381403 0.881463 0.249991 -0.128438
C149  C     C_R   0.183510 0.683427 0.250018 -0.040045
C150  C     C_R   0.683569 0.816695 0.748178 -0.037726
C151  C     C_R   0.316521 0.183479 0.250000 -0.039975
C152  C     C_R   0.282386 0.217614 0.250000 -0.141114
C153  C     C_R   0.717700 0.782517 0.748065 -0.141024
C154  C     C_R   0.217631 0.717588 0.250022 -0.140669
C155  C     C_R   0.782366 0.282416 0.749971 -0.140700
C156  C     C_R   0.717613 0.782387 0.250000 -0.141346
C157  C     C_R   0.282387 0.217613 0.750000 -0.141380
C158  C     C_R   0.782412 0.282369 0.249978 -0.140675
C159  C     C_R   0.618593 0.118538 0.750008 -0.127356
C160  C     C_R   0.217592 0.717626 0.750020 -0.140652
C161  C     C_R   0.282416 0.782366 0.749971 -0.140701
C162  C     C_R   0.717588 0.217631 0.250022 -0.140670
C163  C     C_R   0.217613 0.282387 0.750000 -0.141379
C164  C     C_R   0.782387 0.717613 0.250000 -0.141346
C165  C     C_R   0.717626 0.217592 0.750020 -0.140652
C166  C     C_R   0.282368 0.782412 0.249978 -0.140675
C167  C     C_R   0.782517 0.717700 0.748065 -0.141024
C168  C     C_R   0.217614 0.282386 0.250000 -0.141114
C169  C     C_R   0.229490 0.261862 0.286702 0.369817
C170  C     C_R   0.881425 0.618575 0.250000 -0.126998
C171  C     C_R   0.773422 0.741029 0.712132 0.369320
C172  C     C_R   0.294223 0.738183 0.246565 0.369107
C173  C     C_R   0.705780 0.261813 0.753535 0.369014
C174  C     C_R   0.738126 0.705754 0.247020 0.368550
C175  C     C_R   0.261873 0.294246 0.752983 0.368561
C176  C     C_R   0.705788 0.261871 0.246588 0.368336
C177  C     C_R   0.294209 0.738133 0.753509 0.368334
C178  C     C_R   0.261813 0.705780 0.753534 0.369013
C179  C     C_R   0.738183 0.294223 0.246566 0.369108
C180  C     C_R   0.294246 0.261873 0.752983 0.368562
C181  C     C_R   0.118575 0.381425 0.750000 -0.126984
C182  C     C_R   0.705754 0.738126 0.247020 0.368551
C183  C     C_R   0.738133 0.294208 0.753510 0.368333
C184  C     C_R   0.261871 0.705788 0.246587 0.368337
C185  C     C_R   0.741029 0.773422 0.712132 0.369321
C186  C     C_R   0.261862 0.229490 0.286702 0.369814
C187  C     C_R   0.726803 0.759179 0.783991 0.368575
C188  C     C_R   0.270510 0.238138 0.213298 0.369816
C189  C     C_R   0.794212 0.238195 0.746455 0.369017
C190  C     C_R   0.205777 0.761816 0.253435 0.369105
C191  C     C_R   0.238126 0.205754 0.747016 0.368564
C192  C     C_R   0.618537 0.118597 0.250009 -0.128438
C193  C     C_R   0.761874 0.794246 0.252980 0.368551
C194  C     C_R   0.205799 0.761859 0.746481 0.368347
C195  C     C_R   0.794212 0.238128 0.253412 0.368334
C196  C     C_R   0.761817 0.205777 0.253434 0.369106
C197  C     C_R   0.238195 0.794212 0.746456 0.369018
C198  C     C_R   0.794246 0.761874 0.252980 0.368549
C199  C     C_R   0.205754 0.238127 0.747016 0.368562
C200  C     C_R   0.238128 0.794212 0.253413 0.368336
C201  C     C_R   0.761859 0.205799 0.746480 0.368347
C202  C     C_R   0.238138 0.270510 0.213298 0.369814
C203  C     C_R   0.381465 0.881403 0.749989 -0.128170
C204  C     C_R   0.759179 0.726803 0.783991 0.368576
C205  C     C_1   0.500002 0.999995 0.481209 0.050498
C206  C     C_1   0.499997 0.000003 0.518791 0.050493
C207  C     C_1   0.999995 0.500002 0.481209 0.050498
C208  C     C_1   0.000003 0.499997 0.518791 0.050493
C209  C     C_1   0.000003 0.499997 0.981209 0.050259
C210  C     C_1   0.999997 0.500005 0.018791 0.050307
C211  C     C_1   0.499997 0.000003 0.981209 0.050259
C212  C     C_1   0.500005 0.999997 0.018791 0.050307
C213  C     C_R   0.500009 0.999998 0.145951 0.792798
C214  C     C_R   0.118538 0.618593 0.750008 -0.127356
C215  C     C_R   0.499991 0.000002 0.854049 0.792371
C216  C     C_R   0.999998 0.500009 0.145951 0.792798
C217  C     C_R   0.000002 0.499991 0.854049 0.792371
C218  C     C_R   0.000008 0.499998 0.645951 0.791880
C219  C     C_R   0.999991 0.500002 0.354049 0.792816
C220  C     C_R   0.499998 0.000008 0.645951 0.791880
C221  C     C_R   0.500002 0.999991 0.354049 0.792816
C222  C     C_R   0.415554 0.915570 0.249994 0.871099
C223  C     C_R   0.584445 0.084430 0.750006 0.869712
C224  C     C_R   0.915559 0.584441 0.250000 0.873731
Cl1   Cl    Cl    0.203666 0.276752 0.332767 -0.387482
Cl2   Cl    Cl    0.723388 0.349772 0.242209 -0.377453
Cl3   Cl    Cl    0.349823 0.276736 0.756777 -0.377065
Cl4   Cl    Cl    0.650176 0.723263 0.243230 -0.377133
Cl5   Cl    Cl    0.723280 0.349733 0.757974 -0.382345
Cl6   Cl    Cl    0.276734 0.650255 0.242252 -0.382970
Cl7   Cl    Cl    0.729627 0.802754 0.667049 -0.385966
Cl8   Cl    Cl    0.276752 0.203666 0.332767 -0.387482
Cl9   Cl    Cl    0.697512 0.770565 0.829116 -0.389226
Cl10  Cl    Cl    0.296334 0.223248 0.167233 -0.387514
Cl11  Cl    Cl    0.849751 0.223408 0.741966 -0.377474
Cl12  Cl    Cl    0.802754 0.729627 0.667049 -0.385966
Cl13  Cl    Cl    0.150228 0.776612 0.257793 -0.377497
Cl14  Cl    Cl    0.223264 0.150176 0.743222 -0.377112
Cl15  Cl    Cl    0.776737 0.849824 0.256770 -0.377175
Cl16  Cl    Cl    0.150275 0.776713 0.742018 -0.382537
Cl17  Cl    Cl    0.849746 0.223266 0.257747 -0.383000
Cl18  Cl    Cl    0.776612 0.150228 0.257791 -0.377497
Cl19  Cl    Cl    0.223408 0.849751 0.741968 -0.377474
Cl20  Cl    Cl    0.849824 0.776737 0.256770 -0.377174
Cl21  Cl    Cl    0.150176 0.223264 0.743222 -0.377111
Cl22  Cl    Cl    0.223266 0.849745 0.257748 -0.383000
Cl23  Cl    Cl    0.349772 0.723388 0.242207 -0.377453
Cl24  Cl    Cl    0.776712 0.150275 0.742016 -0.382537
Cl25  Cl    Cl    0.223247 0.296334 0.167233 -0.387514
Cl26  Cl    Cl    0.770565 0.697512 0.829116 -0.389226
Cl27  Cl    Cl    0.126601 0.248932 0.236785 -0.452454
Cl28  Cl    Cl    0.872706 0.749744 0.769716 -0.452087
Cl29  Cl    Cl    0.317275 0.805085 0.332758 -0.461759
Cl30  Cl    Cl    0.682533 0.195100 0.667264 -0.461531
Cl31  Cl    Cl    0.805784 0.683445 0.332866 -0.459890
Cl32  Cl    Cl    0.194221 0.316561 0.667134 -0.459982
Cl33  Cl    Cl    0.682588 0.195027 0.332791 -0.461927
Cl34  Cl    Cl    0.650241 0.276600 0.758025 -0.377401
Cl35  Cl    Cl    0.317596 0.804801 0.667225 -0.461891
Cl36  Cl    Cl    0.195099 0.682534 0.667264 -0.461531
Cl37  Cl    Cl    0.805086 0.317275 0.332758 -0.461759
Cl38  Cl    Cl    0.316561 0.194222 0.667134 -0.459983
Cl39  Cl    Cl    0.683445 0.805784 0.332866 -0.459890
Cl40  Cl    Cl    0.804800 0.317597 0.667225 -0.461892
Cl41  Cl    Cl    0.195028 0.682587 0.332791 -0.461926
Cl42  Cl    Cl    0.749743 0.872705 0.769717 -0.452087
Cl43  Cl    Cl    0.248932 0.126601 0.236785 -0.452454
Cl44  Cl    Cl    0.627679 0.750689 0.726899 -0.452243
Cl45  Cl    Cl    0.723263 0.650176 0.243230 -0.377133
Cl46  Cl    Cl    0.373399 0.251068 0.263215 -0.452420
Cl47  Cl    Cl    0.817446 0.304914 0.832730 -0.461699
Cl48  Cl    Cl    0.182725 0.694915 0.167242 -0.461916
Cl49  Cl    Cl    0.305778 0.183439 0.832865 -0.460021
Cl50  Cl    Cl    0.694216 0.816555 0.167134 -0.460552
Cl51  Cl    Cl    0.182408 0.695202 0.832767 -0.462124
Cl52  Cl    Cl    0.817412 0.304973 0.167209 -0.462043
Cl53  Cl    Cl    0.694914 0.182725 0.167241 -0.461915
Cl54  Cl    Cl    0.304915 0.817445 0.832730 -0.461699
Cl55  Cl    Cl    0.816555 0.694216 0.167134 -0.460552
Cl56  Cl    Cl    0.276736 0.349824 0.756777 -0.377065
Cl57  Cl    Cl    0.183440 0.305778 0.832865 -0.460021
Cl58  Cl    Cl    0.304972 0.817413 0.167209 -0.462042
Cl59  Cl    Cl    0.695203 0.182407 0.832766 -0.462124
Cl60  Cl    Cl    0.251068 0.373399 0.263215 -0.452420
Cl61  Cl    Cl    0.750689 0.627679 0.726900 -0.452243
Cl62  Cl    Cl    0.650254 0.276734 0.242253 -0.382970
Cl63  Cl    Cl    0.349733 0.723280 0.757972 -0.382346
Cl64  Cl    Cl    0.276600 0.650241 0.758023 -0.377400
H1    H     H_    0.046768 0.346406 0.209795 0.202398
H2    H     H_    0.573056 0.127470 0.677185 0.206237
H3    H     H_    0.617482 0.146252 0.647242 0.284803
H4    H     H_    0.618034 0.091285 0.665385 0.252702
H5    H     H_    0.873334 0.573781 0.323274 0.205493
H6    H     H_    0.909445 0.618993 0.334499 0.253250
H7    H     H_    0.854602 0.618399 0.352978 0.284724
H8    H     H_    0.126671 0.426224 0.676728 0.205493
H9    H     H_    0.145403 0.381607 0.647023 0.284721
H10   H     H_    0.090559 0.381014 0.665500 0.253250
H11   H     H_    0.573033 0.127482 0.322835 0.203023
H12   H     H_    0.055117 0.291283 0.224419 0.287930
H13   H     H_    0.618011 0.091288 0.334628 0.254012
H14   H     H_    0.617461 0.146254 0.352784 0.285066
H15   H     H_    0.427120 0.872357 0.677257 0.203051
H16   H     H_    0.382733 0.853574 0.647256 0.285124
H17   H     H_    0.382190 0.908565 0.665347 0.253908
H18   H     H_    0.127469 0.573057 0.677184 0.206237
H19   H     H_    0.091284 0.618035 0.665385 0.252702
H20   H     H_    0.146251 0.617483 0.647242 0.284802
H21   H     H_    0.872702 0.426784 0.322912 0.206550
H22   H     H_    0.853936 0.382315 0.352803 0.284864
H23   H     H_    0.039861 0.330138 0.262413 0.254746
H24   H     H_    0.908876 0.381758 0.334588 0.252035
H25   H     H_    0.426224 0.126671 0.676728 0.205493
H26   H     H_    0.381014 0.090559 0.665500 0.253250
H27   H     H_    0.381606 0.145403 0.647023 0.284720
H28   H     H_    0.573781 0.873334 0.323274 0.205493
H29   H     H_    0.618400 0.854602 0.352978 0.284724
H30   H     H_    0.618993 0.909445 0.334499 0.253250
H31   H     H_    0.872356 0.427121 0.677257 0.203050
H32   H     H_    0.908564 0.382191 0.665347 0.253907
H33   H     H_    0.853573 0.382734 0.647257 0.285124
H34   H     H_    0.960188 0.647410 0.778346 0.199940
H35   H     H_    0.127482 0.573032 0.322834 0.203023
H36   H     H_    0.146255 0.617460 0.352784 0.285066
H37   H     H_    0.091289 0.618010 0.334628 0.254011
H38   H     H_    0.647409 0.960188 0.778346 0.199939
H39   H     H_    0.692272 0.935791 0.803672 0.267307
H40   H     H_    0.697634 0.952500 0.751102 0.275842
H41   H     H_    0.330138 0.039861 0.262413 0.254746
H42   H     H_    0.291283 0.055117 0.224419 0.287930
H43   H     H_    0.346406 0.046768 0.209795 0.202398
H44   H     H_    0.549464 0.849724 0.703369 0.203069
H45   H     H_    0.952500 0.697634 0.751101 0.275842
H46   H     H_    0.556368 0.793762 0.715988 0.289748
H47   H     H_    0.539241 0.830900 0.754727 0.252808
H48   H     H_    0.453232 0.153594 0.290204 0.202402
H49   H     H_    0.460139 0.169862 0.237587 0.254740
H50   H     H_    0.444883 0.208717 0.275581 0.287937
H51   H     H_    0.926926 0.372540 0.822821 0.206439
H52   H     H_    0.881946 0.408728 0.834610 0.252287
H53   H     H_    0.882494 0.353763 0.852758 0.284872
H54   H     H_    0.073215 0.627299 0.177088 0.206528
H55   H     H_    0.117684 0.646065 0.147197 0.284830
H56   H     H_    0.935791 0.692272 0.803671 0.267308
H57   H     H_    0.118242 0.591125 0.165412 0.252053
H58   H     H_    0.373329 0.073776 0.823272 0.205510
H59   H     H_    0.409440 0.118987 0.834500 0.253264
H60   H     H_    0.354596 0.118393 0.852977 0.284706
H61   H     H_    0.626666 0.926219 0.176726 0.205505
H62   H     H_    0.645398 0.881601 0.147022 0.284627
H63   H     H_    0.590555 0.881007 0.165501 0.253256
H64   H     H_    0.072881 0.627651 0.822738 0.202604
H65   H     H_    0.117807 0.591441 0.834652 0.254020
H66   H     H_    0.117269 0.646434 0.852738 0.285086
H67   H     H_    0.426785 0.872701 0.322912 0.206550
H68   H     H_    0.926967 0.372518 0.177165 0.203033
H69   H     H_    0.882539 0.353746 0.147215 0.285054
H70   H     H_    0.881989 0.408712 0.165372 0.253999
H71   H     H_    0.627298 0.073216 0.177088 0.206528
H72   H     H_    0.591124 0.118242 0.165412 0.252053
H73   H     H_    0.646064 0.117685 0.147197 0.284830
H74   H     H_    0.372541 0.926925 0.822822 0.206439
H75   H     H_    0.353764 0.882493 0.852758 0.284871
H76   H     H_    0.408729 0.881945 0.834610 0.252288
H77   H     H_    0.926219 0.626666 0.176726 0.205505
H78   H     H_    0.381758 0.908875 0.334588 0.252035
H79   H     H_    0.881007 0.590555 0.165501 0.253256
H80   H     H_    0.881600 0.645398 0.147022 0.284628
H81   H     H_    0.073776 0.373329 0.823272 0.205510
H82   H     H_    0.118394 0.354596 0.852977 0.284707
H83   H     H_    0.118987 0.409440 0.834500 0.253264
H84   H     H_    0.372518 0.926968 0.177166 0.203032
H85   H     H_    0.408711 0.881990 0.165372 0.253999
H86   H     H_    0.353745 0.882540 0.147216 0.285054
H87   H     H_    0.627652 0.072880 0.822737 0.202605
H88   H     H_    0.646435 0.117268 0.852738 0.285086
H89   H     H_    0.382316 0.853935 0.352803 0.284865
H90   H     H_    0.591442 0.117806 0.834652 0.254020
H91   H     H_    0.153594 0.453231 0.290205 0.202402
H92   H     H_    0.208717 0.444883 0.275581 0.287937
H93   H     H_    0.169862 0.460139 0.237587 0.254740
H94   H     H_    0.830900 0.539241 0.754727 0.252809
H95   H     H_    0.793761 0.556368 0.715989 0.289748
H96   H     H_    0.849724 0.549463 0.703369 0.203070
O1    O     O_3   0.500000 0.000000 0.250000 -0.472098
O2    O     O_R   0.500000 0.036350 0.833960 -0.626313
O3    O     O_R   0.963650 0.500000 0.166040 -0.626194
O4    O     O_R   0.036350 0.500000 0.833960 -0.626314
O5    O     O_R   0.000000 0.536350 0.666040 -0.617558
O6    O     O_R   1.000000 0.463650 0.333960 -0.618117
O7    O     O_R   0.536350 1.000000 0.666040 -0.617557
O8    O     O_R   0.463650 0.000000 0.333960 -0.618117
O9    O     O_R   0.000000 0.463650 0.666040 -0.626320
O10   O     O_R   0.000000 0.536350 0.333960 -0.626162
O11   O     O_R   0.463650 1.000000 0.666040 -0.626321
O12   O     O_3   0.500000 1.000000 0.750000 -0.473459
O13   O     O_R   0.536350 0.000000 0.333960 -0.626163
O14   O     O_R   0.448840 0.912530 0.228020 -0.630375
O15   O     O_R   0.551160 0.087470 0.771980 -0.630799
O16   O     O_R   0.912530 0.551160 0.228020 -0.632353
O17   O     O_R   0.087470 0.448840 0.771980 -0.632277
O18   O     O_R   0.551160 0.087470 0.228020 -0.639426
O19   O     O_R   0.448840 0.912530 0.771980 -0.638695
O20   O     O_R   0.087470 0.448840 0.228020 -0.633279
O21   O     O_R   0.912530 0.551160 0.771980 -0.632698
O22   O     O_R   0.448840 0.087470 0.771980 -0.632277
O23   O     O_3   1.000000 0.500000 0.250000 -0.472098
O24   O     O_R   0.551160 0.912530 0.228020 -0.632352
O25   O     O_R   0.912530 0.448840 0.771980 -0.638695
O26   O     O_R   0.087470 0.551160 0.228020 -0.639426
O27   O     O_R   0.551160 0.912530 0.771980 -0.632698
O28   O     O_R   0.448840 0.087470 0.228020 -0.633280
O29   O     O_R   0.087470 0.551160 0.771980 -0.630799
O30   O     O_R   0.912530 0.448840 0.228020 -0.630375
O31   O     O_R   0.948840 0.412530 0.728020 -0.630463
O32   O     O_R   0.051160 0.587470 0.271980 -0.630375
O33   O     O_R   0.412530 0.051160 0.728020 -0.632310
O34   O     O_3   1.000000 0.500000 0.750000 -0.473459
O35   O     O_R   0.587470 0.948840 0.271980 -0.632353
O36   O     O_R   0.051160 0.587470 0.728020 -0.637462
O37   O     O_R   0.948840 0.412530 0.271980 -0.639426
O38   O     O_R   0.587470 0.948840 0.728020 -0.627034
O39   O     O_R   0.412530 0.051160 0.271980 -0.633277
O40   O     O_R   0.948840 0.587470 0.271980 -0.632353
O41   O     O_R   0.051160 0.412530 0.728020 -0.632310
O42   O     O_R   0.412530 0.948840 0.271980 -0.639426
O43   O     O_R   0.587470 0.051160 0.728020 -0.637461
O44   O     O_R   0.051160 0.412530 0.271980 -0.633278
O45   O     O_R   0.500000 0.036350 0.166040 -0.618112
O46   O     O_R   0.948840 0.587470 0.728020 -0.627034
O47   O     O_R   0.587470 0.051160 0.271980 -0.630375
O48   O     O_R   0.412530 0.948840 0.728020 -0.630463
O49   O     O_R   0.500000 0.963650 0.833960 -0.617923
O50   O     O_R   0.036350 0.500000 0.166040 -0.618112
O51   O     O_R   0.963650 0.500000 0.833960 -0.617922
O52   O     O_R   0.500000 0.963650 0.166040 -0.626194
Zn1   Zn    Zn3+2 0.448050 0.000000 0.281500 0.992004
Zn2   Zn    Zn3+2 0.051950 0.500000 0.218500 0.991986
Zn3   Zn    Zn3+2 0.500000 0.051950 0.781500 0.992135
Zn4   Zn    Zn3+2 0.500000 0.948050 0.218500 0.993009
Zn5   Zn    Zn3+2 0.051950 0.500000 0.781500 0.992134
Zn6   Zn    Zn3+2 0.948050 0.500000 0.218500 0.993009
Zn7   Zn    Zn3+2 0.500000 0.948050 0.781500 0.992849
Zn8   Zn    Zn3+2 0.500000 0.051950 0.218500 0.991986
Zn9   Zn    Zn3+2 0.551950 1.000000 0.718500 0.996782
Zn10  Zn    Zn3+2 1.000000 0.551950 0.281500 0.993048
Zn11  Zn    Zn3+2 0.000000 0.448050 0.718500 0.992600
Zn12  Zn    Zn3+2 0.551950 0.000000 0.281500 0.993048
Zn13  Zn    Zn3+2 0.448050 1.000000 0.718500 0.992600
Zn14  Zn    Zn3+2 1.000000 0.448050 0.281500 0.992004
Zn15  Zn    Zn3+2 1.000000 0.551950 0.718500 0.996782
Zn16  Zn    Zn3+2 0.948050 0.500000 0.781500 0.992849

loop_
_geom_bond_atom_site_label_1
_geom_bond_atom_site_label_2
_ccdc_geom_bond_type
C140  H96   S    
C90   C167  S    
C106  H56   S    
C8    O22   A    
C115  H20   S    
C72   Cl29  S    
O37   Zn14  S    
C130  H64   S    
C42   C203  A    
C23   C215  S    
C29   C208  S    
C132  H72   S    
C38   C159  A    
C63   C98   A    
C98   Cl55  S    
C108  H3    S    
C194  C197  A    
C186  Cl8   S    
C72   C101  A    
O43   Zn9   S    
C39   C74   A    
C53   C68   A    
C128  H60   S    
C193  Cl15  S    
C155  C189  A    
C61   C132  S    
C176  C179  A    
C123  H46   S    
C46   C55   A    
O24   Zn4   S    
C219  O10   A    
C2    C16   S    
C120  H36   S    
C139  H92   S    
C36   C71   A    
C87   Cl44  S    
O51   Zn16  S    
C65   C137  S    
O46   Zn15  S    
C106  H34   S    
C34   C105  S    
C128  H59   S    
C50   C121  S    
C135  C163  S    
O30   Zn6   S    
C122  H41   S    
C174  Cl45  S    
O28   Zn8   S    
C171  C185  A    
C36   C106  S    
C1    C6    S    
C221  O13   A    
C175  Cl56  S    
C94   Cl51  S    
C91   C149  A    
C34   C70   A    
C40   C110  S    
C138  H87   S    
C153  C187  A    
O19   Zn7   S    
C111  H13   S    
C10   O31   A    
C95   Cl52  S    
C157  C191  A    
C127  H54   S    
C5    O19   A    
C145  C157  S    
C136  H82   S    
O5    Zn15  S    
C131  H69   S    
C167  C204  A    
C160  C178  A    
C187  Cl9   S    
C219  O6    A    
C170  C224  S    
C99   Cl57  S    
C168  C169  A    
C8    O33   A    
C217  O51   A    
O42   Zn1   S    
C115  H18   S    
C161  C177  A    
C7    O46   A    
C107  H67   S    
C62   C133  S    
O34   Zn16  S    
C40   C181  A    
O1    Zn1   S    
C190  Cl13  S    
C70   C79   A    
C50   C57   A    
C223  O43   A    
C102  Cl59  S    
C45   C81   A    
O22   Zn3   S    
C180  Cl3   S    
C189  C201  A    
C27   C206  S    
C179  Cl2   S    
C25   C213  S    
C41   C76   A    
C13   C45   A    
O39   Zn1   S    
C109  H5    S    
C123  H44   S    
C110  H10   S    
C215  O2    A    
C188  C202  A    
C33   C212  S    
C168  C202  A    
C2    C60   A    
C56   C128  S    
C101  C166  S    
C105  H1    S    
C97   C142  A    
C17   C221  S    
O32   Zn10  S    
C73   Cl30  S    
C49   C120  S    
C60   C95   A    
C15   O36   A    
C39   C109  S    
C44   C116  S    
O20   Zn2   S    
C11   C46   S    
C194  Cl16  S    
C137  H84   S    
O14   Zn4   S    
C64   C136  S    
C166  C172  A    
C18   C220  S    
C174  C182  A    
C142  C161  S    
C61   C96   A    
C67   C103  A    
C143  C160  S    
C126  H52   S    
C98   C124  A    
C118  H30   S    
C49   C84   A    
C155  C183  A    
C121  H38   S    
C107  H89   S    
C58   C129  S    
O1    Zn12  S    
O26   Zn2   S    
O40   Zn10  S    
C7    C112  S    
C129  H61   S    
C218  O5    A    
O9    Zn11  S    
C108  H2    S    
C42   C114  S    
C64   C99   A    
O7    Zn9   S    
C2    C44   A    
C80   C144  A    
O8    Zn1   S    
C10   C35   S    
C215  O49   A    
C67   C139  S    
C134  H79   S    
C13   C56   A    
C116  H21   S    
C120  H37   S    
C163  C199  A    
C141  C162  S    
C21   C217  S    
C79   C103  A    
O10   Zn10  S    
C66   C159  A    
C139  H93   S    
C1    C34   A    
C128  H58   S    
C152  C186  A    
C91   Cl48  S    
C32   C211  S    
C156  C182  A    
C177  Cl63  S    
C63   C170  A    
C109  H7    S    
C172  Cl23  S    
C178  Cl64  S    
C14   O39   A    
C110  H8    S    
C150  C153  S    
C195  C196  A    
C130  H65   S    
C19   C28   T    
C62   C97   A    
C66   C138  S    
C209  C210  T    
C93   C146  A    
C137  H86   S    
C127  H55   S    
O50   Zn2   S    
C53   C125  S    
C12   C57   S    
C105  H12   S    
C55   C127  S    
C15   O29   A    
C133  H74   S    
C12   O38   A    
C88   C151  A    
C162  C196  A    
C103  Cl60  S    
C147  C155  S    
O23   Zn2   S    
C117  H27   S    
C45   C117  S    
C89   C147  A    
C118  H28   S    
C11   O26   A    
C7    O21   A    
C85   Cl42  S    
C115  H19   S    
C5    C203  S    
C121  H40   S    
C175  C180  A    
C76   Cl33  S    
C48   C83   A    
C129  H63   S    
C221  O8    A    
C105  H23   S    
C108  H4    S    
C182  Cl4   S    
O25   Zn16  S    
C69   C140  S    
C100  C101  A    
C1    C67   A    
C154  C190  A    
C189  Cl11  S    
C134  H77   S    
C16   O30   A    
O3    Zn6   S    
O52   Zn4   S    
C95   C144  A    
C202  Cl25  S    
C42   C77   A    
C41   C111  S    
C78   Cl36  S    
C3    O41   A    
C92   Cl49  S    
C43   C214  A    
C139  H91   S    
C25   C33   T    
O23   Zn6   S    
C74   C124  A    
C125  H50   S    
O45   Zn8   S    
C8    C13   S    
C6    O20   A    
C4    C192  S    
C125  H48   S    
O44   Zn14  S    
C152  C188  A    
C4    O18   A    
C122  H42   S    
C30   C209  S    
C224  O40   A    
O36   Zn15  S    
C190  C200  A    
C43   C78   A    
C54   C126  S    
C46   C49   A    
C96   Cl53  S    
O23   Zn14  S    
C58   C93   A    
C169  C186  A    
C37   C107  S    
O21   Zn16  S    
C113  C165  S    
C69   C112  A    
C75   C135  A    
C138  H88   S    
C12   O27   A    
C193  C198  A    
C73   C113  A    
C119  H32   S    
C60   C131  S    
C165  C201  A    
C85   C150  A    
C55   C91   A    
C50   C85   A    
C96   C141  A    
C47   C118  S    
C119  H33   S    
C133  H76   S    
O34   Zn15  S    
C36   C112  A    
C151  C152  S    
C164  C174  A    
O35   Zn12  S    
C59   C94   A    
O48   Zn13  S    
C183  Cl5   S    
C74   Cl31  S    
C76   C141  A    
C106  H45   S    
C195  Cl17  S    
C163  C175  A    
C140  H95   S    
C35   C54   A    
C86   Cl43  S    
C35   C48   A    
C51   C86   A    
C82   C146  A    
C164  C198  A    
C48   C119  S    
C220  O7    A    
C80   Cl37  S    
C207  C208  T    
O12   Zn3   S    
C63   C134  S    
C44   C80   A    
C218  O9    A    
O47   Zn12  S    
C117  H25   S    
C196  Cl18  S    
C157  C180  A    
C122  H43   S    
C158  C179  A    
C132  H71   S    
C216  O50   A    
C211  C212  T    
C99   C135  A    
C222  O42   A    
C65   C148  A    
C3    C181  S    
C88   Cl46  S    
C111  H11   S    
C169  Cl1   S    
C26   C205  S    
C17   C26   T    
C71   Cl28  S    
C188  Cl10  S    
C197  Cl19  S    
C216  O3    A    
C220  O11   A    
C20   C218  S    
C65   C100  A    
O29   Zn5   S    
O34   Zn5   S    
C167  C171  A    
C126  H53   S    
C111  H14   S    
C21   C30   T    
C40   C75   A    
C161  C197  A    
C114  H17   S    
C23   C32   T    
C184  Cl6   S    
C173  Cl34  S    
C102  C113  A    
O27   Zn7   S    
C86   C151  A    
C87   C150  A    
C31   C210  S    
C136  H81   S    
C187  C204  A    
C131  H70   S    
C5    O48   A    
C37   C148  A    
C38   C108  S    
C28   C207  S    
C52   C57   A    
O16   Zn6   S    
C173  C183  A    
C24   C58   A    
C177  C178  A    
C37   C72   A    
O17   Zn5   S    
C51   C122  S    
C14   C68   S    
C213  O45   A    
C134  H80   S    
O11   Zn13  S    
C124  C164  S    
C116  H22   S    
C59   C130  S    
C22   C216  S    
C132  H73   S    
C66   C102  A    
C16   O37   A    
C149  C154  S    
C59   C214  A    
C9    O24   A    
C205  C206  T    
C71   C90   A    
C20   C29   T    
C94   C143  A    
O18   Zn8   S    
C191  C199  A    
C3    O17   A    
C39   C170  A    
O2    Zn3   S    
C52   C123  S    
C120  H35   S    
C162  C176  A    
C109  H6    S    
C165  C173  A    
C222  O14   A    
C110  H9    S    
C130  H66   S    
C47   C82   A    
C148  C222  S    
C77   C142  A    
C114  H15   S    
C191  Cl14  S    
C14   O28   A    
C171  Cl12  S    
O23   Zn10  S    
C154  C184  A    
C11   O32   A    
C61   C192  A    
C79   C168  S    
C137  H85   S    
O12   Zn13  S    
C104  Cl61  S    
C43   C115  S    
C81   Cl38  S    
C201  Cl24  S    
O12   Zn9   S    
C83   Cl40  S    
O13   Zn12  S    
C15   C214  S    
O34   Zn11  S    
C117  H26   S    
C185  Cl7   S    
C118  H29   S    
C140  H94   S    
C22   C31   T    
O33   Zn13  S    
O31   Zn11  S    
C127  H57   S    
C54   C89   A    
C75   Cl32  S    
C200  Cl22  S    
C121  H39   S    
C136  H83   S    
C198  Cl20  S    
C131  H68   S    
C129  H62   S    
O15   Zn3   S    
C97   Cl54  S    
C172  C184  A    
O6    Zn14  S    
C90   C104  A    
C114  H16   S    
C107  H78   S    
C6    O44   A    
C213  O52   A    
C83   C147  A    
C64   C181  A    
C116  H24   S    
O1    Zn4   S    
C81   C145  A    
C77   Cl35  S    
O12   Zn7   S    
C19   C219  S    
C144  C158  S    
C160  C194  A    
C69   C104  A    
C9    O35   A    
C125  H49   S    
C41   C192  A    
C92   C145  A    
C89   Cl47  S    
C24   C47   A    
C52   C87   A    
C18   C27   T    
C4    O47   A    
O4    Zn5   S    
C9    C24   S    
C223  O15   A    
C158  C195  A    
O49   Zn7   S    
O38   Zn9   S    
C156  C193  A    
C204  Cl26  S    
C93   Cl50  S    
C78   C143  A    
C84   C149  A    
C217  O4    A    
C153  C185  A    
C159  C223  S    
C70   Cl27  S    
C10   O25   A    
C119  H31   S    
C84   Cl41  S    
C53   C88   A    
C51   C68   A    
C224  O16   A    
C166  C200  A    
C62   C203  A    
C199  Cl21  S    
C123  H47   S    
C56   C92   A    
C146  C156  S    
C133  H75   S    
O1    Zn8   S    
C100  Cl58  S    
C82   Cl39  S    
O41   Zn11  S    
C176  Cl62  S    
C126  H51   S    
C138  H90   S    
C38   C73   A    
