data_mof_unit_63668.cif
_audit_creation_date              2012-12-10T18:08:43-0500
_audit_creation_method            fapswitch 2.2
_symmetry_space_group_name_H-M    P1
_symmetry_Int_Tables_number       1
_space_group_crystal_system       triclinic
_cell_length_a                    37.00346
_cell_length_b                    18.37896
_cell_length_c                    18.379739
_cell_angle_alpha                 90.000168
_cell_angle_beta                  119.899049
_cell_angle_gamma                 90.000758
_cell_volume                      10836.1279948

loop_
_atom_site_label
_atom_site_type_symbol
_atom_type_description
_atom_site_fract_x
_atom_site_fract_y
_atom_site_fract_z
_atom_type_partial_charge
C1    C     C_R   0.500042 1.000000 0.360182 0.842394
C2    C     C_R   0.499958 0.000000 0.639818 0.842393
C3    C     C_R   0.000042 0.500000 0.360182 0.842373
C4    C     C_R   0.999958 0.500000 0.639818 0.842400
C5    C     C_1   0.837645 0.000533 0.834887 -0.069599
C6    C     C_1   0.162355 0.000548 0.165111 -0.069587
C7    C     C_1   0.337645 0.499230 0.834916 -0.069553
C8    C     C_1   0.662354 0.500446 0.165120 -0.069606
C9    C     C_1   0.662339 0.999810 0.658793 -0.069323
C10   C     C_1   0.337661 0.999818 0.341208 -0.069307
C11   C     C_1   0.162339 0.500017 0.658773 -0.069286
C12   C     C_1   0.837661 0.499744 0.341196 -0.069334
C13   C     C_1   0.624741 0.999962 0.623322 -0.178803
C14   C     C_1   0.375259 0.999961 0.376678 -0.178797
C15   C     C_1   0.124741 0.500004 0.623312 -0.178779
C16   C     C_1   0.875259 0.499946 0.376673 -0.178810
C17   C     C_1   0.500086 0.999999 0.282762 -0.176732
C18   C     C_1   0.499913 0.000000 0.717238 -0.176729
C19   C     C_1   0.000086 0.500000 0.282762 -0.176727
C20   C     C_1   0.999914 0.500000 0.717238 -0.176734
C21   C     C_1   0.500094 0.999999 0.217526 -0.175883
C22   C     C_1   0.499906 0.000000 0.782474 -0.175879
C23   C     C_1   0.000094 0.500000 0.217526 -0.175876
C24   C     C_1   0.999906 0.500000 0.782474 -0.175888
C25   C     C_R   1.000000 0.139691 1.000000 0.841699
C26   C     C_R   0.000000 0.860309 0.000000 0.842554
C27   C     C_R   0.500001 0.639691 0.000002 0.842131
C28   C     C_R   0.499998 0.360309 0.999998 0.842111
C29   C     C_R   0.920010 0.000018 0.919885 0.824540
C30   C     C_R   0.079990 0.000018 0.080115 0.824541
C31   C     C_R   0.420010 0.499984 0.919885 0.824532
C32   C     C_R   0.579990 0.500018 0.080115 0.824546
C33   C     C_R   0.500000 0.859967 0.000000 0.846009
C34   C     C_R   0.500000 0.140033 1.000000 0.845989
C35   C     C_R   1.000000 0.359966 1.000000 0.846013
C36   C     C_R   0.000000 0.640033 0.000000 0.845983
C37   C     C_R   0.500034 1.000000 0.139998 0.846321
C38   C     C_R   0.499966 0.000000 0.860002 0.846325
C39   C     C_R   0.000034 0.500000 0.139998 0.846321
C40   C     C_R   0.999966 0.500000 0.860002 0.846323
C41   C     C_1   0.999999 0.217194 1.000000 -0.177520
C42   C     C_1   0.000001 0.782805 0.000000 -0.177182
C43   C     C_1   0.500001 0.717194 0.000002 -0.177334
C44   C     C_1   0.499999 0.282805 0.999998 -0.177375
C45   C     C_R   0.579990 0.999998 0.580003 0.824528
C46   C     C_R   0.420010 0.999997 0.419996 0.824527
C47   C     C_R   0.079990 0.500001 0.580002 0.824489
C48   C     C_R   0.920010 0.499996 0.419996 0.824542
C49   C     C_1   0.500000 0.782462 0.000001 -0.175789
C50   C     C_1   0.500000 0.217538 0.999999 -0.175808
C51   C     C_1   0.999999 0.282462 0.999999 -0.175824
C52   C     C_1   0.000001 0.717538 0.000001 -0.175775
C53   C     C_3   0.725260 0.069653 0.678306 0.035172
C54   C     C_3   0.274146 0.927749 0.316413 0.046765
C55   C     C_3   0.274742 0.069876 0.321355 0.035042
C56   C     C_3   0.725852 0.927549 0.683939 0.046619
C57   C     C_3   0.225863 0.569301 0.678847 0.046761
C58   C     C_3   0.774150 0.426538 0.314246 0.046585
C59   C     C_3   0.774738 0.568473 0.323401 0.035181
C60   C     C_3   0.225248 0.427202 0.683391 0.035055
C61   C     C_3   0.774750 0.932189 0.725774 0.034169
C62   C     C_3   0.225849 0.074243 0.264742 0.044975
C63   C     C_3   0.225247 0.932428 0.274555 0.034109
C64   C     C_3   0.774153 0.074054 0.734898 0.044906
C65   C     C_3   0.274140 0.423326 0.740279 0.045066
C66   C     C_3   0.725844 0.573052 0.266921 0.044904
C67   C     C_3   0.725251 0.430989 0.272523 0.034177
C68   C     C_3   0.274761 0.564128 0.721032 0.034073
C69   C     C_1   0.875250 0.000238 0.874503 -0.179103
C70   C     C_1   0.124750 0.000244 0.125496 -0.179099
C71   C     C_1   0.375250 0.499670 0.874510 -0.179085
C72   C     C_1   0.624750 0.500203 0.125498 -0.179107
C73   C     C_3   0.708447 0.999618 0.701175 0.240580
C74   C     C_3   0.291553 0.999647 0.298826 0.240569
C75   C     C_3   0.208447 0.499915 0.701150 0.240553
C76   C     C_3   0.791553 0.499450 0.298807 0.240587
C77   C     C_3   0.791537 0.000875 0.784699 0.240632
C78   C     C_3   0.208463 0.000908 0.215297 0.240623
C79   C     C_3   0.291536 0.498628 0.784762 0.240600
C80   C     C_3   0.708463 0.500696 0.215315 0.240639
C81   C     C_3   0.774111 0.995758 0.846187 -0.524666
C82   C     C_3   0.225889 0.995403 0.153835 -0.524667
C83   C     C_3   0.274112 0.509405 0.845682 -0.524709
C84   C     C_3   0.725889 0.497544 0.153724 -0.524660
C85   C     C_3   0.725820 0.002125 0.797762 -0.527255
C86   C     C_3   0.274179 0.001767 0.202228 -0.527258
C87   C     C_3   0.225821 0.503082 0.797713 -0.527257
C88   C     C_3   0.774179 0.503918 0.202307 -0.527249
Cu1   Cu    Cu3+1 0.500000 0.072550 0.500000 0.959301
Cu2   Cu    Cu3+1 0.500000 0.927450 0.500000 0.958112
Cu3   Cu    Cu3+1 0.000000 0.572550 0.500000 0.958713
Cu4   Cu    Cu3+1 0.000000 0.427450 0.500000 0.958715
Cu5   Cu    Cu3+1 0.000010 0.000000 0.927480 0.958633
Cu6   Cu    Cu3+1 0.999990 0.000000 0.072520 0.958632
Cu7   Cu    Cu3+1 0.500010 0.500000 0.927480 0.958659
Cu8   Cu    Cu3+1 0.499990 0.500000 0.072520 0.958611
Cu9   Cu    Cu3+1 0.541320 0.000000 0.041310 0.957323
Cu10  Cu    Cu3+1 0.458680 0.000000 0.958690 0.957343
Cu11  Cu    Cu3+1 0.041320 0.500000 0.041310 0.957334
Cu12  Cu    Cu3+1 0.958680 0.500000 0.958690 0.957321
H1    H     H_    0.719808 0.883867 0.718710 0.130134
H2    H     H_    0.287586 0.117090 0.303367 0.126240
H3    H     H_    0.280188 0.883868 0.281854 0.130149
H4    H     H_    0.712418 0.117018 0.696063 0.126243
H5    H     H_    0.212397 0.382162 0.704458 0.126219
H6    H     H_    0.787578 0.616587 0.306828 0.126251
H7    H     H_    0.780196 0.383885 0.278404 0.130107
H8    H     H_    0.219828 0.615802 0.710390 0.130189
H9    H     H_    0.787562 0.883835 0.767733 0.124906
H10   H     H_    0.219848 0.116345 0.216237 0.129296
H11   H     H_    0.212434 0.883932 0.232832 0.124928
H12   H     H_    0.780156 0.116363 0.783197 0.129310
H13   H     H_    0.280136 0.384154 0.791496 0.129342
H14   H     H_    0.719840 0.616397 0.219684 0.129301
H15   H     H_    0.712442 0.383370 0.229374 0.124911
H16   H     H_    0.287582 0.614438 0.759458 0.124928
H17   H     H_    0.716492 0.053911 0.815285 0.188490
H18   H     H_    0.287577 0.956663 0.182671 0.192707
H19   H     H_    0.283509 0.053419 0.184454 0.188477
H20   H     H_    0.712422 0.957184 0.817538 0.192688
H21   H     H_    0.212431 0.550297 0.814189 0.192772
H22   H     H_    0.787579 0.459818 0.181427 0.192656
H23   H     H_    0.783505 0.556356 0.186076 0.188523
H24   H     H_    0.216483 0.453362 0.818870 0.188418
H25   H     H_    0.787483 0.039581 0.894321 0.193149
H26   H     H_    0.216579 0.942635 0.119568 0.188576
H27   H     H_    0.212518 0.039055 0.105488 0.193134
H28   H     H_    0.783419 0.943113 0.880710 0.188553
H29   H     H_    0.283430 0.563716 0.876374 0.188507
H30   H     H_    0.716583 0.445539 0.117903 0.188572
H31   H     H_    0.712515 0.542213 0.106687 0.193125
H32   H     H_    0.287476 0.468177 0.896861 0.193211
O1    O     O_R   0.500010 0.061270 0.394200 -0.582674
O2    O     O_R   0.499990 0.938730 0.605800 -0.582705
O3    O     O_R   0.499990 0.061270 0.605800 -0.582642
O4    O     O_R   0.500010 0.938730 0.394200 -0.582670
O5    O     O_R   0.000010 0.561270 0.394200 -0.582765
O6    O     O_R   0.999990 0.438730 0.605800 -0.582716
O7    O     O_R   0.999990 0.561270 0.605800 -0.582615
O8    O     O_R   0.000010 0.438730 0.394200 -0.582603
O9    O     O_R   0.560280 0.061270 0.560280 -0.581681
O10   O     O_R   0.439720 0.938730 0.439720 -0.582793
O11   O     O_R   0.439720 0.061270 0.439720 -0.581662
O12   O     O_R   0.560280 0.938730 0.560280 -0.582779
O13   O     O_R   0.060280 0.561270 0.560280 -0.582749
O14   O     O_R   0.939720 0.438730 0.439720 -0.582842
O15   O     O_R   0.939720 0.561270 0.439720 -0.581637
O16   O     O_R   0.060280 0.438730 0.560280 -0.581654
O17   O     O_R   0.000000 0.105620 0.938740 -0.582391
O18   O     O_R   0.000000 0.894380 0.061260 -0.582300
O19   O     O_R   0.000000 0.105620 0.061260 -0.582399
O20   O     O_R   0.000000 0.894380 0.938740 -0.582306
O21   O     O_R   0.500000 0.605620 0.938740 -0.582274
O22   O     O_R   0.500000 0.394380 0.061260 -0.582295
O23   O     O_R   0.500000 0.605620 0.061260 -0.582414
O24   O     O_R   0.500000 0.394380 0.938740 -0.582400
O25   O     O_R   0.939730 0.000000 0.878470 -0.582496
O26   O     O_R   0.060270 0.000000 0.121530 -0.582494
O27   O     O_R   0.439730 0.500000 0.878470 -0.582461
O28   O     O_R   0.560270 0.500000 0.121530 -0.582509
O29   O     O_R   0.939720 0.000000 0.000940 -0.581462
O30   O     O_R   0.060280 0.000000 0.999060 -0.581463
O31   O     O_R   0.439720 0.500000 0.000940 -0.581483
O32   O     O_R   0.560280 0.500000 0.999060 -0.581458
O33   O     O_R   0.534900 0.894160 0.034870 -0.584944
O34   O     O_R   0.465100 0.105840 0.965130 -0.584950
O35   O     O_R   0.465100 0.894160 0.965130 -0.584946
O36   O     O_R   0.534900 0.105840 0.034870 -0.584953
O37   O     O_R   0.034900 0.394160 0.034870 -0.584960
O38   O     O_R   0.965100 0.605840 0.965130 -0.584975
O39   O     O_R   0.965100 0.394160 0.965130 -0.584925
O40   O     O_R   0.034900 0.605840 0.034870 -0.584935
O41   O     O_R   0.534890 0.000000 0.140680 -0.584907
O42   O     O_R   0.465110 0.000000 0.859320 -0.584897
O43   O     O_R   0.034890 0.500000 0.140680 -0.584893
O44   O     O_R   0.965110 0.500000 0.859320 -0.584907
O45   O     O_R   0.465110 0.000000 0.070890 -0.584922
O46   O     O_R   0.534890 0.000000 0.929110 -0.584929
O47   O     O_R   0.965110 0.500000 0.070890 -0.584929
O48   O     O_R   0.034890 0.500000 0.929110 -0.584925
C89   C     C_3   0.797869 0.104772 0.692163 -0.856801
H33   H     H_    0.796455 0.069146 0.642595 0.249098
H34   H     H_    0.784853 0.158670 0.664000 0.229647
H35   H     H_    0.831185 0.113797 0.739157 0.234013
C90   C     C_3   0.208411 0.924510 0.336019 -0.840903
H36   H     H_    0.225562 0.958633 0.392482 0.240327
H37   H     H_    0.174774 0.938143 0.305300 0.239739
H38   H     H_    0.211657 0.867139 0.357376 0.224688
C91   C     C_3   0.202135 0.105288 0.307327 -0.856984
H39   H     H_    0.168819 0.114247 0.260289 0.233972
H40   H     H_    0.203548 0.069898 0.357068 0.249099
H41   H     H_    0.215152 0.159259 0.335226 0.229653
C92   C     C_3   0.791586 0.923887 0.664350 -0.841054
H42   H     H_    0.774436 0.957817 0.607721 0.240347
H43   H     H_    0.825224 0.937503 0.695003 0.239716
H44   H     H_    0.788338 0.866428 0.643271 0.224651
C93   C     C_3   0.291597 0.566783 0.659214 -0.840721
H45   H     H_    0.274442 0.530120 0.605114 0.240273
H46   H     H_    0.288359 0.622817 0.634071 0.224682
H47   H     H_    0.325233 0.552963 0.690850 0.239914
C94   C     C_3   0.708416 0.420741 0.333717 -0.841088
H48   H     H_    0.725565 0.453686 0.391175 0.240355
H49   H     H_    0.674777 0.434271 0.303400 0.239643
H50   H     H_    0.711666 0.362859 0.353365 0.224698
C95   C     C_3   0.702128 0.602105 0.310397 -0.856802
H51   H     H_    0.668812 0.611459 0.263631 0.234124
H52   H     H_    0.703543 0.565295 0.359066 0.249101
H53   H     H_    0.715142 0.655613 0.339892 0.229592
C96   C     C_3   0.297850 0.387906 0.699912 -0.857172
H54   H     H_    0.296442 0.419988 0.647919 0.249081
H55   H     H_    0.331165 0.379862 0.747518 0.233679
H56   H     H_    0.284826 0.333070 0.675644 0.229728
C97   C     C_3   0.708488 0.080518 0.583427 -0.840662
H57   H     H_    0.725688 0.047932 0.560215 0.240243
H58   H     H_    0.674859 0.066963 0.546041 0.237213
H59   H     H_    0.711724 0.138538 0.570772 0.224973
C98   C     C_3   0.297806 0.899592 0.407875 -0.859264
H60   H     H_    0.296327 0.936996 0.453166 0.248566
H61   H     H_    0.284799 0.846279 0.411897 0.229915
H62   H     H_    0.331141 0.890117 0.428223 0.235492
C99   C     C_3   0.291515 0.081124 0.416180 -0.840357
H63   H     H_    0.274314 0.048738 0.439550 0.240207
H64   H     H_    0.325143 0.067586 0.453632 0.237233
H65   H     H_    0.288280 0.139221 0.428553 0.225122
C100  C     C_3   0.702190 0.899060 0.592614 -0.858914
H66   H     H_    0.668855 0.889652 0.572311 0.235527
H67   H     H_    0.703671 0.936234 0.547143 0.248541
H68   H     H_    0.715195 0.845664 0.588852 0.230038
C101  C     C_3   0.202206 0.592879 0.585658 -0.859287
H69   H     H_    0.203680 0.552432 0.542967 0.248595
H70   H     H_    0.168873 0.603219 0.564651 0.235167
H71   H     H_    0.215219 0.644926 0.578119 0.229984
C102  C     C_3   0.797812 0.396384 0.404844 -0.858844
H72   H     H_    0.796330 0.432380 0.451223 0.248531
H73   H     H_    0.784809 0.342585 0.407276 0.230045
H74   H     H_    0.831148 0.387310 0.424918 0.235636
C103  C     C_3   0.791509 0.577400 0.418526 -0.840702
H75   H     H_    0.774311 0.543817 0.440917 0.240270
H76   H     H_    0.825139 0.563764 0.455575 0.237142
H77   H     H_    0.788272 0.635007 0.432615 0.224947
C104  C     C_3   0.208474 0.410776 0.589490 -0.840333
H78   H     H_    0.174847 0.424052 0.551144 0.237456
H79   H     H_    0.225679 0.440368 0.564052 0.240145
H80   H     H_    0.211700 0.351764 0.581026 0.225087

loop_
_geom_bond_atom_site_label_1
_geom_bond_atom_site_label_2
_ccdc_geom_bond_type
C27   O21   A    
C83   C87   S    
C47   O13   A    
Cu5   Cu6   S    
C65   C79   S    
C2    C18   S    
C35   O39   A    
C94   H48   S    
Cu5   O17   S    
Cu7   Cu8   S    
C15   C47   S    
C80   C84   S    
C58   C102  S    
Cu4   O6    S    
C16   C48   S    
Cu3   O15   S    
Cu9   Cu10  S    
C90   H36   S    
C58   C76   S    
C14   C46   S    
C89   H33   S    
C98   H62   S    
C97   H59   S    
C55   H2    S    
C60   C104  S    
C101  H69   S    
C56   C100  S    
C31   O27   A    
Cu7   O27   S    
C59   C103  S    
C58   H7    S    
C56   H1    S    
C83   H29   S    
C99   H65   S    
C38   O46   A    
C59   C66   S    
C7    C71   T    
C87   H24   S    
Cu10  O42   S    
C53   C64   S    
C23   C39   S    
C90   H37   S    
Cu8   O23   S    
Cu4   O16   S    
C54   C63   S    
C93   H45   S    
C53   H4    S    
C33   C49   S    
C22   C38   S    
C48   O15   A    
C100  H68   S    
C57   C101  S    
C30   O26   A    
C6    C78   S    
C25   O17   A    
C104  H78   S    
C64   C77   S    
C84   H30   S    
C91   H40   S    
C9    C13   T    
C82   H26   S    
C5    C69   T    
C100  H67   S    
C54   C74   S    
C55   C74   S    
C11   C15   T    
Cu1   O9    S    
Cu8   O22   S    
C12   C16   T    
C91   H41   S    
C61   C77   S    
C79   C83   S    
C48   O14   A    
Cu12  O44   S    
C45   O12   A    
C3    C19   S    
C86   H19   S    
C3    O5    A    
C1    O4    A    
C102  H72   S    
C76   C88   S    
C98   H61   S    
C65   C96   S    
Cu10  O35   S    
C36   C52   S    
C81   C85   S    
C55   C99   S    
C68   C79   S    
C31   C71   S    
C61   H9    S    
Cu6   O26   S    
C59   C76   S    
C40   O48   A    
C103  H75   S    
Cu12  O39   S    
C45   O9    A    
C94   H49   S    
C33   O35   A    
C9    C73   S    
C88   H23   S    
C1    O1    A    
C85   H20   S    
C37   O41   A    
C30   C70   S    
C100  H66   S    
C62   C91   S    
C29   C69   S    
C89   H34   S    
C27   O23   A    
Cu5   O25   S    
C31   O31   A    
C8    C72   T    
C59   H6    S    
Cu1   O1    S    
C46   O10   A    
Cu12  O38   S    
C29   O29   A    
C54   H3    S    
C26   O18   A    
Cu9   O41   S    
C84   H31   S    
C32   C72   S    
C10   C14   T    
C25   C41   S    
Cu3   Cu4   S    
C87   H21   S    
C66   C95   S    
C43   C49   T    
C90   H38   S    
C29   O25   A    
Cu11  O40   S    
C63   C90   S    
Cu6   O19   S    
C97   H57   S    
Cu4   O14   S    
C28   C44   S    
C17   C21   T    
C68   C93   S    
C104  H79   S    
C93   H47   S    
C19   C23   T    
C99   H63   S    
C67   C94   S    
Cu2   O4    S    
C78   C82   S    
Cu11  Cu12  S    
C62   H10   S    
C77   C81   S    
C92   H44   S    
C28   O24   A    
C92   H43   S    
C96   H54   S    
C36   O40   A    
Cu11  O43   S    
C86   H18   S    
Cu2   O10   S    
Cu12  O47   S    
Cu7   O24   S    
Cu10  O45   S    
C85   H17   S    
C102  H73   S    
Cu6   O29   S    
C73   C85   S    
Cu10  O34   S    
Cu1   O3    S    
C68   H16   S    
Cu3   O7    S    
C64   C89   S    
C95   H51   S    
C75   C87   S    
Cu8   O28   S    
C60   C65   S    
C92   H42   S    
C82   C86   S    
C103  H76   S    
C81   H28   S    
C35   C51   S    
C35   O37   A    
C94   H50   S    
C53   C73   S    
Cu6   O18   S    
C63   H11   S    
C30   O30   A    
C57   C68   S    
C5    C77   S    
Cu4   O8    S    
C61   C92   S    
C12   C76   S    
Cu3   O13   S    
C37   O45   A    
C26   C42   S    
C54   C98   S    
C7    C79   S    
C95   H53   S    
C44   C50   T    
C6    C70   T    
Cu3   O5    S    
C47   O16   A    
C96   H55   S    
C53   C97   S    
C56   C73   S    
C66   H14   S    
C88   H22   S    
C81   H25   S    
C18   C22   T    
C65   H13   S    
C62   C78   S    
C33   O33   A    
C67   C80   S    
C84   C88   S    
C39   O43   A    
C34   C50   S    
C39   O47   A    
C2    O2    A    
C46   O11   A    
Cu11  O37   S    
C74   C86   S    
Cu9   O36   S    
C66   C80   S    
C40   O44   A    
C60   C75   S    
C36   O38   A    
C2    O3    A    
Cu8   O31   S    
C25   O19   A    
C104  H80   S    
C57   C75   S    
C93   H46   S    
C98   H60   S    
C97   H58   S    
C83   H32   S    
C101  H70   S    
Cu1   O11   S    
Cu7   O32   S    
C4    O7    A    
C13   C45   S    
C10   C74   S    
Cu9   O46   S    
Cu5   O30   S    
Cu2   O2    S    
C89   H35   S    
C32   O32   A    
C26   O20   A    
C24   C40   S    
C41   C51   T    
C34   O36   A    
C91   H39   S    
C102  H74   S    
C67   H15   S    
C82   H27   S    
C64   H12   S    
C38   O42   A    
C4    O6    A    
C101  H71   S    
C4    C20   S    
C28   O22   A    
C27   C43   S    
C58   C67   S    
Cu11  O48   S    
C57   H8    S    
C21   C37   S    
C1    C17   S    
C99   H64   S    
C55   C62   S    
C103  H77   S    
Cu9   O33   S    
C8    C80   S    
C56   C61   S    
Cu5   O20   S    
C11   C75   S    
C3    O8    A    
Cu7   O21   S    
Cu1   Cu2   S    
C34   O34   A    
C95   H52   S    
C96   H56   S    
C20   C24   T    
Cu2   O12   S    
C60   H5    S    
C42   C52   T    
C32   O28   A    
C63   C78   S    
