data_mof_unit_61510.cif
_audit_creation_date              2012-10-26T17:48:00-0400
_audit_creation_method            fapswitch 2.2
_symmetry_space_group_name_H-M    P1
_symmetry_Int_Tables_number       1
_space_group_crystal_system       triclinic
_cell_length_a                    18.950988
_cell_length_b                    18.908426
_cell_length_c                    19.067228
_cell_angle_alpha                 109.48077
_cell_angle_beta                  110.033684
_cell_angle_gamma                 109.238252
_cell_volume                      5237.28030954

loop_
_atom_site_label
_atom_site_type_symbol
_atom_type_description
_atom_site_fract_x
_atom_site_fract_y
_atom_site_fract_z
_atom_type_partial_charge
C1    C     C_R   0.384824 0.382068 0.501924 0.567772
C2    C     C_2   0.185560 0.508726 0.183311 -0.020547
C3    C     C_2   0.251182 0.514695 0.324108 -0.168037
C4    C     C_R   0.617420 0.499051 0.618789 0.557013
C5    C     C_2   0.300134 0.480226 0.311444 -0.106976
C6    C     C_2   0.740829 0.750101 0.425337 -0.161519
C7    C     C_2   0.818474 0.810352 0.496267 -0.111435
C8    C     C_2   0.679971 0.677145 0.425135 -0.160276
C9    C     C_2   0.677091 0.687077 0.496886 -0.114466
C10   C     C_R   0.993173 0.382068 0.876046 0.559525
C11   C     C_R   0.875308 0.499046 0.874566 0.555966
C12   C     C_3   0.806443 0.498455 0.806324 0.021408
C13   C     C_R   0.996306 0.617668 0.113562 0.556078
C14   C     C_R   0.113780 0.501692 0.113973 0.546641
C15   C     C_R   0.001213 0.119623 0.616411 0.546967
C16   C     C_R   0.615387 0.617967 0.498374 0.558478
C17   C     C_R   0.117372 0.120149 0.502704 0.552992
C18   C     C_R   0.003157 0.884865 0.383524 0.553082
C19   C     C_R   0.882634 0.880677 0.498209 0.553217
C20   C     C_2   0.000291 0.257247 0.677788 -0.052780
C21   C     C_2   0.007468 0.190758 0.684330 -0.136293
C22   C     C_2   0.011430 0.328238 0.751500 -0.159431
C23   C     C_3   0.844084 0.542152 0.760332 -0.121140
C24   C     C_2   0.986165 0.313516 0.805246 -0.132852
C25   C     C_2   0.077485 0.824634 0.317556 -0.042622
C26   C     C_2   0.004660 0.822410 0.314751 -0.120039
C27   C     C_2   0.071914 0.762421 0.241110 -0.167336
C28   C     C_R   0.376805 0.494721 0.380994 0.559742
C29   C     C_2   0.003196 0.682019 0.187882 -0.138601
C30   C     C_3   0.662385 0.403096 0.663778 -0.113794
C31   C     C_3   0.732515 0.403654 0.736188 -0.232372
C32   C     C_3   0.772336 0.544506 0.692524 -0.256993
C33   C     C_3   0.694325 0.547246 0.776361 -0.227647
C34   C     C_3   0.769509 0.552388 0.847905 -0.126925
C35   C     C_3   0.684557 0.498134 0.686803 0.011410
C36   C     C_R   0.275066 0.271755 0.666166 0.058791
C37   C     C_R   0.351470 0.277397 0.720120 -0.081124
C38   C     C_R   0.371205 0.291878 0.803089 -0.115748
C39   C     C_R   0.315471 0.301971 0.833100 -0.103996
C40   C     C_R   0.239889 0.297587 0.780177 -0.101341
C41   C     C_R   0.219656 0.282573 0.696972 -0.065340
C42   C     C_R   0.269125 0.537549 0.183496 0.040747
C43   C     C_R   0.273266 0.485792 0.114050 -0.087865
C44   C     C_R   0.351182 0.512103 0.113594 -0.109495
C45   C     C_2   0.255724 0.259206 0.579311 -0.036199
C46   C     C_R   0.425241 0.590526 0.181965 -0.101684
C47   C     C_R   0.421325 0.643175 0.250536 -0.109500
C48   C     C_R   0.343474 0.617288 0.251120 -0.077660
C49   C     C_1   0.574729 0.349722 0.646350 0.171758
C50   C     C_1   0.989153 0.265735 0.602595 0.236801
C51   C     C_1   0.162736 0.891845 0.390808 0.232411
C52   C     C_1   0.883031 0.498423 0.719810 0.195830
C53   C     C_R   0.745205 0.533651 0.911116 0.044468
C54   C     C_R   0.795206 0.596924 0.999601 -0.073888
C55   C     C_R   0.772122 0.583563 0.058224 -0.096046
C56   C     C_2   0.182059 0.191738 0.506173 -0.101404
C57   C     C_R   0.699732 0.506587 0.029885 -0.096951
C58   C     C_R   0.649264 0.443423 0.942545 -0.109204
C59   C     C_R   0.671067 0.457055 0.883389 -0.080734
C60   C     C_2   0.315623 0.329128 0.575080 -0.144750
C61   C     C_2   0.324887 0.313629 0.505784 -0.106117
C62   C     C_2   0.179010 0.503072 0.249906 -0.164918
Cu1   Cu    Cu3+1 0.500730 0.439000 0.439690 0.948264
Cu2   Cu    Cu3+1 0.499270 0.561000 0.560310 0.934708
Cu3   Cu    Cu3+1 0.933160 0.439090 0.994150 0.947580
Cu4   Cu    Cu3+1 0.055180 0.561040 0.994050 0.950537
Cu5   Cu    Cu3+1 0.061740 0.000000 0.561740 0.978710
Cu6   Cu    Cu3+1 0.938260 0.000000 0.438260 0.967707
H1    H     H_    0.662845 0.371454 0.603252 0.136340
H2    H     H_    0.281797 0.436837 0.246085 0.124863
H3    H     H_    0.723609 0.751341 0.365414 0.141162
H4    H     H_    0.839411 0.803781 0.553235 0.108587
H5    H     H_    0.634249 0.616319 0.364500 0.143889
H6    H     H_    0.715751 0.750490 0.554933 0.106324
H7    H     H_    0.026849 0.192325 0.745690 0.090703
H8    H     H_    0.036523 0.392552 0.758980 0.169460
H9    H     H_    0.953271 0.248035 0.793325 0.108598
H10   H     H_    0.704880 0.368993 0.765326 0.139433
H11   H     H_    0.942836 0.778345 0.254713 0.083357
H12   H     H_    0.822801 0.621264 0.885824 0.098636
H13   H     H_    0.126343 0.781755 0.230534 0.152460
H14   H     H_    0.953270 0.659656 0.203533 0.104361
H15   H     H_    0.759601 0.366246 0.707412 0.122520
H16   H     H_    0.765411 0.513935 0.627654 0.141562
H17   H     H_    0.708514 0.614475 0.792421 0.127632
H18   H     H_    0.631645 0.515008 0.773210 0.138411
H19   H     H_    0.395352 0.270082 0.697780 0.146305
H20   H     H_    0.429774 0.295442 0.844193 0.102327
H21   H     H_    0.331033 0.313559 0.897473 0.103927
H22   H     H_    0.197259 0.306269 0.803840 0.108983
H23   H     H_    0.790838 0.613190 0.711430 0.106412
H24   H     H_    0.161478 0.280282 0.656866 0.108911
H25   H     H_    0.216393 0.424741 0.060828 0.100293
H26   H     H_    0.354167 0.471617 0.060269 0.103863
H27   H     H_    0.485570 0.610673 0.181647 0.106719
H28   H     H_    0.478603 0.704125 0.303188 0.115322
H29   H     H_    0.341163 0.658986 0.304335 0.119699
H30   H     H_    0.851807 0.657273 0.023449 0.091707
H31   H     H_    0.810003 0.633206 0.125675 0.092144
H32   H     H_    0.682160 0.496322 0.075449 0.105576
H33   H     H_    0.592349 0.384269 0.920372 0.099689
H34   H     H_    0.896874 0.610280 0.809106 0.120496
H35   H     H_    0.628071 0.408603 0.816064 0.117317
H36   H     H_    0.164520 0.191877 0.445723 0.095943
H37   H     H_    0.355084 0.393916 0.631405 0.150223
H38   H     H_    0.292384 0.247859 0.452677 0.111674
H39   H     H_    0.120432 0.494175 0.252338 0.140946
H40   H     H_    0.263253 0.551040 0.388660 0.152494
N1    N     N_1   0.505962 0.307798 0.632404 -0.325933
N2    N     N_1   0.980371 0.272636 0.542540 -0.280059
N3    N     N_1   0.230936 0.945652 0.449378 -0.282000
N4    N     N_1   0.913488 0.464191 0.688214 -0.295685
O1    O     O_R   0.411600 0.359460 0.449080 -0.501554
O2    O     O_R   0.946790 0.089000 0.535860 -0.486064
O3    O     O_R   0.141150 0.089030 0.552120 -0.484793
O4    O     O_R   0.410370 0.462480 0.550940 -0.509329
O5    O     O_R   0.036880 0.089030 0.447850 -0.505654
O6    O     O_R   0.053210 0.911000 0.464140 -0.488031
O7    O     O_R   0.948930 0.911000 0.359870 -0.515534
O8    O     O_R   0.963120 0.910970 0.552150 -0.509862
O9    O     O_R   0.858850 0.910970 0.447880 -0.505503
O10   O     O_R   0.590700 0.448490 0.539150 -0.512837
O11   O     O_R   0.589460 0.551510 0.641010 -0.519936
O12   O     O_R   0.046690 0.462500 0.906070 -0.500041
O13   O     O_R   0.589630 0.537520 0.449060 -0.502425
O14   O     O_R   0.588400 0.640540 0.550920 -0.507441
O15   O     O_R   0.410540 0.448490 0.358990 -0.511483
O16   O     O_R   0.409300 0.551510 0.460850 -0.504003
O17   O     O_R   0.943650 0.359510 0.906150 -0.508775
O18   O     O_R   0.852560 0.448570 0.904070 -0.505163
O19   O     O_R   0.955610 0.551560 0.903980 -0.514864
O20   O     O_R   0.941640 0.537630 0.082140 -0.500589
O21   O     O_R   0.044680 0.640620 0.082050 -0.508785
O22   O     O_R   0.032730 0.448570 0.084230 -0.511666
O23   O     O_R   0.135770 0.551560 0.084140 -0.501617
O24   O     O_R   0.051070 0.089000 0.640130 -0.512195

loop_
_geom_bond_atom_site_label_1
_geom_bond_atom_site_label_2
_ccdc_geom_bond_type
C45   C60   S    
Cu2   O4    S    
C27   C29   D    
C18   C26   S    
C22   H8    S    
C43   C44   A    
C30   H1    S    
Cu3   O18   S    
C53   C59   A    
C53   C54   A    
C48   H29   S    
C12   C23   S    
C5    H2    S    
C30   C35   S    
C13   C29   S    
C36   C37   A    
C9    C16   S    
C10   O12   A    
Cu6   O7    S    
C30   C31   S    
C23   H34   S    
C14   O23   A    
C52   N4    T    
Cu4   O21   S    
C50   N2    T    
C31   H15   S    
Cu5   O3    S    
C20   C50   S    
C34   H12   S    
C46   C47   A    
C46   H27   S    
C45   C56   D    
C8    C9    D    
Cu2   O16   S    
C47   H28   S    
C1    O4    A    
Cu5   O8    S    
C18   O6    A    
Cu3   O22   S    
C28   O15   A    
C17   O5    A    
C4    C35   S    
C36   C41   A    
C1    O1    A    
C44   C46   A    
C57   C58   A    
C6    H3    S    
C32   H16   S    
Cu5   Cu6   S    
C32   C35   S    
C27   H13   S    
C56   H36   S    
C7    H4    S    
C6    C8    S    
C62   H39   S    
C14   O22   A    
C10   C24   S    
C25   C26   D    
C57   H32   S    
Cu1   Cu2   S    
C4    O11   A    
C38   H20   S    
C60   C61   D    
Cu1   O1    S    
C33   H18   S    
C25   C51   S    
C37   C38   A    
Cu6   O5    S    
C5    C28   S    
C47   C48   A    
C33   C34   S    
C15   O2    A    
C4    O10   A    
C36   C45   S    
C58   H33   S    
C42   C48   A    
C61   H38   S    
C17   C56   S    
Cu1   O13   S    
C40   C41   A    
C30   C49   S    
C20   C22   S    
C19   O8    A    
C7    C19   S    
C55   C57   A    
C12   C31   S    
Cu4   O12   S    
C42   C43   A    
C12   C34   S    
C11   O18   A    
C39   C40   A    
Cu3   O20   S    
C17   O3    A    
C31   H10   S    
C49   N1    T    
Cu4   O19   S    
C16   O13   A    
C3    C62   S    
C54   C55   A    
C19   O9    A    
C51   N3    T    
C13   O21   A    
C37   H19   S    
C3    C5    D    
C1    C61   S    
Cu6   O9    S    
Cu3   O17   S    
C11   C12   S    
C6    C7    D    
C15   O24   A    
C3    H40   S    
C25   C27   S    
Cu2   O11   S    
C21   H7    S    
Cu2   O14   S    
C26   H11   S    
C43   H25   S    
C59   H35   S    
C23   C32   S    
Cu5   O24   S    
C58   C59   A    
C10   O17   A    
C11   O19   A    
C29   H14   S    
Cu1   O10   S    
C23   C52   S    
C38   C39   A    
C2    C42   S    
C8    H5    S    
C33   C35   S    
C13   O20   A    
C22   C24   D    
C2    C14   S    
Cu5   O6    S    
C44   H26   S    
C33   H17   S    
Cu4   O23   S    
C32   H23   S    
C2    C62   D    
C24   H9    S    
C15   C21   S    
C41   H24   S    
C20   C21   D    
C34   C53   S    
Cu3   Cu4   S    
C9    H6    S    
C55   H31   S    
C54   H30   S    
C40   H22   S    
C16   O14   A    
C18   O7    A    
C39   H21   S    
Cu1   O15   S    
C60   H37   S    
C28   O16   A    
Cu6   O2    S    
