data_mof_unit_37644.cif
_audit_creation_date              2012-12-10T17:02:14-0500
_audit_creation_method            fapswitch 2.2
_symmetry_space_group_name_H-M    P1
_symmetry_Int_Tables_number       1
_space_group_crystal_system       triclinic
_cell_length_a                    10.555562
_cell_length_b                    10.680664
_cell_length_c                    10.01805
_cell_angle_alpha                 88.593365
_cell_angle_beta                  91.096183
_cell_angle_gamma                 90.253951
_cell_volume                      1128.88321319

loop_
_atom_site_label
_atom_site_type_symbol
_atom_type_description
_atom_site_fract_x
_atom_site_fract_y
_atom_site_fract_z
_atom_type_partial_charge
C1    C     C_R   0.487195 0.262398 0.501248 0.819053
C2    C     C_R   0.055697 0.532593 0.614738 0.047209
C3    C     C_R   0.122450 0.510786 0.496335 -0.159327
C4    C     C_R   0.062201 0.455282 0.386553 -0.207743
C5    C     C_R   0.935887 0.422166 0.391929 0.185007
C6    C     C_R   0.871262 0.443775 0.510265 -0.166522
C7    C     C_2   0.418448 0.931982 0.401801 0.129205
C8    C     C_2   0.495351 0.870255 0.489462 -0.264265
C9    C     C_2   0.434576 0.067604 0.390958 0.400626
C10   C     C_2   0.445296 0.132282 0.504779 0.173799
C11   C     C_2   0.564357 0.579302 0.925470 0.457515
C12   C     C_R   0.258830 0.508591 0.498643 0.867807
C13   C     C_2   0.584963 0.558285 0.075494 0.376893
C14   C     C_R   0.497949 0.737552 0.497846 0.933133
C15   C     C_R   0.737851 0.477073 0.502489 0.888608
C16   C     C_R   0.101123 0.606413 0.722491 0.206256
C17   C     C_R   0.049044 0.587974 0.849079 -0.190218
C18   C     C_R   0.953264 0.499926 0.868723 -0.187665
C19   C     C_R   0.897952 0.439322 0.759798 0.235168
C20   C     C_R   0.940164 0.469791 0.628923 0.024126
H1    H     H_    0.114283 0.433120 0.297942 0.178696
H2    H     H_    0.414147 0.485081 0.103902 0.176242
H3    H     H_    0.084470 0.640345 0.933318 0.153061
H4    H     H_    0.920847 0.480118 0.968813 0.144518
H5    H     H_    0.563239 0.918826 0.552892 0.152547
N1    N     N_2   0.501340 0.501330 0.852150 0.017852
N2    N     N_2   0.501380 0.501360 0.147810 -0.161174
O1    O     O_R   0.499980 0.319060 0.613040 -0.657931
O2    O     O_R   0.500020 0.319100 0.386900 -0.550397
O3    O     O_R   0.316750 0.499980 0.613090 -0.609973
O4    O     O_R   0.316790 0.500020 0.386950 -0.635012
O5    O     O_R   0.499980 0.680900 0.613100 -0.556674
O6    O     O_R   0.500020 0.680940 0.386960 -0.593999
O7    O     O_R   0.683210 0.499980 0.613050 -0.583984
O8    O     O_R   0.683250 0.500020 0.386910 -0.536188
Zn1   Zn    Zn3+2 0.499970 0.499970 0.650990 0.997642
Zn2   Zn    Zn3+2 0.500030 0.500030 0.349010 1.015333
O9    O     O_3   0.409493 0.074762 0.624418 -0.795097
H6    H     H_    0.419557 0.133242 0.698997 0.357307
O10   O     O_3   0.615850 0.683255 0.862139 -0.754308
H7    H     H_    0.639895 0.744754 0.930641 0.316664
O11   O     O_3   0.471417 0.390843 0.910304 -0.763963
H8    H     H_    0.426748 0.343478 0.840092 0.378300
O12   O     O_3   0.691960 0.604315 0.138725 -0.742375
H9    H     H_    0.755207 0.625916 0.070057 0.309940
C21   C     C_3   0.193114 0.713743 0.704859 -0.800632
H10   H     H_    0.150318 0.800809 0.741890 0.233274
H11   H     H_    0.281512 0.694534 0.763493 0.260079
H12   H     H_    0.215937 0.732020 0.598711 0.214526
C22   C     C_3   0.807604 0.332661 0.788581 -0.807805
H13   H     H_    0.722636 0.367822 0.838684 0.271522
H14   H     H_    0.854863 0.262735 0.856372 0.222484
H15   H     H_    0.777931 0.283446 0.696777 0.225218
C23   C     C_3   0.876242 0.356650 0.274664 -0.815280
H16   H     H_    0.785062 0.310959 0.300794 0.251154
H17   H     H_    0.860737 0.424627 0.190792 0.259450
H18   H     H_    0.939961 0.281485 0.241430 0.219751
C24   C     C_3   0.320812 0.868998 0.313117 -0.869351
H19   H     H_    0.256734 0.939479 0.264664 0.242001
H20   H     H_    0.368021 0.817576 0.233109 0.249705
H21   H     H_    0.261490 0.803412 0.372891 0.230115
O13   O     O_3   0.449180 0.124961 0.266594 -0.757218
H22   H     H_    0.450184 0.059748 0.197887 0.345318

loop_
_geom_bond_atom_site_label_1
_geom_bond_atom_site_label_2
_ccdc_geom_bond_type
C1    O1    A    
C22   H14   S    
O13   H22   S    
C8    H5    S    
C6    C20   A    
C9    C10   D    
C7    C24   S    
O7    Zn1   S    
C19   C20   A    
C19   C22   S    
O3    Zn1   S    
C10   O9    S    
C9    O13   S    
C24   H21   S    
C1    O2    A    
C17   C18   A    
C6    C15   S    
C7    C8    D    
C4    H1    S    
C11   C13   S    
C21   H12   S    
O1    Zn1   S    
C17   H3    S    
C14   O6    A    
C18   H4    S    
C4    C5    A    
O5    Zn1   S    
C15   O8    A    
O10   H7    S    
O8    Zn2   S    
N2    Zn2   S    
C22   H13   S    
C2    C3    A    
H2    N2    S    
C12   O4    A    
C5    C6    A    
C23   H17   S    
C22   H15   S    
O11   H8    S    
O2    Zn2   S    
C11   O10   S    
C21   H11   S    
O4    Zn2   S    
C5    C23   S    
N1    Zn1   S    
C2    C16   A    
O12   H9    S    
N1    O11   S    
C18   C19   A    
C16   C21   S    
C7    C9    S    
C2    C20   A    
C23   H16   S    
C13   N2    D    
C8    C14   S    
C3    C12   S    
C15   O7    A    
C11   N1    D    
C12   O3    A    
C24   H19   S    
C21   H10   S    
C24   H20   S    
C13   O12   S    
O6    Zn2   S    
C1    C10   S    
C3    C4    A    
C14   O5    A    
C16   C17   A    
C23   H18   S    
O9    H6    S    
