data_mof_unit_64698.cif
_audit_creation_date              2013-03-05T15:43:45-0500
_audit_creation_method            fapswitch 2.2
_symmetry_space_group_name_H-M    P1
_symmetry_Int_Tables_number       1
_space_group_crystal_system       triclinic
_cell_length_a                    29.340466
_cell_length_b                    30.631822
_cell_length_c                    21.346064
_cell_angle_alpha                 90.031056
_cell_angle_beta                  133.766889
_cell_angle_gamma                 89.956318
_cell_volume                      13854.5046893

loop_
_atom_site_label
_atom_site_type_symbol
_atom_site_description
_atom_site_fract_x
_atom_site_fract_y
_atom_site_fract_z
_atom_type_partial_charge
O1    O     O_R   0.321010 0.231060 0.142100 -0.562679
O2    O     O_R   0.678990 0.768940 0.857900 -0.568998
O3    O     O_R   0.678990 0.231060 0.857900 -0.562626
O4    O     O_R   0.321010 0.768940 0.142100 -0.569009
O5    O     O_R   0.821010 0.731060 0.142100 -0.562949
O6    O     O_R   0.178990 0.268940 0.857900 -0.570128
O7    O     O_R   0.178990 0.731060 0.857900 -0.563063
O8    O     O_R   0.821010 0.268940 0.142100 -0.570134
O9    O     O_R   0.269040 0.178650 0.038140 -0.577568
O10   O     O_R   0.730960 0.821350 0.961860 -0.575344
O11   O     O_R   0.730960 0.178650 0.961860 -0.577681
O12   O     O_R   0.269040 0.821350 0.038140 -0.574891
O13   O     O_R   0.769040 0.678650 0.038140 -0.577105
O14   O     O_R   0.230960 0.321350 0.961860 -0.574243
O15   O     O_R   0.230960 0.678650 0.961860 -0.577171
O16   O     O_R   0.769040 0.321350 0.038140 -0.574249
C1    C     C_R   0.309251 0.190617 0.118465 0.781582
C2    C     C_R   0.690790 0.809407 0.881519 0.777335
C3    C     C_R   0.690736 0.190617 0.881534 0.781590
C4    C     C_R   0.309150 0.809369 0.118437 0.777165
C5    C     C_R   0.809250 0.690617 0.118465 0.781565
C6    C     C_R   0.190826 0.309368 0.881556 0.777199
C7    C     C_R   0.190735 0.690617 0.881535 0.781329
C8    C     C_R   0.809185 0.309368 0.118445 0.777191
O17   O     O_R   0.337910 0.276140 0.051940 -0.557326
O18   O     O_R   0.662090 0.723860 0.948060 -0.558002
O19   O     O_R   0.662090 0.276140 0.948060 -0.557305
O20   O     O_R   0.337910 0.723860 0.051940 -0.557446
O21   O     O_R   0.837910 0.776140 0.051940 -0.557020
O22   O     O_R   0.162090 0.223860 0.948060 -0.558908
O23   O     O_R   0.162090 0.776140 0.948060 -0.557816
O24   O     O_R   0.837910 0.223860 0.051940 -0.558806
O25   O     O_R   0.285940 0.223740 0.947980 -0.563215
O26   O     O_R   0.714060 0.776260 0.052020 -0.562453
O27   O     O_R   0.714060 0.223740 0.052020 -0.563339
O28   O     O_R   0.285940 0.776260 0.947980 -0.562422
O29   O     O_R   0.785940 0.723740 0.947980 -0.563908
O30   O     O_R   0.214060 0.276260 0.052020 -0.561770
O31   O     O_R   0.214060 0.723740 0.052020 -0.563068
O32   O     O_R   0.785940 0.276260 0.947980 -0.561783
C9    C     C_R   0.334665 0.249959 0.000131 0.779166
C10   C     C_R   0.665331 0.750046 0.999861 0.779537
C11   C     C_R   0.665322 0.249973 0.999842 0.779187
C12   C     C_R   0.334684 0.750033 0.000169 0.779255
C13   C     C_R   0.834663 0.749960 0.000127 0.778777
C14   C     C_R   0.165330 0.250047 0.999859 0.778917
C15   C     C_R   0.165323 0.749973 0.999844 0.778826
C16   C     C_R   0.834683 0.250032 0.000168 0.778941
Cu1   Cu    Cu3+1 0.280720 0.280980 0.061500 0.990580
Cu2   Cu    Cu3+1 0.719280 0.719020 0.938500 0.982752
Cu3   Cu    Cu3+1 0.719280 0.280980 0.938500 0.990557
Cu4   Cu    Cu3+1 0.280720 0.719020 0.061500 0.983944
Cu5   Cu    Cu3+1 0.780720 0.780980 0.061500 0.988941
Cu6   Cu    Cu3+1 0.219280 0.219020 0.938500 0.980365
Cu7   Cu    Cu3+1 0.219280 0.780980 0.938500 0.989141
Cu8   Cu    Cu3+1 0.780720 0.219020 0.061500 0.980252
C17   C     C_1   0.385932 0.250163 0.000119 -0.183593
C18   C     C_1   0.614066 0.749843 0.999877 -0.183406
C19   C     C_1   0.614020 0.250193 0.999785 -0.183627
C20   C     C_1   0.385985 0.749815 0.000226 -0.182533
C21   C     C_1   0.885932 0.750156 0.000120 -0.183928
C22   C     C_1   0.114064 0.249845 0.999872 -0.184149
C23   C     C_1   0.114020 0.750188 0.999785 -0.183553
C24   C     C_1   0.885984 0.249815 0.000223 -0.184054
C25   C     C_1   0.428381 0.250276 0.000037 0.006542
C26   C     C_1   0.571619 0.749732 0.999965 0.007259
C27   C     C_1   0.571557 0.250300 0.999841 0.006510
C28   C     C_1   0.428448 0.749710 0.000169 0.008122
C29   C     C_1   0.928383 0.750261 0.000040 0.006894
C30   C     C_1   0.071616 0.249734 0.999958 0.006478
C31   C     C_1   0.071558 0.750290 0.999842 0.006560
C32   C     C_1   0.928445 0.249710 0.000164 0.006545
C33   C     C_1   0.478732 0.250344 0.999958 0.009143
C34   C     C_1   0.521271 0.749667 0.000047 0.010474
C35   C     C_1   0.521200 0.250352 0.999907 0.009144
C36   C     C_1   0.478804 0.749659 0.000101 0.010837
C37   C     C_1   0.978734 0.750325 0.999963 0.009685
C38   C     C_1   0.021267 0.249668 0.000040 0.009420
C39   C     C_1   0.021202 0.750335 0.999911 0.009350
C40   C     C_1   0.978801 0.249660 0.000094 0.009451
H1    H     H_    0.400987 0.138758 0.167204 0.144147
H2    H     H_    0.605833 0.866110 0.840865 0.146338
H3    H     H_    0.599112 0.138770 0.832967 0.144229
H4    H     H_    0.401208 0.860687 0.166978 0.145458
H5    H     H_    0.900971 0.638748 0.167185 0.144385
H6    H     H_    0.097736 0.360056 0.831544 0.144454
H7    H     H_    0.099059 0.638808 0.832900 0.144407
H8    H     H_    0.902138 0.360062 0.168247 0.144485
C41   C     C_R   0.271670 0.173228 0.210056 -0.154836
C42   C     C_R   0.722310 0.821752 0.781740 -0.151417
C43   C     C_R   0.728157 0.173205 0.789726 -0.154996
C44   C     C_R   0.271348 0.827921 0.209789 -0.153635
C45   C     C_R   0.771687 0.673241 0.210082 -0.154633
C46   C     C_R   0.229630 0.328519 0.791680 -0.153598
C47   C     C_R   0.228210 0.673160 0.789804 -0.154581
C48   C     C_R   0.770561 0.328523 0.208575 -0.153656
H9    H     H_    0.239254 0.191624 0.150324 0.129387
H10   H     H_    0.756148 0.804447 0.842617 0.130456
H11   H     H_    0.760607 0.191585 0.849472 0.129443
H12   H     H_    0.238992 0.809138 0.150559 0.130537
H13   H     H_    0.739268 0.691637 0.150350 0.129342
H14   H     H_    0.261904 0.309780 0.850984 0.130493
H15   H     H_    0.260657 0.691540 0.849552 0.129306
H16   H     H_    0.738259 0.309793 0.149265 0.130535
C49   C     C_R   0.257577 0.169366 0.259780 -0.225716
C50   C     C_R   0.731186 0.820797 0.726050 -0.244568
C51   C     C_R   0.742152 0.169348 0.739879 -0.226376
C52   C     C_R   0.255987 0.834243 0.257704 -0.258987
C53   C     C_R   0.757604 0.669387 0.259820 -0.225019
C54   C     C_R   0.245527 0.335113 0.744480 -0.259085
C55   C     C_R   0.242238 0.669277 0.739997 -0.225458
C56   C     C_R   0.754763 0.335111 0.255909 -0.259207
H17   H     H_    0.214998 0.184707 0.236881 0.141673
H18   H     H_    0.770737 0.802431 0.745058 0.142777
H19   H     H_    0.784689 0.184677 0.762700 0.141570
H20   H     H_    0.211974 0.821031 0.233439 0.144779
H21   H     H_    0.715031 0.684734 0.236931 0.142321
H22   H     H_    0.289847 0.322146 0.769351 0.144919
H23   H     H_    0.284796 0.684586 0.762850 0.141716
H24   H     H_    0.710490 0.322147 0.231134 0.144879
C57   C     C_R   0.298741 0.147943 0.339620 -0.004927
C58   C     C_R   0.687118 0.839665 0.644058 0.020479
C59   C     C_R   0.700939 0.147946 0.660018 -0.004400
C60   C     C_R   0.296928 0.856677 0.336457 0.026840
C61   C     C_R   0.798771 0.647964 0.339660 -0.005981
C62   C     C_R   0.204750 0.357513 0.665678 0.026467
C63   C     C_R   0.201032 0.647876 0.660135 -0.005103
C64   C     C_R   0.795581 0.357501 0.334720 0.026392
C65   C     C_R   0.354877 0.128926 0.368742 -0.013694
C66   C     C_R   0.636132 0.864367 0.621066 -0.047840
C67   C     C_R   0.644861 0.128940 0.631009 -0.014648
C68   C     C_R   0.355645 0.871921 0.368634 -0.011407
C69   C     C_R   0.854899 0.628938 0.368767 -0.013507
C70   C     C_R   0.145638 0.372424 0.632678 -0.010326
C71   C     C_R   0.144924 0.628902 0.631079 -0.013432
C72   C     C_R   0.854631 0.372409 0.367585 -0.010241
C73   C     C_R   0.364465 0.126751 0.311350 0.060285
C74   C     C_R   0.631173 0.870108 0.683174 -0.013964
C75   C     C_R   0.635381 0.126762 0.688512 0.059800
C76   C     C_R   0.364545 0.873941 0.310626 -0.022651
C77   C     C_R   0.864475 0.626758 0.311363 0.060401
C78   C     C_R   0.136032 0.374145 0.689941 -0.023398
C79   C     C_R   0.135412 0.626742 0.688549 0.060334
C80   C     C_R   0.864125 0.374133 0.310202 -0.023308
C81   C     C_R   0.325190 0.152724 0.235279 0.078773
C82   C     C_R   0.671313 0.844540 0.759933 0.104597
C83   C     C_R   0.674690 0.152718 0.764600 0.078963
C84   C     C_R   0.325154 0.847806 0.234886 0.099074
C85   C     C_R   0.825199 0.652730 0.235291 0.078840
C86   C     C_R   0.175360 0.348076 0.765790 0.098501
C87   C     C_R   0.174718 0.652697 0.764639 0.078818
C88   C     C_R   0.824765 0.348074 0.234346 0.098510
C89   C     C_R   0.340130 0.157713 0.185509 -0.070111
C90   C     C_R   0.660184 0.842326 0.814397 -0.074851
C91   C     C_R   0.659841 0.157710 0.814483 -0.070256
C92   C     C_R   0.340251 0.842280 0.185394 -0.069884
C93   C     C_R   0.840129 0.657713 0.185510 -0.070160
C94   C     C_R   0.159717 0.342265 0.814571 -0.070183
C95   C     C_R   0.159839 0.657709 0.814483 -0.070112
C96   C     C_R   0.840308 0.342268 0.185436 -0.070211
C97   C     C_R   0.389450 0.134524 0.205336 -0.194915
C98   C     C_R   0.614456 0.868164 0.799092 -0.200258
C99   C     C_R   0.610581 0.134532 0.794748 -0.195055
C100  C     C_R   0.389632 0.865259 0.205008 -0.195826
C101  C     C_R   0.889441 0.634519 0.205326 -0.194614
C102  C     C_R   0.109754 0.364867 0.794093 -0.197962
C103  C     C_R   0.110551 0.634554 0.794710 -0.194634
C104  C     C_R   0.890197 0.364870 0.205798 -0.197868
H25   H     H_    0.460069 0.086338 0.284835 0.164431
H26   H     H_    0.546647 0.918216 0.722935 0.175035
H27   H     H_    0.539993 0.086357 0.715298 0.164597
H28   H     H_    0.459956 0.913778 0.283712 0.181210
H29   H     H_    0.960056 0.586329 0.284818 0.164879
H30   H     H_    0.038940 0.413043 0.714665 0.179816
H31   H     H_    0.039943 0.586393 0.715232 0.164888
H32   H     H_    0.960970 0.413042 0.285161 0.179640
C105  C     C_R   0.423975 0.105480 0.273760 -0.159854
C106  C     C_R   0.579685 0.896981 0.730364 -0.128700
C107  C     C_R   0.576030 0.105497 0.726302 -0.159740
C108  C     C_R   0.423965 0.894664 0.272869 -0.138775
C109  C     C_R   0.923968 0.605475 0.273751 -0.159461
C110  C     C_R   0.075404 0.394215 0.726134 -0.131311
C111  C     C_R   0.076003 0.605517 0.726265 -0.159402
C112  C     C_R   0.924572 0.394211 0.273776 -0.131669
C113  C     C_R   0.411439 0.100230 0.325904 -0.058749
C114  C     C_R   0.588124 0.899424 0.673286 -0.128495
C115  C     C_R   0.588480 0.100248 0.674052 -0.059473
C116  C     C_R   0.411261 0.900299 0.324727 -0.138467
C117  C     C_R   0.911442 0.600232 0.325907 -0.059287
C118  C     C_R   0.088683 0.400163 0.674999 -0.134487
C119  C     C_R   0.088482 0.600248 0.674053 -0.059196
C120  C     C_R   0.911390 0.400150 0.325034 -0.134442
O33   O     O_R   0.990910 0.454660 0.410130 -0.571967
O34   O     O_R   0.009090 0.545340 0.589870 -0.597555
O35   O     O_R   0.009090 0.454660 0.589870 -0.571866
O36   O     O_R   0.990910 0.545340 0.410130 -0.597677
O37   O     O_R   0.490910 0.954660 0.410130 -0.556258
O38   O     O_R   0.509090 0.045340 0.589870 -0.597208
O39   O     O_R   0.509090 0.954660 0.589870 -0.571164
O40   O     O_R   0.490910 0.045340 0.410130 -0.598057
O41   O     O_R   0.919170 0.454670 0.410130 -0.578276
O42   O     O_R   0.080830 0.545330 0.589870 -0.611769
O43   O     O_R   0.080830 0.454670 0.589870 -0.578381
O44   O     O_R   0.919170 0.545330 0.410130 -0.611784
O45   O     O_R   0.419170 0.954670 0.410130 -0.581338
O46   O     O_R   0.580830 0.045330 0.589870 -0.612950
O47   O     O_R   0.580830 0.954670 0.589870 -0.565415
O48   O     O_R   0.419170 0.045330 0.410130 -0.612465
C121  C     C_R   0.942605 0.436975 0.385777 0.784814
C122  C     C_R   0.056577 0.563734 0.612448 0.840508
C123  C     C_R   0.057429 0.436982 0.614242 0.784788
C124  C     C_R   0.943389 0.563728 0.387533 0.840437
C125  C     C_R   0.442445 0.937109 0.385459 0.784121
C126  C     C_R   0.556575 0.063735 0.612446 0.840574
C127  C     C_R   0.556263 0.935997 0.611744 0.778360
C128  C     C_R   0.443387 0.063727 0.387530 0.839064
Cu9   Cu    Cu3+1 0.042420 0.500000 0.499930 1.018067
Cu10  Cu    Cu3+1 0.957580 0.500000 0.500070 1.018180
Cu11  Cu    Cu3+1 0.542420 0.000000 0.499930 1.021869
Cu12  Cu    Cu3+1 0.457580 0.000000 0.500070 1.018052
C129  C     C_2   0.281810 0.148383 0.391179 0.355607
H33   H     H_    0.245167 0.170342 0.372888 0.084870
O49   O     O_2   0.306299 0.123658 0.452089 -0.555162
C130  C     C_2   0.695477 0.830163 0.584185 0.424243
H34   H     H_    0.742619 0.824763 0.610612 0.057023
O50   O     O_2   0.650530 0.825478 0.506329 -0.504054
C131  C     C_2   0.717754 0.148397 0.608322 0.352499
H35   H     H_    0.754361 0.170341 0.626565 0.085293
O51   O     O_2   0.693208 0.123699 0.547343 -0.558276
C132  C     C_2   0.275526 0.863959 0.381371 0.459703
H36   H     H_    0.242066 0.841590 0.370803 0.045057
O52   O     O_2   0.291793 0.896303 0.426119 -0.487212
C133  C     C_2   0.781854 0.648415 0.391236 0.357443
H37   H     H_    0.745219 0.670379 0.372953 0.087001
O53   O     O_2   0.806348 0.623693 0.452153 -0.554098
C134  C     C_2   0.226729 0.365080 0.621588 0.460355
H38   H     H_    0.260371 0.342775 0.632373 0.044691
O54   O     O_2   0.210765 0.397596 0.577372 -0.486267
C135  C     C_2   0.217888 0.648293 0.608487 0.356195
H39   H     H_    0.254502 0.670230 0.626736 0.084981
O55   O     O_2   0.193370 0.623572 0.547550 -0.554699
C136  C     C_2   0.773704 0.365058 0.378959 0.460335
H40   H     H_    0.740149 0.342742 0.368281 0.044557
O56   O     O_2   0.789648 0.397581 0.423178 -0.486126
C137  C     C_2   0.407539 0.120995 0.462800 0.434698
H41   H     H_    0.403206 0.096999 0.495719 0.127579
O57   O     O_2   0.455841 0.142401 0.504723 -0.513057
C138  C     C_2   0.585566 0.879143 0.530359 0.514767
H42   H     H_    0.536927 0.872173 0.495305 -0.020058
O58   O     O_2   0.597958 0.899920 0.494900 -0.493892
C139  C     C_2   0.592136 0.121026 0.536965 0.434980
H43   H     H_    0.596432 0.097030 0.503965 0.126577
O59   O     O_2   0.543826 0.142453 0.495142 -0.512842
C140  C     C_2   0.411660 0.874563 0.464264 0.473776
H44   H     H_    0.458054 0.879259 0.488960 -0.011781
O60   O     O_2   0.407938 0.868571 0.517100 -0.508939
C141  C     C_2   0.907567 0.621004 0.462821 0.434333
H45   H     H_    0.903234 0.597011 0.495746 0.127817
O61   O     O_2   0.955872 0.642405 0.504737 -0.513231
C142  C     C_2   0.090010 0.375003 0.536906 0.468345
H46   H     H_    0.043314 0.378888 0.511640 -0.004613
O62   O     O_2   0.094465 0.369952 0.484600 -0.510506
C143  C     C_2   0.092206 0.621008 0.537023 0.434060
H47   H     H_    0.096506 0.597029 0.504005 0.127939
O63   O     O_2   0.043892 0.642428 0.495213 -0.513274
C144  C     C_2   0.910330 0.374988 0.463330 0.468297
H48   H     H_    0.956988 0.378833 0.488476 -0.004877
O64   O     O_2   0.905977 0.369988 0.515742 -0.510605

loop_
_geom_bond_atom_site_label_1
_geom_bond_atom_site_label_2
_geom_bond_distance
_ccdc_geom_bond_type
O48   Cu12  1.972615 S    
C88   C96   1.409960 A    
O45   Cu12  1.972362 S    
C63   C135  1.488142 S    
O29   Cu2   1.827561 S    
O36   C124  1.250055 A    
O2    C2    1.291937 A    
C57   C129  1.488150 S    
C3    C91   1.446131 S    
C29   C37   1.478478 S    
C45   C85   1.406920 A    
C135  H39   1.085924 S    
C102  C110  1.380462 A    
O16   Cu3   1.971919 S    
C51   C59   1.395072 A    
C24   C32   1.246712 T    
C1    C89   1.446126 S    
C130  H34   1.085832 S    
C76   C84   1.416166 A    
C31   C39   1.478474 S    
O36   Cu9   1.969567 S    
C27   C35   1.478472 S    
C105  C113  1.402401 A    
C139  H43   1.083746 S    
O34   Cu10  1.969729 S    
O30   Cu1   1.827566 S    
C65   C137  1.478410 S    
O33   Cu9   1.969729 S    
O22   Cu6   1.831002 S    
C75   C83   1.417317 A    
O43   C123  1.237197 A    
C140  H44   1.076567 S    
C34   C36   1.246792 T    
O12   C4    1.291105 A    
C50   H18   1.084243 S    
O39   C127  1.251203 A    
O42   Cu9   1.972362 S    
C49   H17   1.083990 S    
C30   C38   1.478473 S    
C74   C114  1.440830 A    
O6    Cu6   1.970318 S    
O41   Cu10  1.972362 S    
Cu3   Cu8   2.682850 S    
O18   Cu2   1.831002 S    
C15   C23   1.504375 S    
C38   C40   1.246794 T    
C16   C24   1.504378 S    
O14   Cu1   1.971968 S    
C59   C131  1.488152 S    
C21   C29   1.246715 T    
Cu1   Cu6   2.682781 S    
C26   C34   1.478474 S    
O27   C11   1.314126 A    
O35   Cu10  1.969571 S    
C87   C95   1.410148 A    
C64   C136  1.481700 S    
C134  H38   1.085775 S    
C60   C68   1.421830 A    
C55   H23   1.083994 S    
C141  H45   1.083760 S    
C47   C55   1.385287 A    
C13   C21   1.504372 S    
O10   Cu5   1.971968 S    
C41   H9    1.081717 S    
C140  O60   1.219952 D    
C10   C18   1.504384 S    
O2    Cu2   1.970318 S    
C19   C27   1.246713 T    
C109  C117  1.402401 A    
C44   C52   1.387120 A    
H7    C103  1.084123 S    
C68   C76   1.432736 A    
C138  O58   1.221391 D    
H30   C110  1.083541 S    
H8    C104  1.084111 S    
O26   C10   1.314193 A    
C136  O56   1.221093 D    
C112  C120  1.401764 A    
O3    C3    1.291320 A    
O7    Cu7   1.970269 S    
C83   C91   1.410151 A    
C133  H37   1.085924 S    
C100  C108  1.380432 A    
C2    C90   1.447841 S    
Cu4   Cu7   2.682850 S    
C11   C19   1.504380 S    
O8    C8    1.290981 A    
C81   C89   1.410193 A    
H28   C108  1.083564 S    
C69   C141  1.478399 S    
O31   Cu4   1.827347 S    
C115  C126  1.467485 S    
O45   C125  1.236814 A    
O16   C8    1.291213 A    
C70   C142  1.494447 S    
C58   C130  1.487076 S    
C137  H41   1.083759 S    
C85   C93   1.410194 A    
C9    C17   1.504382 S    
O24   Cu8   1.831223 S    
O8    Cu8   1.970270 S    
O24   C16   1.314957 A    
C22   C30   1.246710 T    
H27   C107  1.083548 S    
O46   C126  1.236958 A    
C5    C93   1.446129 S    
O42   C122  1.236950 A    
C75   C115  1.436087 A    
H6    C102  1.084115 S    
C62   C70   1.421894 A    
O41   C121  1.237092 A    
O47   Cu11  1.972619 S    
O19   Cu3   1.831227 S    
C110  C118  1.401806 A    
O4    Cu4   1.970270 S    
C73   C113  1.436069 A    
C37   C39   1.246795 T    
O10   C2    1.291395 A    
C103  C111  1.379968 A    
C12   C20   1.504377 S    
C48   C88   1.407576 A    
O30   C14   1.314195 A    
O43   Cu9   1.972619 S    
C47   H15   1.081740 S    
O13   C5    1.291362 A    
Cu2   Cu5   2.682781 S    
C43   C51   1.385275 A    
C143  H47   1.083741 S    
C77   C117  1.436069 A    
O25   C9    1.314200 A    
C42   C50   1.382072 A    
C142  O62   1.220399 D    
C25   C33   1.478471 S    
C93   C101  1.388935 A    
Cu11  Cu12  2.491310 S    
C56   H24   1.083944 S    
C44   H12   1.081813 S    
O3    Cu3   1.970269 S    
C101  C109  1.379894 A    
C80   C120  1.432664 A    
C91   C99   1.389000 A    
Cu9   Cu10  2.491310 S    
O31   C15   1.314115 A    
O20   C12   1.314955 A    
C43   C83   1.406945 A    
C32   C40   1.478476 S    
C89   C97   1.388935 A    
O21   C13   1.314847 A    
O34   C122  1.250169 A    
C141  O61   1.218806 D    
O5    C5    1.291295 A    
C76   C116  1.432435 A    
C53   H21   1.083989 S    
C41   C81   1.406919 A    
C118  C123  1.466158 S    
C45   H13   1.081716 S    
O35   C123  1.246518 A    
C129  H33   1.085926 S    
C106  C114  1.403141 A    
C70   C78   1.432793 A    
C48   C56   1.387089 A    
C73   C81   1.417372 A    
O33   C121  1.246613 A    
C131  H35   1.085924 S    
C82   C90   1.410036 A    
C62   C134  1.481701 S    
O11   C3    1.291385 A    
C114  C127  1.468255 S    
O44   C124  1.237052 A    
C78   C118  1.432640 A    
O47   C127  1.237457 A    
C136  H40   1.085797 S    
C65   C73   1.435636 A    
C135  O55   1.219902 D    
O15   Cu4   1.971918 S    
O9    C1    1.291360 A    
C132  O52   1.220971 D    
C54   H22   1.083939 S    
C133  O53   1.219908 D    
C51   H19   1.083988 S    
C23   C31   1.246712 T    
C108  C116  1.401653 A    
C144  O64   1.220387 D    
C54   C62   1.395529 A    
C53   C61   1.395080 A    
C41   C49   1.385279 A    
C131  O51   1.219907 D    
C139  O59   1.218801 D    
C14   C22   1.504381 S    
C48   H16   1.081804 S    
C66   C74   1.440931 A    
C55   C63   1.395079 A    
O14   C6    1.291193 A    
O28   C12   1.314120 A    
C47   C87   1.406949 A    
H26   C106  1.083695 S    
C33   C35   1.246792 T    
O29   C13   1.314191 A    
O38   C126  1.250157 A    
C90   C98   1.387599 A    
C42   C82   1.406412 A    
O37   C125  1.246311 A    
C138  H42   1.079387 S    
O18   C10   1.314842 A    
C18   C26   1.246712 T    
C61   C69   1.421647 A    
O25   Cu6   1.827561 S    
H32   C112  1.083543 S    
H3    C99   1.084121 S    
O32   C16   1.314120 A    
C57   C65   1.421643 A    
C98   C106  1.379038 A    
C66   C138  1.476738 S    
C79   C87   1.417311 A    
C4    C92   1.444746 S    
C64   C72   1.421899 A    
C59   C67   1.421645 A    
O27   Cu8   1.827347 S    
H31   C111  1.083548 S    
H1    C97   1.084127 S    
O22   C14   1.314842 A    
O38   Cu12  1.969729 S    
O39   Cu12  1.969571 S    
C42   H10   1.081850 S    
C142  H46   1.076890 S    
C67   C139  1.478365 S    
C117  C124  1.467489 S    
C130  O50   1.220508 D    
C67   C75   1.435617 A    
C116  C125  1.465669 S    
C8    C96   1.444876 S    
H2    C98   1.084112 S    
C71   C143  1.478402 S    
C111  C119  1.402363 A    
C68   C140  1.494425 S    
O46   Cu11  1.972362 S    
C28   C36   1.478473 S    
O32   Cu3   1.827343 S    
C6    C94   1.444869 S    
C50   C58   1.392227 A    
C69   C77   1.435634 A    
C113  C128  1.467487 S    
C49   C57   1.395079 A    
C129  O49   1.219909 D    
H5    C101  1.084125 S    
C95   C103  1.389010 A    
C78   C86   1.416315 A    
C137  O57   1.218805 D    
O5    Cu5   1.970319 S    
C104  C112  1.380526 A    
C46   C54   1.387086 A    
C72   C80   1.432795 A    
O28   Cu7   1.827343 S    
C143  O63   1.218797 D    
C92   C100  1.389938 A    
C99   C107  1.379966 A    
C44   C84   1.407613 A    
O20   Cu4   1.831223 S    
C52   H20   1.083927 S    
H4    C100  1.084112 S    
C77   C85   1.417372 A    
O21   Cu5   1.830998 S    
C74   C82   1.419653 A    
O7    C7    1.291320 A    
C72   C144  1.494413 S    
O15   C7    1.291382 A    
C71   C79   1.435615 A    
O40   C128  1.250057 A    
C134  O54   1.221075 D    
C52   C60   1.395528 A    
H25   C105  1.083549 S    
C96   C104  1.389931 A    
C132  H36   1.085669 S    
C63   C71   1.421641 A    
C97   C105  1.379893 A    
O17   Cu1   1.830998 S    
C120  C121  1.466134 S    
C56   C64   1.395520 A    
O12   Cu7   1.971919 S    
C61   C133  1.488152 S    
C144  H48   1.076882 S    
C119  C122  1.467487 S    
H29   C109  1.083546 S    
O13   Cu2   1.971969 S    
O4    C4    1.291026 A    
C94   C102  1.389864 A    
O19   C11   1.314952 A    
C46   C86   1.407548 A    
C107  C115  1.402361 A    
O1    C1    1.291296 A    
C20   C28   1.246715 T    
O26   Cu5   1.827566 S    
O48   C128  1.237044 A    
O17   C9    1.314835 A    
O44   Cu10  1.972615 S    
O40   Cu11  1.969567 S    
C79   C119  1.436084 A    
O23   C15   1.314962 A    
O9    Cu6   1.971969 S    
C84   C92   1.409976 A    
O23   Cu7   1.831227 S    
C43   H11   1.081740 S    
O37   Cu11  1.969729 S    
O1    Cu1   1.970319 S    
C58   C66   1.426280 A    
C86   C94   1.409993 A    
C60   C132  1.481796 S    
O11   Cu8   1.971918 S    
C80   C88   1.416256 A    
C46   H14   1.081784 S    
C45   C53   1.385279 A    
C7    C95   1.446126 S    
C17   C25   1.246713 T    
O6    C6    1.290959 A    
