data_mof_unit_51105.cif
_audit_creation_date              2012-12-11T15:41:29-0500
_audit_creation_method            fapswitch 2.2
_symmetry_space_group_name_H-M    P1
_symmetry_Int_Tables_number       1
_space_group_crystal_system       triclinic
_cell_length_a                    19.11872
_cell_length_b                    10.975154
_cell_length_c                    18.785022
_cell_angle_alpha                 89.978775
_cell_angle_beta                  90.252305
_cell_angle_gamma                 90.216603
_cell_volume                      3941.61137291

loop_
_atom_site_label
_atom_site_type_symbol
_atom_type_description
_atom_site_fract_x
_atom_site_fract_y
_atom_site_fract_z
_atom_type_partial_charge
C1    C     C_R   0.725604 0.958268 0.854522 0.539225
C2    C     C_R   0.272715 0.956337 0.146675 0.553847
C3    C     C_R   0.225605 0.458267 0.854521 0.539094
C4    C     C_R   0.772716 0.456340 0.146673 0.549756
C5    C     C_R   0.698909 0.473848 0.038321 0.008006
C6    C     C_R   0.302956 0.404048 0.956784 -0.012617
C7    C     C_R   0.198922 0.973875 0.038318 0.008107
C8    C     C_R   0.802955 0.904043 0.956781 -0.012905
C9    C     C_R   0.693492 0.455486 0.965661 0.005749
C10   C     C_R   0.311859 0.395502 0.029624 0.011159
C11   C     C_R   0.193504 0.955508 0.965659 0.005730
C12   C     C_R   0.811859 0.895496 0.029621 0.012989
C13   C     C_R   0.777579 0.293567 0.974874 -0.123653
C14   C     C_R   0.188552 0.427562 0.047768 -0.160100
C15   C     C_R   0.277550 0.793529 0.974883 -0.123972
C16   C     C_R   0.688551 0.927555 0.047766 -0.160686
C17   C     C_R   0.781908 0.309809 0.048104 -0.136717
C18   C     C_R   0.179431 0.435595 0.974578 -0.138710
C19   C     C_R   0.281883 0.809782 0.048113 -0.135657
C20   C     C_R   0.679430 0.935591 0.974577 -0.138461
C21   C     C_3   0.689257 0.608330 0.030072 -0.234787
C22   C     C_3   0.371845 0.464598 0.945748 -0.269466
C23   C     C_3   0.189302 0.108362 0.030064 -0.235152
C24   C     C_3   0.871843 0.964594 0.945743 -0.269620
C25   C     C_3   0.682594 0.587428 0.950588 -0.266199
C26   C     C_3   0.380996 0.459658 0.026114 -0.249794
C27   C     C_3   0.182639 0.087456 0.950580 -0.266056
C28   C     C_3   0.880995 0.959653 0.026109 -0.249958
C29   C     C_R   0.738303 0.374249 0.932196 0.029077
C30   C     C_R   0.255478 0.411789 0.076259 0.004417
C31   C     C_R   0.238295 0.874235 0.932200 0.028630
C32   C     C_R   0.755478 0.911783 0.076256 0.005245
C33   C     C_R   0.509686 0.162709 0.420040 0.016228
C34   C     C_R   0.514901 0.171964 0.568446 0.016836
C35   C     C_R   0.011751 0.666360 0.419174 0.019689
C36   C     C_R   0.017122 0.671547 0.567589 0.016399
C37   C     C_R   0.540081 0.262786 0.453833 0.009417
C38   C     C_R   0.540863 0.267048 0.526568 0.032026
C39   C     C_R   0.035181 0.771035 0.454470 0.018657
C40   C     C_R   0.037119 0.772448 0.527269 0.034326
C41   C     C_R   0.496860 0.062751 0.534688 -0.182296
C42   C     C_R   0.498019 0.056656 0.460421 -0.173821
C43   C     C_R   0.006191 0.560927 0.532242 -0.186158
C44   C     C_R   0.008244 0.557071 0.457843 -0.178616
C45   C     C_R   0.528543 0.177097 0.849945 0.558086
C46   C     C_R   0.470195 0.176421 0.149022 0.557876
C47   C     C_R   0.028543 0.677097 0.849945 0.558067
C48   C     C_R   0.970196 0.676421 0.149022 0.558130
C49   C     C_3   0.530022 0.397821 0.448275 -0.257167
C50   C     C_3   0.527051 0.400259 0.528802 -0.240519
C51   C     C_3   0.013018 0.902102 0.452083 -0.245272
C52   C     C_3   0.013810 0.901139 0.532432 -0.245618
C53   C     C_R   0.753677 0.418552 0.423948 0.002887
C54   C     C_R   0.251043 0.389653 0.583005 0.006466
C55   C     C_R   0.248564 0.908768 0.420545 0.009073
C56   C     C_R   0.748047 0.905139 0.579496 0.006114
C57   C     C_R   0.795103 0.331771 0.458232 0.047805
C58   C     C_R   0.201898 0.318373 0.545896 0.053674
C59   C     C_R   0.285044 0.815007 0.454081 0.051551
C60   C     C_R   0.699270 0.834196 0.541731 0.045656
C61   C     C_R   0.790249 0.314971 0.530908 0.005688
C62   C     C_R   0.211073 0.288812 0.475091 -0.017446
C63   C     C_R   0.280421 0.797818 0.526592 0.002925
C64   C     C_R   0.704270 0.821508 0.469028 -0.004182
C65   C     C_R   0.706278 0.478293 0.538443 -0.165899
C66   C     C_R   0.326271 0.375325 0.479190 -0.137554
C67   C     C_R   0.199041 0.964142 0.534918 -0.158953
C68   C     C_R   0.810333 0.939887 0.469416 -0.151639
C69   C     C_R   0.708386 0.491068 0.464700 -0.167481
C70   C     C_R   0.316236 0.409250 0.550903 -0.158460
C71   C     C_R   0.200788 0.976783 0.460930 -0.163631
C72   C     C_R   0.806477 0.951290 0.543391 -0.163911
C73   C     C_3   0.873390 0.332554 0.462632 -0.027484
C74   C     C_3   0.126254 0.344535 0.534244 -0.035201
C75   C     C_3   0.361607 0.789868 0.454578 -0.028887
C76   C     C_3   0.621756 0.852756 0.535885 -0.033731
C77   C     C_3   0.867411 0.302727 0.540311 -0.226213
C78   C     C_3   0.135862 0.310445 0.457182 -0.234891
C79   C     C_3   0.355685 0.763110 0.533121 -0.227239
C80   C     C_3   0.627546 0.831924 0.456898 -0.246913
C81   C     C_R   0.747745 0.390877 0.571814 0.010961
C82   C     C_R   0.270695 0.326558 0.438537 0.010964
C83   C     C_R   0.242691 0.879576 0.568617 0.009866
C84   C     C_R   0.756590 0.881574 0.431305 0.014943
C85   C     C_R   0.735628 0.354120 0.855985 0.553787
C86   C     C_R   0.262194 0.364966 0.147769 0.551470
C87   C     C_R   0.235625 0.854110 0.855988 0.554847
C88   C     C_R   0.762196 0.864960 0.147765 0.541618
C89   C     C_R   0.727799 0.954326 0.648003 0.544617
C90   C     C_R   0.271946 0.955228 0.352235 0.542697
C91   C     C_R   0.228252 0.452450 0.648155 0.539913
C92   C     C_R   0.772920 0.457453 0.353111 0.547032
C93   C     C_R   0.531351 0.176724 0.643381 0.543034
C94   C     C_R   0.472258 0.175812 0.353654 0.537554
C95   C     C_R   0.032110 0.676630 0.642906 0.543030
C96   C     C_R   0.972468 0.676273 0.353550 0.546238
C97   C     C_R   0.739058 0.359727 0.645767 0.552617
C98   C     C_R   0.274547 0.309907 0.360817 0.566397
C99   C     C_R   0.237845 0.855951 0.644210 0.554019
C100  C     C_R   0.762273 0.856201 0.355854 0.553756
C101  C     C_2   0.496454 0.168345 0.920530 -0.113773
C102  C     C_2   0.500173 0.162852 0.077370 -0.121470
C103  C     C_2   0.996455 0.668342 0.920530 -0.113851
C104  C     C_2   0.000177 0.662852 0.077371 -0.120312
C105  C     C_2   0.491097 0.059957 0.037163 0.074184
C106  C     C_2   0.491391 0.062626 0.957187 0.067534
C107  C     C_2   0.991103 0.559956 0.037165 0.073872
C108  C     C_2   0.991394 0.562623 0.957188 0.067054
C109  C     C_R   0.747615 0.408318 0.079376 0.017889
C110  C     C_R   0.237232 0.428705 0.928411 0.017463
C111  C     C_R   0.247611 0.908319 0.079378 0.018298
C112  C     C_R   0.737230 0.928703 0.928410 0.017318
Cr1   Cr    Cr6+3 0.769260 0.163750 0.750730 1.040544
Cr2   Cr    Cr6+3 0.230740 0.163750 0.249270 1.030649
Cr3   Cr    Cr6+3 0.269260 0.663750 0.750730 1.041842
Cr4   Cr    Cr6+3 0.730740 0.663750 0.249270 1.030965
Cr5   Cr    Cr6+3 0.612640 0.009910 0.748780 1.080471
Cr6   Cr    Cr6+3 0.387360 0.009910 0.251220 1.070338
Cr7   Cr    Cr6+3 0.112640 0.509910 0.748780 1.081618
Cr8   Cr    Cr6+3 0.887360 0.509910 0.251220 1.084532
Cr9   Cr    Cr6+3 0.614190 0.322400 0.747710 1.046674
Cr10  Cr    Cr6+3 0.385810 0.322400 0.252290 1.051945
Cr11  Cr    Cr6+3 0.114190 0.822400 0.747710 1.047148
Cr12  Cr    Cr6+3 0.885810 0.822400 0.252290 1.047164
H1    H     H_    0.959985 0.916697 0.430756 0.184354
H2    H     H_    0.054374 0.960425 0.556107 0.182965
H3    H     H_    0.481100 0.427647 0.422982 0.188470
H4    H     H_    0.570067 0.451124 0.554203 0.183642
H5    H     H_    0.674537 0.538951 0.569742 0.163001
H6    H     H_    0.375244 0.394983 0.454280 0.151989
H7    H     H_    0.166857 0.024474 0.566020 0.162084
H8    H     H_    0.853174 0.981066 0.441699 0.164357
H9    H     H_    0.678772 0.563923 0.440426 0.148684
H10   H     H_    0.357024 0.457713 0.579242 0.126842
H11   H     H_    0.170499 0.048341 0.436546 0.141191
H12   H     H_    0.845546 0.004914 0.571122 0.137415
H13   H     H_    0.892670 0.426346 0.454176 0.146214
H14   H     H_    0.116974 0.442855 0.541765 0.153726
H15   H     H_    0.391616 0.873584 0.444540 0.143987
H16   H     H_    0.608957 0.948096 0.549093 0.162053
H17   H     H_    0.882773 0.208136 0.553888 0.179292
H18   H     H_    0.107578 0.226159 0.441409 0.172315
H19   H     H_    0.362268 0.665513 0.546644 0.172315
H20   H     H_    0.603938 0.744836 0.438371 0.170463
H21   H     H_    0.890069 0.373757 0.575773 0.140782
H22   H     H_    0.128166 0.388890 0.420527 0.156199
H23   H     H_    0.386384 0.827130 0.566948 0.146787
H24   H     H_    0.613656 0.912917 0.424336 0.134192
H25   H     H_    0.517592 0.247420 0.053814 0.070627
H26   H     H_    0.490361 0.254980 0.946876 0.070762
H27   H     H_    0.017593 0.747420 0.053814 0.070796
H28   H     H_    0.990361 0.754978 0.946876 0.070752
H29   H     H_    0.817331 0.253229 0.078662 0.154257
H30   H     H_    0.127365 0.452852 0.954348 0.176289
H31   H     H_    0.317292 0.753183 0.078676 0.155617
H32   H     H_    0.627363 0.952849 0.954347 0.176353
H33   H     H_    0.237203 0.160271 0.044634 0.159128
H34   H     H_    0.868095 0.058021 0.923947 0.163994
H35   H     H_    0.737147 0.660273 0.044640 0.159934
H36   H     H_    0.368099 0.558025 0.923951 0.163961
H37   H     H_    0.629231 0.606098 0.929641 0.168812
H38   H     H_    0.424857 0.400318 0.043081 0.152783
H39   H     H_    0.129282 0.106162 0.929629 0.168828
H40   H     H_    0.924857 0.900315 0.043075 0.152936
H41   H     H_    0.725998 0.628764 0.919459 0.146410
H42   H     H_    0.380001 0.550875 0.051822 0.153537
H43   H     H_    0.226054 0.128756 0.919453 0.146621
H44   H     H_    0.880001 0.050871 0.051817 0.152701
H45   H     H_    0.483511 0.982542 0.565355 0.153224
H46   H     H_    0.484935 0.972303 0.434461 0.144927
H47   H     H_    0.997228 0.478168 0.561958 0.161410
H48   H     H_    0.000114 0.471299 0.430821 0.161355
O1    O     O_R   0.784290 0.290360 0.830540 -0.503407
O2    O     O_R   0.215710 0.290360 0.169460 -0.512466
O3    O     O_R   0.284290 0.790360 0.830540 -0.502622
O4    O     O_R   0.715710 0.790360 0.169460 -0.515925
O5    O     O_R   0.554690 0.080440 0.673480 -0.493262
O6    O     O_R   0.445310 0.080440 0.326520 -0.508935
O7    O     O_R   0.054690 0.580440 0.673480 -0.491379
O8    O     O_R   0.945310 0.580440 0.326520 -0.500564
O9    O     O_R   0.543980 0.282110 0.666770 -0.512999
O10   O     O_R   0.456020 0.282110 0.333230 -0.527591
O11   O     O_R   0.043980 0.782110 0.666770 -0.513827
O12   O     O_R   0.956020 0.782110 0.333230 -0.521389
O13   O     O_R   0.679070 0.374030 0.674430 -0.496180
O14   O     O_R   0.320930 0.374030 0.325570 -0.468621
O15   O     O_R   0.179070 0.874030 0.674430 -0.495824
O16   O     O_R   0.820930 0.874030 0.325570 -0.494693
O17   O     O_3   0.665360 0.165350 0.749070 -0.272803
O18   O     O_3   0.334640 0.165350 0.250930 -0.288411
O19   O     O_3   0.165360 0.665350 0.749070 -0.273632
O20   O     O_3   0.834640 0.665350 0.250930 -0.268118
O21   O     O_R   0.762610 0.041070 0.825230 -0.510852
O22   O     O_R   0.237390 0.041070 0.174770 -0.505054
O23   O     O_R   0.262610 0.541070 0.825230 -0.511062
O24   O     O_R   0.737390 0.541070 0.174770 -0.506005
O25   O     O_R   0.667390 0.924160 0.829970 -0.501185
O26   O     O_R   0.332610 0.924160 0.170030 -0.479735
O27   O     O_R   0.167390 0.424160 0.829970 -0.501056
O28   O     O_R   0.832610 0.424160 0.170030 -0.482388
O29   O     O_R   0.553980 0.081420 0.821780 -0.463190
O30   O     O_R   0.446020 0.081420 0.178220 -0.454621
O31   O     O_R   0.053980 0.581420 0.821780 -0.463121
O32   O     O_R   0.946020 0.581420 0.178220 -0.455070
O33   O     O_R   0.543210 0.283170 0.826740 -0.517962
O34   O     O_R   0.456790 0.283170 0.173260 -0.518090
O35   O     O_R   0.043210 0.783170 0.826740 -0.518012
O36   O     O_R   0.956790 0.783170 0.173260 -0.518848
O37   O     O_R   0.678350 0.375000 0.822720 -0.496673
O38   O     O_R   0.321650 0.375000 0.177280 -0.486465
O39   O     O_R   0.178350 0.875000 0.822720 -0.496037
O40   O     O_R   0.821650 0.875000 0.177280 -0.492907
O41   O     O_R   0.785060 0.289300 0.670580 -0.508266
O42   O     O_R   0.214940 0.289300 0.329420 -0.512514
O43   O     O_R   0.285060 0.789300 0.670580 -0.507531
O44   O     O_R   0.714940 0.789300 0.329420 -0.517087
O45   O     O_R   0.763330 0.040090 0.676940 -0.506271
O46   O     O_R   0.236670 0.040090 0.323060 -0.526077
O47   O     O_R   0.263330 0.540090 0.676940 -0.504659
O48   O     O_R   0.736670 0.540090 0.323060 -0.513823
O49   O     O_R   0.668160 0.923110 0.670000 -0.487899
O50   O     O_R   0.331840 0.923110 0.330000 -0.494191
O51   O     O_R   0.168160 0.423110 0.670000 -0.484689
O52   O     O_R   0.831840 0.423110 0.330000 -0.485314
I1    I     I_    0.485265 0.881542 0.085722 -0.349172
I2    I     I_    0.471309 0.895624 0.899678 -0.321197
I3    I     I_    0.985283 0.381543 0.085729 -0.344771
I4    I     I_    0.971312 0.395620 0.899679 -0.321960
H49   H     H_    0.576694 0.443729 0.426100 0.148243
H50   H     H_    0.474406 0.421539 0.549877 0.147638
H51   H     H_    0.053642 0.962237 0.428659 0.156607
H52   H     H_    0.961075 0.909632 0.556477 0.147242
I5    I     I_    0.925444 0.199045 0.399426 -0.441782
I6    I     I_    0.058668 0.225136 0.592552 -0.458842
I7    I     I_    0.389262 0.641885 0.387391 -0.392556
I8    I     I_    0.559382 0.720427 0.590394 -0.467172
H53   H     H_    0.807630 0.221313 0.951459 0.151134
H54   H     H_    0.143446 0.432068 0.082207 0.167132
H55   H     H_    0.307580 0.721247 0.951471 0.151046
H56   H     H_    0.643446 0.932059 0.082206 0.165931
H57   H     H_    0.640077 0.640889 0.054899 0.174184
H58   H     H_    0.408631 0.404931 0.916591 0.145743
H59   H     H_    0.140129 0.140958 0.054886 0.174404
H60   H     H_    0.908629 0.904928 0.916586 0.145740

loop_
_geom_bond_atom_site_label_1
_geom_bond_atom_site_label_2
_ccdc_geom_bond_type
C58   C62   A    
C39   C51   S    
C4    C109  S    
C65   C69   A    
C67   C83   A    
Cr2   O18   S    
C55   C59   A    
Cr6   O50   S    
C6    C110  A    
C41   C42   A    
C14   C18   A    
Cr5   O49   S    
C3    O27   A    
Cr8   O28   S    
C34   C93   S    
Cr9   O33   S    
Cr4   O44   S    
C53   C69   A    
C33   C94   S    
C99   O15   A    
C9    C25   S    
C63   C79   S    
C35   C96   S    
Cr3   O43   S    
C15   C19   A    
C60   C64   A    
C74   H14   S    
C28   H40   S    
Cr7   O51   S    
C81   C97   S    
C47   O35   A    
C12   C28   S    
Cr7   O27   S    
C33   C42   A    
Cr6   O26   S    
C104  H27   S    
C13   C29   A    
C100  O16   A    
C89   O45   A    
Cr7   O19   S    
Cr12  O12   S    
C55   C90   S    
C78   H18   S    
C1    C112  S    
C71   H11   S    
C23   H59   S    
C24   H34   S    
Cr10  O14   S    
C74   I6    S    
C97   O13   A    
C3    C110  S    
Cr2   O42   S    
C48   C104  S    
C15   H55   S    
C101  H26   S    
C19   H31   S    
C102  C105  D    
C68   H8    S    
C93   O9    A    
C94   O6    A    
C57   C73   S    
C87   O3    A    
C92   O48   A    
Cr10  O34   S    
C64   C84   A    
C36   C40   A    
Cr11  O11   S    
C42   H46   S    
Cr12  O36   S    
C27   H39   S    
C20   C112  A    
Cr10  O10   S    
Cr12  O16   S    
C79   H19   S    
C5    C21   S    
C25   H37   S    
C56   C72   A    
Cr11  O39   S    
C85   O1    A    
C107  C108  S    
Cr10  O38   S    
C75   I7    S    
C103  C108  D    
Cr1   O41   S    
Cr4   O48   S    
C20   H32   S    
C21   H35   S    
C73   I5    S    
C18   H30   S    
C8    C12   A    
Cr3   O19   S    
C10   C26   S    
Cr12  O20   S    
C87   O39   A    
C62   C82   A    
C17   H29   S    
C105  I1    S    
Cr8   O52   S    
C45   O29   A    
C83   C99   S    
C12   C32   A    
C91   O47   A    
C64   C80   S    
Cr3   O47   S    
Cr6   O30   S    
C34   C41   A    
Cr1   O21   S    
C14   C30   A    
Cr5   O29   S    
C46   O34   A    
C46   C102  S    
C73   H13   S    
Cr1   O45   S    
C34   C38   A    
C99   O43   A    
Cr5   O5    S    
C11   C27   S    
C7    C11   A    
Cr2   O2    S    
C23   C27   S    
C76   H16   S    
C49   H3    S    
Cr10  O18   S    
C67   H7    S    
C2    C111  S    
C47   C103  S    
C82   C98   S    
C51   H51   S    
C51   C52   S    
C51   H1    S    
C86   O38   A    
C92   O52   A    
C31   C87   S    
C61   C77   S    
C39   C40   A    
C14   H54   S    
C53   C57   A    
C7    C111  A    
C98   O42   A    
C13   H53   S    
C108  I4    S    
C80   H20   S    
C40   C52   S    
C41   H45   S    
C15   C31   A    
C26   H38   S    
C3    O23   A    
C56   C60   A    
C63   C83   A    
C68   C72   A    
C86   O2    A    
Cr9   O13   S    
C68   C84   A    
C80   H24   S    
C35   C39   A    
C43   C44   A    
C44   H48   S    
C5    C9    A    
C37   C38   A    
C65   H5    S    
C66   C82   A    
C37   C49   S    
C10   C30   A    
C65   C81   A    
C54   C70   A    
C46   O30   A    
C16   C20   A    
C91   O51   A    
C48   O36   A    
C53   C92   S    
C106  I2    S    
Cr1   O1    S    
Cr3   O3    S    
C76   I8    S    
C96   O8    A    
Cr9   O17   S    
C57   C61   A    
C35   C44   A    
C69   H9    S    
C45   C101  S    
C103  H28   S    
Cr6   O6    S    
Cr4   O4    S    
C95   O7    A    
C56   C89   S    
Cr9   O37   S    
Cr12  O40   S    
C96   O12   A    
Cr8   O32   S    
C30   C86   S    
C78   H22   S    
Cr11  O19   S    
Cr11  O35   S    
Cr7   O31   S    
C59   C75   S    
C22   H58   S    
C22   H36   S    
Cr5   O25   S    
C58   C74   S    
C24   C28   S    
Cr9   O9    S    
C54   C58   A    
C45   O33   A    
C101  C106  D    
C4    O24   A    
C21   C25   S    
Cr2   O22   S    
C26   H42   S    
C43   H47   S    
C6    C22   S    
C47   O31   A    
C52   H52   S    
C2    O26   A    
C29   C85   S    
C62   C78   S    
C18   C110  A    
C1    O25   A    
C76   C80   S    
C97   O41   A    
C24   H60   S    
C17   C109  A    
C6    C10   A    
C84   C100  S    
C79   H23   S    
C90   O50   A    
C38   C50   S    
C19   C111  A    
C16   C32   A    
Cr1   O17   S    
C105  C106  S    
C48   O32   A    
C59   C63   A    
C88   O4    A    
C13   C17   A    
Cr3   O23   S    
C25   H41   S    
Cr8   O20   S    
Cr8   O8    S    
C93   O5    A    
C54   C91   S    
C98   O14   A    
C61   C81   A    
C89   O49   A    
C9    C29   A    
Cr6   O18   S    
C36   C95   S    
C95   O11   A    
C66   C70   A    
C77   H21   S    
C5    C109  A    
C88   O40   A    
C7    C23   S    
C23   H33   S    
C74   C78   S    
C8    C24   S    
C8    C112  A    
C60   C76   S    
C33   C37   A    
C50   H50   S    
C67   C71   A    
C49   H49   S    
C77   H17   S    
C90   O46   A    
C72   H12   S    
C52   H2    S    
C28   H44   S    
C102  H25   S    
C11   C31   A    
Cr4   O24   S    
C107  I3    S    
C4    O28   A    
Cr2   O46   S    
C50   H4    S    
C85   O37   A    
C16   H56   S    
Cr5   O17   S    
C100  O44   A    
C49   C50   S    
C22   C26   S    
Cr7   O7    S    
C70   H10   S    
C73   C77   S    
C1    O21   A    
Cr4   O20   S    
C36   C43   A    
C75   H15   S    
C94   O10   A    
C2    O22   A    
C21   H57   S    
C75   C79   S    
C104  C107  D    
C55   C71   A    
C27   H43   S    
C66   H6    S    
Cr11  O15   S    
C32   C88   S    
