data_mof_unit_65289.cif
_audit_creation_date              2012-12-10T19:19:26-0500
_audit_creation_method            fapswitch 2.2
_symmetry_space_group_name_H-M    P1
_symmetry_Int_Tables_number       1
_space_group_crystal_system       triclinic
_cell_length_a                    16.003873
_cell_length_b                    14.759214
_cell_length_c                    23.535131
_cell_angle_alpha                 89.999974
_cell_angle_beta                  90.008601
_cell_angle_gamma                 90.000025
_cell_volume                      5559.10582193

loop_
_atom_site_label
_atom_site_type_symbol
_atom_type_description
_atom_site_fract_x
_atom_site_fract_y
_atom_site_fract_z
_atom_type_partial_charge
C1    C     C_R   0.340846 0.500001 0.500016 0.810636
C2    C     C_R   0.659154 0.500001 0.499984 0.810634
C3    C     C_R   0.498380 0.418373 0.238714 -0.100663
C4    C     C_R   0.501617 0.418373 0.761286 -0.100578
C5    C     C_R   0.498819 0.418153 0.297859 -0.175988
C6    C     C_R   0.501178 0.418153 0.702141 -0.175707
C7    C     C_R   0.499623 0.500139 0.328027 -0.078861
C8    C     C_R   0.500377 0.500139 0.671973 -0.078887
C9    C     C_R   0.499982 0.582400 0.297996 -0.203395
C10   C     C_R   0.500020 0.582399 0.702004 -0.203650
C11   C     C_R   0.499675 0.583424 0.238420 0.127509
C12   C     C_R   0.500327 0.583424 0.761580 0.127522
C13   C     C_R   0.498765 0.500256 0.208766 0.316111
C14   C     C_R   0.501233 0.500255 0.791234 0.316064
C15   C     C_R   0.956376 0.582314 0.499075 0.514851
C16   C     C_R   0.043624 0.417702 0.500924 0.516706
C17   C     C_R   0.043624 0.582314 0.499088 0.514863
C18   C     C_R   0.956376 0.417702 0.500912 0.516695
C19   C     C_R   0.912732 0.500008 0.499988 -0.343874
C20   C     C_R   0.087268 0.500008 0.500012 -0.343893
C21   C     C_1   0.823227 0.500007 0.499981 0.243605
C22   C     C_1   0.176773 0.500007 0.500018 0.243601
C23   C     C_1   0.251781 0.500003 0.500019 -0.106568
C24   C     C_1   0.748219 0.500003 0.499980 -0.106571
C25   C     C_R   0.499907 0.500015 0.390606 0.811905
C26   C     C_R   0.500093 0.500015 0.609394 0.811912
C27   C     C_R   0.493875 0.952064 0.551170 0.512961
C28   C     C_R   0.506122 0.047914 0.448831 0.517011
C29   C     C_R   0.506125 0.952064 0.448830 0.513176
C30   C     C_R   0.493878 0.047914 0.551169 0.517233
C31   C     C_R   0.500000 0.902875 0.500000 -0.398328
C32   C     C_R   0.500000 0.097109 0.500000 -0.401994
C33   C     C_1   0.500000 0.802705 0.500000 0.435767
C34   C     C_1   0.500000 0.197290 0.500000 0.442118
C35   C     C_R   0.575113 0.497030 0.880646 0.571218
C36   C     C_R   0.424886 0.497029 0.119354 0.571213
C37   C     C_R   0.425793 0.496960 0.880109 0.578704
C38   C     C_R   0.574206 0.496961 0.119891 0.578679
C39   C     C_R   0.423578 0.496482 0.939875 -0.134897
C40   C     C_R   0.576421 0.496483 0.060125 -0.134891
C41   C     C_R   0.499948 0.496428 0.969984 -0.093965
C42   C     C_R   0.500051 0.496428 0.030016 -0.093964
C43   C     C_R   0.576296 0.496435 0.940192 -0.081922
C44   C     C_R   0.423702 0.496434 0.059808 -0.081923
C45   C     C_R   0.347725 0.496283 0.970341 0.654769
C46   C     C_R   0.652274 0.496284 0.029659 0.654764
C47   C     C_R   0.348120 0.496246 0.029585 -0.211756
C48   C     C_R   0.651879 0.496248 0.970415 -0.211755
Cu1   Cu    Cu3+1 0.500000 0.589220 0.500000 1.045346
Cu2   Cu    Cu3+1 0.500000 0.410780 0.500000 1.052758
H1    H     H_    0.288765 0.496258 0.051701 0.222821
H2    H     H_    0.711234 0.496259 0.948299 0.222822
H3    H     H_    0.497901 0.354643 0.215913 0.163661
H4    H     H_    0.502094 0.354643 0.784087 0.163695
H5    H     H_    0.498523 0.353764 0.319923 0.195379
H6    H     H_    0.501472 0.353763 0.680077 0.195443
H7    H     H_    0.500313 0.646169 0.320821 0.184287
H8    H     H_    0.499691 0.646169 0.679179 0.184240
N1    N     N_R   0.500702 0.497911 0.852107 -0.484913
N2    N     N_R   0.499297 0.497911 0.147893 -0.484913
N3    N     N_1   0.500000 0.276710 0.500000 -0.154416
N4    N     N_1   0.500000 0.723290 0.500000 -0.156294
O1    O     O_R   0.380310 0.575320 0.500010 -0.560062
O2    O     O_R   0.619690 0.424680 0.499990 -0.558256
O3    O     O_R   0.619690 0.575320 0.499990 -0.560066
O4    O     O_R   0.380310 0.424680 0.500010 -0.558258
O5    O     O_R   0.499980 0.575360 0.417880 -0.575256
O6    O     O_R   0.500020 0.424640 0.582120 -0.572219
O7    O     O_R   0.500020 0.575360 0.582120 -0.575413
O8    O     O_R   0.499980 0.424640 0.417880 -0.572378
O9    O     O_2   0.647611 0.497274 0.851366 -0.506399
O10   O     O_2   0.352388 0.497273 0.148634 -0.506401
O11   O     O_2   0.354052 0.496596 0.850012 -0.444207
O12   O     O_2   0.645947 0.496597 0.149988 -0.444230
F1    F     F_    0.272749 0.496352 0.943340 -0.585597
F2    F     F_    0.727249 0.496354 0.056660 -0.585603
C49   C     C_3   0.499932 0.673557 0.207837 -0.411317
C50   C     C_3   0.586000 0.718739 0.211718 -0.341795
C51   C     C_3   0.587258 0.808725 0.179827 -0.722863
H9    H     H_    0.573251 0.797776 0.134104 0.249543
H10   H     H_    0.540437 0.856003 0.198130 0.270968
H11   H     H_    0.650141 0.839959 0.183541 0.262163
H12   H     H_    0.602361 0.731375 0.256936 0.245133
H13   H     H_    0.634112 0.673259 0.193103 0.265669
H14   H     H_    0.482832 0.665480 0.162406 0.209660
H15   H     H_    0.451807 0.718348 0.227144 0.224967
C52   C     C_3   0.500071 0.673556 0.792163 -0.411258
C53   C     C_3   0.414004 0.718742 0.788280 -0.341919
C54   C     C_3   0.412746 0.808726 0.820174 -0.722914
H16   H     H_    0.426745 0.797772 0.865898 0.249560
H17   H     H_    0.459573 0.856001 0.801876 0.270974
H18   H     H_    0.349865 0.839964 0.816456 0.262123
H19   H     H_    0.397648 0.731382 0.743062 0.245038
H20   H     H_    0.365890 0.673262 0.806891 0.265642
H21   H     H_    0.517168 0.665479 0.837595 0.209652
H22   H     H_    0.548198 0.718346 0.772858 0.224897
F3    F     F_    0.085516 0.662323 0.498202 -0.564871
F4    F     F_    0.914485 0.337693 0.501799 -0.562658
F5    F     F_    0.914484 0.662323 0.498177 -0.564885
F6    F     F_    0.085515 0.337693 0.501821 -0.562627
F7    F     F_    0.487876 0.092755 0.601363 -0.586236
F8    F     F_    0.512136 0.907217 0.398635 -0.593967
F9    F     F_    0.512124 0.092756 0.398637 -0.586368
F10   F     F_    0.487864 0.907217 0.601365 -0.594079

loop_
_geom_bond_atom_site_label_1
_geom_bond_atom_site_label_2
_ccdc_geom_bond_type
C38   C40   A    
C52   C53   S    
Cu1   O1    S    
Cu2   O2    S    
C41   C42   A    
C25   O5    A    
C2    O3    A    
C46   F2    S    
C39   C41   A    
C13   N2    S    
C49   C50   S    
C40   C46   A    
C14   N1    S    
Cu1   O3    S    
C28   C29   A    
C10   H8    S    
C27   F10   S    
C17   C20   A    
C8    C26   S    
C35   N1    A    
C18   C19   A    
C11   C49   S    
C50   H12   S    
C33   N4    T    
C52   H21   S    
C31   C33   S    
C54   H17   S    
C35   C43   A    
C43   C48   A    
C3    C13   A    
C44   C47   A    
C39   C45   A    
C40   C42   A    
C49   H14   S    
Cu1   O7    S    
C3    H3    S    
C27   C30   A    
C41   C43   A    
C42   C44   A    
C1    O1    A    
C2    O2    A    
C53   H20   S    
C45   C47   A    
C37   C39   A    
C46   C48   A    
C27   C31   A    
C28   C32   A    
C4    C6    A    
C6    H6    S    
C51   H10   S    
C50   C51   S    
C16   F6    S    
C47   H1    S    
C3    C5    A    
C34   N3    T    
C32   C34   S    
C15   C19   A    
C9    C11   A    
C16   C20   A    
C52   H22   S    
C1    O4    A    
C54   H18   S    
Cu2   O4    S    
C37   N1    A    
C10   C12   A    
C38   N2    A    
C16   C18   A    
C12   C14   A    
C49   H15   S    
C1    C23   S    
C2    C24   S    
C36   C44   A    
C5    C7    A    
C38   O12   S    
C7    C9    A    
C37   O11   S    
C53   H19   S    
Cu1   N4    S    
Cu1   O5    S    
C12   C52   S    
C4    H4    S    
Cu2   N3    S    
C5    H5    S    
C20   C22   S    
C36   N2    A    
C51   H11   S    
C6    C8    A    
C15   C17   A    
C7    C25   S    
C45   F1    S    
C26   O6    A    
Cu2   O8    S    
C29   C31   A    
C30   C32   A    
C11   C13   A    
C28   F9    S    
Cu2   O6    S    
C30   F7    S    
C29   F8    S    
C9    H7    S    
C4    C14   A    
C35   O9    S    
C51   H9    S    
C50   H13   S    
C48   H2    S    
C53   C54   S    
C8    C10   A    
Cu1   Cu2   S    
C15   F5    S    
C21   C24   T    
C26   O7    A    
C22   C23   T    
C25   O8    A    
C18   F4    S    
C54   H16   S    
C17   F3    S    
C36   O10   S    
C19   C21   S    
