data_mof_unit_28589.cif
_audit_creation_date              2012-12-10T16:47:49-0500
_audit_creation_method            fapswitch 2.2
_symmetry_space_group_name_H-M    P1
_symmetry_Int_Tables_number       1
_space_group_crystal_system       triclinic
_cell_length_a                    7.803919
_cell_length_b                    8.56126
_cell_length_c                    10.622315
_cell_angle_alpha                 91.720482
_cell_angle_beta                  83.527072
_cell_angle_gamma                 93.725149
_cell_volume                      703.493098662

loop_
_atom_site_label
_atom_site_type_symbol
_atom_type_description
_atom_site_fract_x
_atom_site_fract_y
_atom_site_fract_z
_atom_type_partial_charge
C1    C     C_R   0.545748 0.794351 0.488853 0.834157
C2    C     C_2   0.567606 0.953570 0.454719 -0.232257
C3    C     C_2   0.821581 0.608017 0.861000 0.528500
C4    C     C_2   0.329196 0.616259 0.936082 0.473391
C5    C     C_2   0.726000 0.003903 0.369650 0.513848
C6    C     C_2   0.432655 0.041323 0.491138 -0.353392
C7    C     C_R   0.500988 0.516659 0.738024 0.898489
C8    C     C_R   0.454852 0.205471 0.494919 0.982151
C9    C     C_R   0.501804 0.498099 0.262219 0.937792
C10   C     C_2   0.630866 0.596197 0.065299 -0.177945
C11   C     C_2   0.511701 0.500005 0.128891 -0.319721
C12   C     C_2   0.644606 0.595300 0.927443 -0.079374
C13   C     C_2   0.498913 0.570037 0.869499 -0.280857
F1    F     F_    0.029731 0.351709 0.390439 -0.514284
H1    H     H_    0.724204 0.667831 0.114207 0.200859
H2    H     H_    0.422722 0.420214 0.083245 0.182354
H3    H     H_    0.310529 0.993290 0.538523 0.174569
H4    H     H_    0.987026 0.623695 0.591378 0.138774
H5    H     H_    0.872924 0.511517 0.803443 0.099506
H6    H     H_    0.325546 0.713912 0.003797 0.097065
H7    H     H_    0.846209 0.948998 0.375765 0.076003
N1    N     N_2   0.950320 0.457950 0.466680 0.204665
N2    N     N_2   0.049680 0.542050 0.533320 -0.092811
O1    O     O_R   0.389250 0.738570 0.508180 -0.617989
O2    O     O_2   0.194581 0.541337 0.920175 -0.529783
O3    O     O_2   0.720813 0.099515 0.287286 -0.512681
O4    O     O_R   0.678390 0.711630 0.486820 -0.669119
O5    O     O_R   0.355470 0.513470 0.691600 -0.566544
O6    O     O_R   0.644610 0.486520 0.670240 -0.677793
O7    O     O_R   0.321610 0.288370 0.513180 -0.571660
O8    O     O_R   0.610750 0.261430 0.491820 -0.571051
O9    O     O_R   0.355390 0.513480 0.329760 -0.564989
O10   O     O_R   0.644530 0.486530 0.308400 -0.574686
O11   O     O_2   0.913655 0.726892 0.873867 -0.552940
Zn1   Zn    Zn3+2 0.306940 0.517990 0.514260 1.065213
Zn2   Zn    Zn3+2 0.693060 0.482010 0.485740 1.052539

loop_
_geom_bond_atom_site_label_1
_geom_bond_atom_site_label_2
_ccdc_geom_bond_type
C3    H5    S    
C7    O6    A    
O4    Zn2   S    
N1    Zn2   S    
C11   H2    S    
C9    O9    A    
C8    O7    A    
F1    N1    S    
C4    O2    D    
C9    O10   A    
C9    C11   S    
O6    Zn2   S    
C2    C6    D    
C10   C12   S    
O7    Zn1   S    
N2    Zn1   S    
C10   H1    S    
C2    C5    S    
C10   C11   D    
H4    N2    S    
O1    Zn1   S    
O9    Zn1   S    
C7    C13   S    
O10   Zn2   S    
C5    H7    S    
C12   C13   D    
C1    O1    A    
C1    C2    S    
C4    C13   S    
C1    O4    A    
C6    H3    S    
N1    N2    D    
C6    C8    S    
C3    C12   S    
C3    O11   D    
O8    Zn2   S    
C8    O8    A    
C7    O5    A    
C5    O3    D    
O5    Zn1   S    
C4    H6    S    
