data_mof_unit_67771.cif
_audit_creation_date              2012-12-10T16:50:55-0500
_audit_creation_method            fapswitch 2.2
_symmetry_space_group_name_H-M    P1
_symmetry_Int_Tables_number       1
_space_group_crystal_system       triclinic
_cell_length_a                    8.095938
_cell_length_b                    8.644493
_cell_length_c                    10.665013
_cell_angle_alpha                 92.342436
_cell_angle_beta                  87.739408
_cell_angle_gamma                 92.199326
_cell_volume                      744.684445385

loop_
_atom_site_label
_atom_site_type_symbol
_atom_type_description
_atom_site_fract_x
_atom_site_fract_y
_atom_site_fract_z
_atom_type_partial_charge
C1    C     C_R   0.543130 0.792206 0.498838 0.845727
C2    C     C_R   0.901240 0.433566 0.094686 0.412306
C3    C     C_R   0.061689 0.466504 0.058923 -0.306746
C4    C     C_R   0.918128 0.363269 0.967002 -0.253561
C5    C     C_R   0.193984 0.545929 0.115393 -0.348642
C6    C     C_R   0.782805 0.369979 0.889316 -0.082983
C7    C     C_R   0.350877 0.521449 0.056985 0.067903
C8    C     C_R   0.645753 0.452101 0.931862 0.037548
C9    C     C_R   0.354945 0.442476 0.936826 -0.070382
C10   C     C_R   0.645129 0.526938 0.050336 -0.002447
C11   C     C_R   0.496854 0.540995 0.121827 -0.129148
C12   C     C_R   0.457284 0.207418 0.500873 0.870968
C13   C     C_R   0.502107 0.441506 0.868079 -0.187705
C14   C     C_2   0.203488 0.244448 0.791657 0.917555
C15   C     C_2   0.823230 0.713043 0.168276 0.858662
C16   C     C_3   0.098533 0.717185 0.889188 0.091264
C17   C     C_3   0.039477 0.838450 0.803943 -0.651314
C18   C     C_3   0.859181 0.183128 0.185181 0.129836
C19   C     C_3   0.027532 0.107634 0.179262 -0.742204
C20   C     C_2   0.701277 0.009123 0.596283 1.021118
C21   C     C_2   0.300909 0.987306 0.401602 0.971785
C22   C     C_2   0.563123 0.954767 0.515069 -0.363846
C23   C     C_2   0.440301 0.044556 0.480625 -0.315484
C24   C     C_R   0.501189 0.480107 0.736765 0.867909
C25   C     C_R   0.498452 0.516244 0.260062 0.834836
C26   C     C_R   0.207184 0.376201 0.886305 -0.167926
C27   C     C_R   0.796223 0.559484 0.101513 -0.019135
C28   C     C_R   0.063284 0.447589 0.928026 0.517625
H1    H     H_    0.940635 0.239229 0.958082 0.110209
H2    H     H_    0.055885 0.752074 0.985738 0.162688
H3    H     H_    0.905826 0.817583 0.787754 0.278793
H4    H     H_    0.057212 0.955226 0.849357 0.227886
H5    H     H_    0.110122 0.834105 0.712563 0.262767
H6    H     H_    0.780292 0.145971 0.105736 0.162466
H7    H     H_    0.790429 0.140304 0.269808 0.219323
H8    H     H_    0.014053 0.986435 0.206873 0.318490
H9    H     H_    0.085965 0.107242 0.083606 0.187812
H10   H     H_    0.111899 0.170207 0.245086 0.258218
H11   H     H_    0.576551 0.950179 0.755409 0.318103
H12   H     H_    0.125767 0.378269 0.110668 0.214976
H13   H     H_    0.452037 0.905858 0.260812 0.311891
H14   H     H_    0.178625 0.619541 0.198249 0.255026
H15   H     H_    0.780187 0.300042 0.802543 0.226303
H16   H     H_    0.008968 0.375007 0.410922 0.241815
H17   H     H_    0.991045 0.622580 0.591486 0.227480
H18   H     H_    0.398660 0.141334 0.860823 0.303037
H19   H     H_    0.951094 0.631831 0.305155 0.331022
H20   H     H_    0.235724 0.718816 0.882347 0.177665
N1    N     N_2   0.950330 0.457950 0.466250 -0.153241
N2    N     N_2   0.049670 0.542050 0.533750 -0.147064
O1    O     O_R   0.389250 0.738570 0.508280 -0.596884
O2    O     O_R   0.323434 0.132211 0.787078 -0.828854
O3    O     O_2   0.756676 0.825341 0.129847 -0.650460
O4    O     O_R   0.914842 0.732888 0.275565 -0.744657
O5    O     O_3   0.029521 0.570417 0.851148 -0.589761
O6    O     O_3   0.877871 0.346026 0.202768 -0.647481
O7    O     O_2   0.832716 0.054377 0.548312 -0.477585
O8    O     O_R   0.684626 0.002857 0.726761 -0.824784
O9    O     O_2   0.158744 0.005271 0.440030 -0.493689
O10   O     O_R   0.330064 0.910792 0.285206 -0.805922
O11   O     O_R   0.610750 0.261430 0.491720 -0.604927
O12   O     O_R   0.678390 0.711630 0.486650 -0.586401
O13   O     O_R   0.321610 0.288370 0.513350 -0.565423
O14   O     O_R   0.355430 0.513480 0.694040 -0.599015
O15   O     O_R   0.644570 0.486520 0.305960 -0.581072
O16   O     O_R   0.644570 0.486540 0.672410 -0.610406
O17   O     O_R   0.355430 0.513460 0.327590 -0.630519
O18   O     O_2   0.091894 0.231698 0.717788 -0.511841
Zn1   Zn    Zn3+2 0.306940 0.517990 0.514440 1.021889
Zn2   Zn    Zn3+2 0.693060 0.482010 0.485560 1.028610

loop_
_geom_bond_atom_site_label_1
_geom_bond_atom_site_label_2
_ccdc_geom_bond_type
C10   C27   A    
O11   Zn2   S    
C2    C4    A    
C5    H14   S    
C8    C13   A    
C19   H10   S    
C24   O16   A    
C1    O1    A    
C18   H7    S    
C26   C28   A    
C4    H1    S    
C25   O17   A    
C18   O6    S    
N1    Zn2   S    
C2    C27   A    
O1    Zn1   S    
C1    O12   A    
C16   H20   S    
C2    C3    A    
C20   O7    D    
C16   O5    S    
C1    C22   S    
C24   O14   A    
C2    O6    S    
O14   Zn1   S    
C14   C26   S    
C7    C11   A    
C12   O11   A    
C18   H6    S    
C12   C23   S    
O16   Zn2   S    
C17   H5    S    
H17   N2    S    
H19   O4    S    
C6    C8    A    
C15   O3    D    
C8    C10   A    
C3    C28   A    
C4    C28   A    
C28   O5    S    
C20   C22   S    
C9    C26   A    
C21   O9    D    
C5    C7    A    
C19   H8    S    
C21   C23   S    
C15   C27   S    
C17   H3    S    
C10   C11   A    
C11   C25   S    
H13   O10   S    
C16   H2    S    
O15   Zn2   S    
C15   O4    S    
H18   O2    S    
C25   O15   A    
O12   Zn2   S    
C21   O10   S    
C4    C6    A    
N1    N2    D    
C7    C9    A    
C17   H4    S    
C9    C13   A    
C6    H15   S    
C18   C19   S    
C14   O18   D    
C19   H9    S    
C3    C5    A    
C3    H12   S    
C12   O13   A    
H11   O8    S    
C20   O8    S    
N2    Zn1   S    
C22   C23   D    
C14   O2    S    
O13   Zn1   S    
C13   C24   S    
C16   C17   S    
O17   Zn1   S    
H16   N1    S    
