data_mof_unit_28500.cif
_audit_creation_date              2012-12-11T16:35:13-0500
_audit_creation_method            fapswitch 2.2
_symmetry_space_group_name_H-M    P1
_symmetry_Int_Tables_number       1
_space_group_crystal_system       triclinic
_cell_length_a                    6.931831
_cell_length_b                    17.704719
_cell_length_c                    19.433033
_cell_angle_alpha                 109.045118
_cell_angle_beta                  90.291045
_cell_angle_gamma                 90.752734
_cell_volume                      2254.08840402

loop_
_atom_site_label
_atom_site_type_symbol
_atom_type_description
_atom_site_fract_x
_atom_site_fract_y
_atom_site_fract_z
_atom_type_partial_charge
O1    O     O_R   0.505700 0.440210 0.561730 -0.545068
O2    O     O_R   0.169350 0.406300 0.412660 -0.521636
O3    O     O_R   0.005650 0.559790 0.438270 -0.506710
C1    C     C_R   0.337573 0.384604 0.383696 0.814799
O4    O     O_R   0.175560 0.430650 0.559600 -0.550994
O5    O     O_R   0.011900 0.584320 0.586250 -0.541420
C2    C     C_R   0.344346 0.415052 0.580627 0.673241
O6    O     O_R   0.499450 0.415680 0.413750 -0.533285
O7    O     O_3   0.341370 0.550390 0.508570 -0.355031
V1    V     V_3+5 0.063940 0.490650 0.498410 1.483785
O8    O     O_R   0.682570 0.593700 0.587340 -0.542734
C3    C     C_R   0.852726 0.616573 0.614981 0.676531
O9    O     O_R   0.676370 0.569350 0.440400 -0.535686
C4    C     C_R   0.845748 0.585132 0.419453 0.757023
V2    V     V_3+5 0.564750 0.509350 0.501590 1.479669
O10   O     O_3   0.837190 0.449610 0.491430 -0.377427
C5    C     C_R   0.038819 0.730582 0.328053 0.454203
C6    C     C_R   0.023540 0.683644 0.373766 -0.146818
H1    H     H_    0.139216 0.685986 0.412152 0.162971
C7    C     C_R   0.858819 0.635686 0.371677 -0.112296
C8    C     C_R   0.708587 0.635935 0.323086 -0.139324
H2    H     H_    0.579757 0.600139 0.320554 0.195091
C9    C     C_R   0.725253 0.680747 0.275813 -0.136831
H3    H     H_    0.608600 0.678394 0.237893 0.205502
C10   C     C_R   0.891027 0.727714 0.276784 0.029566
C11   C     C_R   0.757103 0.829256 0.225898 -0.152294
H4    H     H_    0.638220 0.837534 0.263491 0.185791
C12   C     C_R   0.763261 0.874027 0.178338 -0.140276
H5    H     H_    0.649080 0.915832 0.180406 0.128019
C13   C     C_R   0.917276 0.866255 0.129885 -0.126855
C14   C     C_R   0.062040 0.811051 0.128621 -0.168710
H6    H     H_    0.179522 0.802620 0.090404 0.179129
C15   C     C_R   0.053949 0.764432 0.174710 0.499893
C16   C     C_R   0.903098 0.774714 0.225540 0.029157
C17   C     C_R   0.793429 0.905894 0.750901 -0.147654
C18   C     C_R   0.730323 0.918529 0.687416 -0.121797
C19   C     C_R   0.712426 0.854683 0.623021 -0.102680
C20   C     C_R   0.757326 0.777718 0.621638 -0.136412
C21   C     C_R   0.819791 0.762843 0.685444 0.062574
C22   C     C_R   0.838383 0.828245 0.751417 0.070094
C23   C     C_R   0.867433 0.684703 0.684001 -0.157737
C24   C     C_R   0.933815 0.671938 0.748487 0.075119
C25   C     C_R   0.952290 0.737309 0.814459 0.008620
C26   C     C_R   0.904605 0.815433 0.815884 -0.156687
C27   C     C_R   0.979055 0.594360 0.749005 -0.217095
C28   C     C_R   0.042259 0.581676 0.812456 -0.160862
C29   C     C_R   0.059977 0.645490 0.876973 0.450954
C30   C     C_R   0.014748 0.722475 0.878298 -0.185693
H7    H     H_    0.807985 0.957838 0.799204 0.102826
H8    H     H_    0.696416 0.978308 0.688125 0.119637
H9    H     H_    0.664645 0.864880 0.573704 0.133796
H10   H     H_    0.743698 0.730366 0.569893 0.101777
H11   H     H_    0.964569 0.542488 0.700678 0.122181
H12   H     H_    0.076193 0.521788 0.811432 0.151646
H13   H     H_    0.027941 0.770035 0.929936 0.132411
C31   C     C_R   0.365059 0.223658 0.383992 -0.145314
C32   C     C_R   0.389316 0.146975 0.387469 -0.106155
C33   C     C_R   0.423161 0.083467 0.324468 -0.101985
C34   C     C_R   0.433250 0.096223 0.257550 -0.148822
C35   C     C_R   0.409817 0.173459 0.252310 0.072457
C36   C     C_R   0.374520 0.238727 0.316741 0.054825
C37   C     C_R   0.421533 0.185876 0.184211 -0.150915
C38   C     C_R   0.397112 0.263787 0.180352 0.036017
C39   C     C_R   0.358704 0.330419 0.244302 -0.022406
C40   C     C_R   0.349565 0.317189 0.313499 -0.173685
C41   C     C_R   0.409884 0.275621 0.112196 -0.174850
C42   C     C_R   0.387147 0.350172 0.105254 -0.167026
C43   C     C_R   0.346912 0.415969 0.165653 0.097967
C44   C     C_R   0.330403 0.407089 0.235134 0.331037
H14   H     H_    0.337882 0.270711 0.434684 0.082591
H15   H     H_    0.381526 0.136817 0.439396 0.125201
H16   H     H_    0.441890 0.023974 0.327413 0.139984
H17   H     H_    0.460621 0.044964 0.210076 0.091548
H18   H     H_    0.438493 0.227014 0.062822 0.107765
H19   H     H_    0.399392 0.356168 0.051696 0.145957
C45   C     C_R   0.531739 0.269964 0.672117 0.188220
C46   C     C_R   0.517600 0.317546 0.626758 -0.165435
H20   H     H_    0.633355 0.317302 0.589399 0.124159
C47   C     C_R   0.354405 0.364170 0.627975 -0.081360
C48   C     C_R   0.202701 0.362065 0.674905 -0.164919
H21   H     H_    0.074686 0.397042 0.676728 0.122123
C49   C     C_R   0.217032 0.316735 0.721709 -0.171735
H22   H     H_    0.100271 0.318248 0.758938 0.123847
C50   C     C_R   0.381506 0.271123 0.721836 0.082451
C51   C     C_R   0.247034 0.170606 0.775847 -0.155907
H23   H     H_    0.124192 0.160740 0.739120 0.124260
C52   C     C_R   0.259773 0.126886 0.824052 -0.193742
H24   H     H_    0.145546 0.084169 0.823046 0.126047
C53   C     C_R   0.419464 0.136213 0.871474 -0.065187
C54   C     C_R   0.565718 0.193381 0.871010 0.130691
C55   C     C_R   0.547931 0.238085 0.823285 -0.115265
H25   H     H_    0.655715 0.283376 0.824546 0.118523
C56   C     C_R   0.392782 0.225520 0.774063 0.057848
O11   O     O_R   0.273230 0.084330 0.086440 -0.533833
O12   O     O_R   0.596660 0.069390 0.940470 -0.542769
O13   O     O_R   0.760270 0.915710 0.913690 -0.533368
C57   C     C_R   0.428198 0.085805 0.919936 0.689381
O14   O     O_R   0.603330 0.093680 0.087390 -0.539023
O15   O     O_R   0.766990 0.940160 0.061660 -0.536594
C58   C     C_R   0.435036 0.115930 0.115879 0.693539
O16   O     O_R   0.266510 0.059870 0.938470 -0.541403
O17   O     O_3   0.431050 0.949630 0.991510 -0.361787
V3    V     V_3+5 0.708490 0.009340 0.001580 1.427388
O18   O     O_R   0.096270 0.930570 0.059390 -0.544454
C59   C     C_R   0.927358 0.915502 0.080982 0.719541
O19   O     O_R   0.089600 0.906290 0.912460 -0.539757
C60   C     C_R   0.919396 0.883529 0.884860 0.696051
V4    V     V_3+5 0.207670 0.990600 0.998190 1.438545
O20   O     O_3   0.935250 0.050360 0.008480 -0.370082
Cl1   Cl    Cl    0.239693 0.795804 0.340053 -0.677168
C61   C     C_3   0.319904 0.495735 0.154809 -0.547787
H26   H     H_    0.338799 0.492110 0.097083 0.215265
H27   H     H_    0.172199 0.517577 0.171293 0.253115
H28   H     H_    0.427675 0.539587 0.188107 0.228948
Cl2   Cl    Cl    0.264657 0.494100 0.306320 -0.711913
C62   C     C_3   0.703067 0.216160 0.664085 -0.810229
H29   H     H_    0.798309 0.237534 0.712693 0.199920
H30   H     H_    0.653230 0.154106 0.656642 0.216564
H31   H     H_    0.791172 0.214717 0.616092 0.211481
C63   C     C_3   0.740081 0.209173 0.920801 -0.741754
H32   H     H_    0.694628 0.223264 0.978195 0.203340
H33   H     H_    0.834600 0.156257 0.905257 0.216028
H34   H     H_    0.828087 0.260653 0.917272 0.201724
Cl3   Cl    Cl    0.229151 0.690490 0.163595 -0.620539
Cl4   Cl    Cl    0.137393 0.628920 0.956906 -0.603177

loop_
_geom_bond_atom_site_label_1
_geom_bond_atom_site_label_2
_ccdc_geom_bond_type
C30   H13   S    
O15   V3    S    
C52   H24   S    
C23   C24   A    
C61   H26   S    
O18   V4    S    
C1    O6    A    
C5    Cl1   S    
C45   C50   A    
C32   C33   A    
C21   C23   A    
C51   H23   S    
C62   H29   S    
O11   V4    S    
C11   H4    S    
C19   C20   A    
C12   H5    S    
O5    C3    A    
C13   C14   A    
C19   H9    S    
C20   H10   S    
O19   C60   A    
V2    O10   S    
C41   H18   S    
V4    O20   S    
C35   C37   A    
C6    H1    S    
C1    C40   S    
O8    V2    S    
C11   C16   A    
C17   C18   A    
O12   V3    S    
C43   C44   A    
C17   H7    S    
C15   Cl3   S    
C9    H3    S    
C14   C15   A    
O17   V4    S    
O1    V2    S    
C25   C30   A    
C34   H17   S    
C63   H34   S    
C46   H20   S    
C10   C16   S    
O16   V4    S    
C46   C47   A    
C41   C42   A    
C38   C41   A    
C27   H11   S    
C34   C35   A    
O9    C4    A    
C51   C56   A    
O18   C59   A    
C63   H33   S    
C29   Cl4   S    
C51   C52   A    
O15   C59   A    
C42   C43   A    
C4    C7    S    
C45   C46   A    
C48   C49   A    
C21   C22   A    
O4    C2    A    
C33   C34   A    
C27   C28   A    
C38   C39   A    
C53   C57   S    
C35   C36   A    
C24   C27   A    
C54   C63   S    
O2    C1    A    
C25   C26   A    
C3    C23   S    
C55   C56   A    
C29   C30   A    
O11   C58   A    
C28   H12   S    
C37   C38   A    
C5    C6    A    
C61   H27   S    
C39   C44   A    
C32   H15   S    
O3    C4    A    
C62   H30   S    
C37   C58   S    
O13   C60   A    
O6    V2    S    
C31   H14   S    
O9    V2    S    
C13   C59   S    
C42   H19   S    
C31   C32   A    
O2    V1    S    
C55   H25   S    
C18   H8    S    
C63   H32   S    
C2    C47   S    
O7    V1    S    
C26   C60   S    
C28   C29   A    
C44   Cl2   S    
O1    C2    A    
C11   C12   A    
C14   H6    S    
C48   H21   S    
O5    V1    S    
O8    C3    A    
O12   C57   A    
C49   C50   A    
C62   H31   S    
V3    O20   S    
C5    C10   A    
C39   C40   A    
C8    C9    A    
C17   C22   A    
O7    V2    S    
O4    V1    S    
O3    V1    S    
V1    O10   S    
C33   H16   S    
C54   C55   A    
C20   C21   A    
O19   V4    S    
C12   C13   A    
C45   C62   S    
C15   C16   A    
C61   H28   S    
C6    C7    A    
C50   C56   S    
C9    C10   A    
O17   V3    S    
O14   C58   A    
C47   C48   A    
C36   C40   A    
C22   C26   A    
C7    C8    A    
C18   C19   A    
C49   H22   S    
C24   C25   A    
O13   V3    S    
C52   C53   A    
C31   C36   A    
C53   C54   A    
C8    H2    S    
C43   C61   S    
C57   O16   A    
O14   V3    S    
