data_mof_unit_22268.cif
_audit_creation_date              2012-12-11T14:49:48-0500
_audit_creation_method            fapswitch 2.2
_symmetry_space_group_name_H-M    P1
_symmetry_Int_Tables_number       1
_space_group_crystal_system       triclinic
_cell_length_a                    16.883532
_cell_length_b                    16.7513
_cell_length_c                    19.432424
_cell_angle_alpha                 117.925591
_cell_angle_beta                  62.290736
_cell_angle_gamma                 100.843229
_cell_volume                      4295.96397464

loop_
_atom_site_label
_atom_site_type_symbol
_atom_type_description
_atom_site_fract_x
_atom_site_fract_y
_atom_site_fract_z
_atom_type_partial_charge
C1    C     C_R   0.050166 0.756488 0.001304 0.201672
C2    C     C_R   0.251796 0.521344 0.827657 -0.133995
C3    C     C_R   0.183047 0.490417 0.088222 -0.136698
C4    C     C_R   0.764279 0.418448 0.164025 -0.145358
C5    C     C_R   0.988278 0.340102 0.758992 -0.146830
C6    C     C_R   0.257143 0.541018 0.065853 0.068213
C7    C     C_R   0.940099 0.263364 0.758379 0.083042
C8    C     C_R   0.258659 0.460335 0.745807 0.072885
C9    C     C_R   0.029966 0.222425 0.001589 0.060950
C10   C     C_R   0.853757 0.129914 0.704878 -0.261459
C11   C     C_R   0.903590 0.204612 0.696063 0.115085
C12   C     C_R   0.767595 0.436879 0.239883 0.088063
C13   C     C_R   0.924388 0.218644 0.623667 -0.262951
C14   C     C_R   0.907508 0.152470 0.555041 0.143211
C15   C     C_R   0.867263 0.072465 0.560056 0.027367
C16   C     C_R   0.804849 0.561278 0.962314 -0.124383
C17   C     C_R   0.836184 0.063192 0.636912 0.143539
C18   C     C_R   0.938171 0.161147 0.478361 -0.206593
C19   C     C_R   0.938116 0.087164 0.404116 -0.207868
C20   C     C_R   0.907526 0.004191 0.406261 0.143887
C21   C     C_R   0.867107 0.998184 0.485504 0.026437
C22   C     C_R   0.835831 0.915095 0.488287 0.141380
C23   C     C_R   0.723446 0.549763 0.023312 0.057543
C24   C     C_R   0.795707 0.909590 0.567259 -0.205000
C25   C     C_R   0.796026 0.983456 0.641401 -0.208046
C26   C     C_R   0.926267 0.925296 0.329621 -0.257931
C27   C     C_R   0.908471 0.840924 0.331784 0.115533
C28   C     C_R   0.950597 0.672483 0.248521 -0.128576
C29   C     C_R   0.854893 0.837009 0.411097 -0.257821
C30   C     C_R   0.424664 0.436812 0.671473 -0.257015
C31   C     C_R   0.341610 0.416235 0.667929 0.115929
C32   C     C_R   0.339127 0.361744 0.587797 -0.257237
C33   C     C_R   0.417397 0.341662 0.511285 0.141086
C34   C     C_R   0.956031 0.758568 0.254204 0.082841
C35   C     C_R   0.499203 0.373906 0.515421 0.026188
C36   C     C_R   0.503534 0.417471 0.595610 0.141075
C37   C     C_R   0.413728 0.298181 0.431243 -0.205013
C38   C     C_R   0.488527 0.295192 0.356903 -0.206838
C39   C     C_R   0.567370 0.335708 0.362223 0.143973
C40   C     C_R   0.738451 0.484142 0.040730 -0.126745
C41   C     C_R   0.574366 0.370986 0.440707 0.028211
C42   C     C_R   0.653394 0.411851 0.446609 0.145748
C43   C     C_R   0.659859 0.446575 0.524877 -0.209947
C44   C     C_R   0.585150 0.449298 0.599168 -0.203725
C45   C     C_R   0.250051 0.569511 0.012558 -0.142668
C46   C     C_R   0.635593 0.349677 0.293098 -0.262421
C47   C     C_R   0.709157 0.400861 0.302579 0.108702
C48   C     C_R   0.720922 0.425466 0.376929 -0.279409
C49   C     C_R   0.636873 0.594085 0.059116 0.131358
C50   C     C_R   0.323917 0.568943 0.100364 0.129594
C51   C     C_R   0.402834 0.538952 0.163188 -0.223581
C52   C     C_R   0.017800 0.752285 0.173357 -0.152706
C53   C     C_R   0.327282 0.530311 0.149461 -0.174715
C54   C     C_R   0.391328 0.626513 0.075666 -0.280548
C55   C     C_R   0.469365 0.630533 0.084101 0.189020
C56   C     C_R   0.921355 0.261379 0.834967 -0.137197
C57   C     C_R   0.476541 0.582880 0.124708 0.187685
C58   C     C_R   0.560001 0.569173 0.115710 -0.276092
C59   C     C_R   0.628225 0.651657 0.028551 -0.170150
C60   C     C_R   0.544144 0.671227 0.042463 -0.225723
C61   C     C_R   0.821682 0.166262 0.125718 0.110824
C62   C     C_R   0.973602 0.859331 0.981777 0.132690
C63   C     C_R   0.912004 0.941550 0.941071 -0.228335
C64   C     C_R   0.842833 0.487053 0.239902 -0.147944
C65   C     C_R   0.952920 0.863592 0.921375 -0.182532
C66   C     C_R   0.955256 0.935670 0.061546 -0.272612
C67   C     C_R   0.172553 0.451459 0.751055 -0.131014
C68   C     C_R   0.913595 0.013997 0.082138 0.187496
C69   C     C_R   0.890259 0.016294 0.021930 0.193597
C70   C     C_R   0.843573 0.092460 0.044671 -0.287176
C71   C     C_R   0.846054 0.164772 0.184620 -0.148985
C72   C     C_R   0.891637 0.088891 0.163236 -0.231649
C73   C     C_R   0.966608 0.688788 0.930373 -0.192193
C74   C     C_R   0.999678 0.771723 0.968355 0.038383
C75   C     C_3   0.131082 0.808565 0.009481 -0.420044
C76   C     C_3   0.199623 0.808912 0.923699 -0.866318
C77   C     C_R   0.052033 0.307659 0.050965 -0.124561
C78   C     C_R   0.974318 0.238630 0.973902 -0.112046
H1    H     H_    0.874146 0.219340 0.862676 0.083735
H2    H     H_    0.967719 0.222981 0.474236 0.126875
H3    H     H_    0.723264 0.369697 0.135933 0.085321
H4    H     H_    0.967849 0.093026 0.343872 0.124188
H5    H     H_    0.962664 0.929890 0.268879 0.111844
H6    H     H_    0.835799 0.772862 0.413843 0.118685
H7    H     H_    0.770115 0.846405 0.570392 0.129555
H8    H     H_    0.770408 0.976151 0.700595 0.127671
H9    H     H_    0.428278 0.474795 0.732722 0.119067
H10   H     H_    0.276091 0.341387 0.583893 0.118646
H11   H     H_    0.351571 0.271837 0.427041 0.129867
H12   H     H_    0.152165 0.409082 0.700359 0.095949
H13   H     H_    0.482849 0.266539 0.296567 0.128631
H14   H     H_    0.626853 0.327078 0.235127 0.116587
H15   H     H_    0.816311 0.604037 0.931511 0.089379
H16   H     H_    0.778636 0.462052 0.384305 0.118628
H17   H     H_    0.720766 0.476827 0.529875 0.127466
H18   H     H_    0.589645 0.481653 0.660258 0.129668
H19   H     H_    0.564842 0.529420 0.144305 0.118274
H20   H     H_    0.686064 0.676240 0.988654 0.117034
H21   H     H_    0.407042 0.503403 0.195868 0.126865
H22   H     H_    0.539082 0.709935 0.012852 0.126578
H23   H     H_    0.092752 0.321336 0.084500 0.097735
H24   H     H_    0.275014 0.488068 0.172057 0.114482
H25   H     H_    0.388554 0.660213 0.041077 0.116282
H26   H     H_    0.823701 0.094945 0.000132 0.115515
H27   H     H_    0.908985 0.650923 0.298307 0.094821
H28   H     H_    0.828841 0.222322 0.247177 0.129547
H29   H     H_    0.895076 0.942429 0.894043 0.125989
H30   H     H_    0.908899 0.088371 0.210219 0.126061
H31   H     H_    0.966056 0.805549 0.859747 0.120015
H32   H     H_    0.967724 0.932243 0.109991 0.111619
H33   H     H_    0.691015 0.456632 0.084059 0.095236
H34   H     H_    0.943109 0.188022 0.935156 0.095303
H35   H     H_    0.037475 0.807125 0.155876 0.090417
H36   H     H_    0.874025 0.501433 0.281810 0.085834
H37   H     H_    0.935657 0.672980 0.888058 0.102703
H38   H     H_    0.288174 0.620430 0.992521 0.088018
H39   H     H_    0.219716 0.738500 0.872360 0.258780
H40   H     H_    0.171524 0.845226 0.904113 0.260171
H41   H     H_    0.260048 0.843878 0.930762 0.245480
H42   H     H_    0.111076 0.879184 0.059867 0.183035
H43   H     H_    0.164242 0.776146 0.028358 0.193820
H44   H     H_    0.304774 0.543957 0.848002 0.098140
H45   H     H_    0.159716 0.468607 0.138541 0.084222
H46   H     H_    0.002703 0.371096 0.716827 0.087230
H47   H     H_    0.834553 0.119291 0.761285 0.115692
H48   H     H_    0.959951 0.277258 0.616867 0.116018
N1    N     N_R   0.036080 0.671900 0.995420 -0.061931
N2    N     N_R   0.867430 0.509300 0.948100 -0.037829
N3    N     N_R   0.003360 0.617250 0.167070 -0.039827
N4    N     N_R   0.825450 0.461270 0.995400 -0.040843
N5    N     N_R   0.045340 0.665280 0.119770 -0.043294
N6    N     N_R   0.883740 0.497640 0.167070 -0.038099
N7    N     N_R   0.987050 0.628910 0.948110 -0.046647
N8    N     N_R   0.174550 0.538730 0.004600 -0.038277
N9    N     N_R   0.954660 0.334720 0.880230 -0.038978
N10   N     N_R   0.116260 0.502360 0.832930 -0.040011
N11   N     N_R   0.012950 0.371090 0.051890 -0.041417
N12   N     N_R   0.963920 0.328100 0.004580 -0.042646
N13   N     N_R   0.165290 0.545350 0.880240 -0.040072
N14   N     N_R   0.132570 0.490700 0.051900 -0.037459
N15   N     N_R   0.996640 0.382750 0.832930 -0.038079
N16   N     N_R   0.834710 0.454650 0.119760 -0.037933
Ni1   Ni    Ni4+2 0.104370 0.604370 0.000010 0.208579
Ni2   Ni    Ni4+2 0.895630 0.395630 0.999990 0.209011
Ni3   Ni    Ni4+2 0.991920 0.505780 0.891500 0.211431
Ni4   Ni    Ni4+2 0.008080 0.494220 0.108500 0.209085

loop_
_geom_bond_atom_site_label_1
_geom_bond_atom_site_label_2
_ccdc_geom_bond_type
C61   C70   A    
C66   C68   A    
C63   C65   A    
C26   H5    S    
C6    C45   A    
C27   C29   A    
C41   C42   A    
C14   C18   A    
C77   H23   S    
C35   C36   A    
C75   C76   S    
C3    C6    A    
C39   C41   A    
C52   H35   S    
C7    C11   S    
C5    H46   S    
C26   C27   A    
C50   C54   A    
C56   H1    S    
C48   H16   S    
C1    C74   A    
C22   C29   A    
C77   N11   A    
C18   C19   A    
C12   C47   S    
C4    N16   A    
C30   C31   A    
C12   C64   A    
C70   H26   S    
N2    Ni3   S    
C23   C49   S    
C46   H14   S    
C10   C17   A    
C23   C40   A    
C32   H10   S    
N6    Ni4   S    
C28   N3    A    
C73   C74   A    
N8    Ni1   S    
C54   C55   A    
N13   Ni1   S    
C4    H3    S    
C63   C69   A    
C68   C69   A    
C43   H17   S    
C51   C57   A    
C13   C14   A    
C4    C12   A    
C19   H4    S    
N4    Ni2   S    
C24   H7    S    
C53   H24   S    
N10   Ni3   S    
N15   Ni3   S    
C61   C71   A    
C28   C34   A    
C59   C60   A    
C55   C60   A    
N6    N16   A    
C8    C31   S    
C58   H19   S    
C7    C56   A    
N10   N13   A    
C78   N12   A    
C3    H45   S    
C40   H33   S    
C2    H44   S    
C27   C34   S    
C51   H21   S    
C76   H41   S    
C64   H36   S    
C62   C66   A    
C1    C75   S    
C64   N6    A    
C54   H25   S    
C24   C25   A    
C29   H6    S    
N1    N7    A    
N14   Ni4   S    
C5    C7    A    
N1    Ni1   S    
C38   H13   S    
C67   H12   S    
C33   C37   A    
C49   C58   A    
C51   C53   A    
C43   C44   A    
C37   C38   A    
C44   H18   S    
N11   Ni4   S    
C5    N15   A    
C47   C48   A    
N9    N15   A    
C28   H27   S    
C68   C72   A    
C45   N8    A    
C42   C48   A    
C66   H32   S    
C16   N2    A    
C65   H31   S    
N3    Ni4   S    
C39   C46   A    
C13   H48   S    
N9    Ni2   S    
C73   N7    A    
C16   C23   A    
C55   C57   A    
N16   Ni2   S    
C36   C44   A    
N7    Ni3   S    
C42   C43   A    
C2    N13   A    
C63   H29   S    
C10   H47   S    
C56   N9    A    
N5    Ni1   S    
C15   C17   A    
C40   N4    A    
C46   C47   A    
C6    C50   S    
C62   C65   A    
C75   H43   S    
C52   N5    A    
C31   C32   A    
C2    C8    A    
C75   H42   S    
C1    N1    A    
C60   H22   S    
N2    N4    A    
C30   C36   A    
N11   N12   A    
C34   C52   A    
C76   H39   S    
C49   C59   A    
C37   H11   S    
C16   H15   S    
C32   C33   A    
C19   C20   A    
C67   N10   A    
C9    C77   A    
C17   C25   A    
C71   C72   A    
N12   Ni2   S    
C73   H37   S    
N8    N14   A    
C11   C13   A    
C45   H38   S    
C57   C58   A    
C38   C39   A    
C20   C26   A    
C25   H8    S    
C33   C35   A    
C22   C24   A    
C9    C78   A    
C72   H30   S    
C69   C70   A    
C35   C41   A    
C76   H40   S    
C10   C11   A    
C15   C21   A    
C20   C21   A    
C8    C67   A    
C18   H2    S    
C71   H28   S    
C59   H20   S    
C14   C15   A    
C62   C74   S    
C78   H34   S    
C3    N14   A    
C30   H9    S    
C21   C22   A    
C50   C53   A    
N3    N5    A    
