data_mof_unit_58332.cif
_audit_creation_date              2013-03-05T16:03:41-0500
_audit_creation_method            fapswitch 2.2
_symmetry_space_group_name_H-M    P1
_symmetry_Int_Tables_number       1
_space_group_crystal_system       triclinic
_cell_length_a                    8.712799
_cell_length_b                    10.800454
_cell_length_c                    9.636254
_cell_angle_alpha                 89.225166
_cell_angle_beta                  97.773717
_cell_angle_gamma                 92.480664
_cell_volume                      897.590228986

loop_
_atom_site_label
_atom_site_type_symbol
_atom_site_description
_atom_site_fract_x
_atom_site_fract_y
_atom_site_fract_z
_atom_type_partial_charge
O1    O     O_R   0.499990 0.319660 0.618740 -0.627170
O2    O     O_R   0.500010 0.680340 0.381260 -0.627170
O3    O     O_R   0.499990 0.319630 0.381170 -0.515961
O4    O     O_R   0.500010 0.680370 0.618830 -0.515961
C1    C     C_R   0.504295 0.262770 0.501160 0.858845
C2    C     C_R   0.495705 0.737230 0.498840 0.858844
O5    O     O_R   0.274840 0.500010 0.591370 -0.604282
O6    O     O_R   0.725160 0.499990 0.408630 -0.604282
O7    O     O_R   0.274830 0.499980 0.353800 -0.534229
O8    O     O_R   0.725170 0.500020 0.646200 -0.534228
C3    C     C_R   0.204167 0.498968 0.464075 0.898312
C4    C     C_R   0.795833 0.501032 0.535925 0.898311
Cu1   Cu    Cu3+1 0.500000 0.500020 0.640660 1.057501
Cu2   Cu    Cu3+1 0.500000 0.499980 0.359340 1.057501
N1    N     N_R   0.500040 0.500030 0.852080 -0.286522
N2    N     N_R   0.499960 0.499970 0.147920 -0.286522
C5    C     C_2   0.038024 0.496128 0.444706 -0.263913
C6    C     C_2   0.961976 0.503872 0.555294 -0.263912
H1    H     H_    0.978020 0.486399 0.338847 0.234282
H2    H     H_    0.021980 0.513602 0.661153 0.234283
C7    C     C_R   0.590906 0.066087 0.410676 0.377154
C8    C     C_R   0.409094 0.933913 0.589324 0.377154
C9    C     C_R   0.578895 0.937400 0.407476 -0.240561
C10   C     C_R   0.421105 0.062600 0.592524 -0.240561
H3    H     H_    0.644490 0.888728 0.339331 0.183917
H4    H     H_    0.355510 0.111272 0.660669 0.183917
C11   C     C_R   0.491015 0.871180 0.496977 -0.171480
C12   C     C_R   0.508985 0.128820 0.503023 -0.171480
C13   C     C_R   0.392642 0.429145 0.063114 0.453439
C14   C     C_R   0.607357 0.570855 0.936886 0.453440
C15   C     C_R   0.390670 0.430298 0.914270 -0.069644
C16   C     C_R   0.609330 0.569702 0.085730 -0.069644
N3    N     N_R   0.691970 0.130595 0.325074 0.150220
O9    O     O_R   0.786927 0.219376 0.377866 -0.345427
O10   O     O_R   0.706503 0.088545 0.201798 -0.272293
N4    N     N_R   0.308030 0.869405 0.674926 0.150220
O11   O     O_R   0.213073 0.780623 0.622134 -0.345427
O12   O     O_R   0.293497 0.911455 0.798202 -0.272292
N5    N     N_R   0.288871 0.345572 0.125142 0.158757
O13   O     O_R   0.320818 0.229101 0.138049 -0.305427
O14   O     O_R   0.147703 0.377162 0.132133 -0.263984
N6    N     N_R   0.711127 0.654430 0.874858 0.158758
O15   O     O_R   0.679179 0.770901 0.861954 -0.305426
O16   O     O_R   0.852294 0.622842 0.867864 -0.263984
C17   C     C_2   0.267494 0.355538 0.827679 0.518232
H5    H     H_    0.290736 0.305750 0.737935 0.085301
O17   O     O_2   0.134540 0.350097 0.854737 -0.475069
C18   C     C_2   0.732506 0.644462 0.172321 0.518232
H6    H     H_    0.709264 0.694249 0.262065 0.085301
O18   O     O_2   0.865460 0.649904 0.145262 -0.475069

loop_
_geom_bond_atom_site_label_1
_geom_bond_atom_site_label_2
_geom_bond_distance
_ccdc_geom_bond_type
C14   C16   1.431967 A    
O7    Cu2   1.955357 S    
N1    C15   1.383679 A    
Cu2   N2    2.037250 S    
C9    C11   1.398631 A    
N2    C16   1.383679 A    
C1    C12   1.448870 S    
C8    N4    1.438428 S    
C2    C11   1.448870 S    
O6    C4    1.295911 A    
O7    C3    1.297870 A    
C13   N5    1.431935 S    
C18   O18   1.220133 D    
N3    O9    1.301300 A    
C13   C15   1.431967 A    
C17   H5    1.071177 S    
O5    C3    1.295910 A    
C16   C18   1.483553 S    
O2    C2    1.301929 A    
O3    Cu2   1.956355 S    
N6    O16   1.301195 A    
O1    C1    1.301929 A    
O8    C4    1.297872 A    
N4    O12   1.301426 A    
C18   H6    1.071175 S    
N3    O10   1.301425 A    
C7    C12   1.410813 A    
C10   H4    1.082140 S    
C5    C6    1.334112 D    
C6    H2    1.085737 S    
C8    C11   1.410813 A    
Cu1   N1    2.037252 S    
C7    C9    1.389737 A    
O2    Cu2   1.962222 S    
C8    C10   1.389737 A    
O1    Cu1   1.962221 S    
N6    O15   1.300792 A    
C10   C12   1.398631 A    
O5    Cu1   1.955012 S    
C9    H3    1.082141 S    
C7    N3    1.438429 S    
N5    O14   1.301199 A    
N1    C14   1.369503 A    
O4    C2    1.298662 A    
C15   C17   1.483553 S    
C17   O17   1.220134 D    
C4    C6    1.433335 S    
N5    O13   1.300796 A    
N4    O11   1.301300 A    
O6    Cu2   1.955010 S    
C5    H1    1.085737 S    
N2    C13   1.369504 A    
Cu1   Cu2   2.710877 S    
C14   N6    1.431934 S    
C3    C5    1.433335 S    
O4    Cu1   1.956356 S    
O3    C1    1.298661 A    
O8    Cu1   1.955355 S    
