data_mof_unit_22779.cif
_audit_creation_date              2012-12-10T18:57:43-0500
_audit_creation_method            fapswitch 2.2
_symmetry_space_group_name_H-M    P1
_symmetry_Int_Tables_number       1
_space_group_crystal_system       triclinic
_cell_length_a                    10.912753
_cell_length_b                    10.822622
_cell_length_c                    9.544558
_cell_angle_alpha                 89.894899
_cell_angle_beta                  89.940863
_cell_angle_gamma                 90.13828
_cell_volume                      1127.25042634

loop_
_atom_site_label
_atom_site_type_symbol
_atom_type_description
_atom_site_fract_x
_atom_site_fract_y
_atom_site_fract_z
_atom_type_partial_charge
C1    C     C_R   0.502032 0.262315 0.500077 0.801612
C2    C     C_R   0.513804 0.129233 0.500016 -0.095969
C3    C     C_R   0.531117 0.064762 0.373778 -0.224467
C4    C     C_R   0.530829 0.935978 0.373605 -0.223297
C5    C     C_R   0.513567 0.870829 0.499681 -0.096599
C6    C     C_R   0.513038 0.936104 0.625624 0.121923
C7    C     C_3   0.425609 0.929055 0.745938 -0.469579
C8    C     C_3   0.426078 0.069294 0.746448 -0.488395
C9    C     C_R   0.540498 0.600954 0.073354 0.262495
C10   C     C_R   0.447373 0.406407 0.074645 -0.088523
C11   C     C_R   0.447264 0.406480 0.925801 -0.079067
C12   C     C_R   0.265460 0.504517 0.500166 0.848352
C13   C     C_R   0.539859 0.601256 0.926093 0.258970
C14   C     C_3   0.663694 0.659185 0.919373 -0.507029
C15   C     C_3   0.665137 0.657402 0.078470 -0.514604
C16   C     C_R   0.502026 0.737685 0.499859 0.796684
C17   C     C_R   0.734675 0.494388 0.499817 0.806286
C18   C     C_2   0.933066 0.525019 0.395146 -0.222413
C19   C     C_2   0.865791 0.471824 0.497589 -0.137822
C20   C     C_2   0.066373 0.513916 0.386578 -0.177873
C21   C     C_2   0.134003 0.518481 0.502981 -0.300276
C22   C     C_R   0.513244 0.063305 0.625839 0.145010
Cu1   Cu    Cu3+1 0.499990 0.499980 0.640670 0.943205
Cu2   Cu    Cu3+1 0.500010 0.500020 0.359330 0.936747
H1    H     H_    0.889419 0.582402 0.316241 0.153091
H2    H     H_    0.469612 0.108843 0.841620 0.193060
H3    H     H_    0.406453 0.329601 0.130325 0.138724
H4    H     H_    0.405839 0.330093 0.870462 0.140077
H5    H     H_    0.733241 0.597712 0.872071 0.210703
H6    H     H_    0.660782 0.754018 0.874652 0.192217
H7    H     H_    0.734979 0.593639 0.122344 0.212180
H8    H     H_    0.664346 0.751280 0.125261 0.186979
H9    H     H_    0.108584 0.507622 0.283741 0.169873
H10   H     H_    0.091864 0.535092 0.604250 0.161108
H11   H     H_    0.538920 0.113119 0.274694 0.162034
H12   H     H_    0.538082 0.888204 0.274431 0.157657
H13   H     H_    0.335589 0.888480 0.716239 0.195767
H14   H     H_    0.468341 0.888266 0.840961 0.193149
H15   H     H_    0.336236 0.110423 0.717526 0.195515
N1    N     N_R   0.500780 0.500930 0.147930 -0.184304
N2    N     N_R   0.500780 0.500890 0.852020 -0.183436
O1    O     O_R   0.500000 0.319640 0.618810 -0.581176
O2    O     O_R   0.500010 0.319680 0.381230 -0.592892
O3    O     O_R   0.321940 0.499980 0.618760 -0.582801
O4    O     O_R   0.321950 0.500020 0.381180 -0.579204
O5    O     O_R   0.499990 0.680320 0.618770 -0.580944
O6    O     O_R   0.500000 0.680360 0.381190 -0.586530
O7    O     O_R   0.678050 0.499980 0.618820 -0.582221
O8    O     O_R   0.678060 0.500020 0.381240 -0.581974
C23   C     C_R   0.914759 0.373673 0.591616 0.130265
C24   C     C_R   0.915475 0.389605 0.737579 -0.138930
C25   C     C_R   0.963005 0.297605 0.824892 -0.140696
C26   C     C_R   0.009934 0.188953 0.767188 -0.118272
C27   C     C_R   0.009163 0.172042 0.622087 -0.152946
C28   C     C_R   0.961551 0.263789 0.534483 -0.124800
H16   H     H_    0.882380 0.474333 0.783316 0.119923
H17   H     H_    0.964193 0.310928 0.937253 0.125212
H18   H     H_    0.047119 0.118003 0.834848 0.121826
H19   H     H_    0.045589 0.087892 0.577474 0.127104
H20   H     H_    0.961400 0.249509 0.422194 0.129291

loop_
_geom_bond_atom_site_label_1
_geom_bond_atom_site_label_2
_ccdc_geom_bond_type
C10   H3    S    
C2    C22   A    
C8    C22   S    
C26   H18   S    
C4    H12   S    
C15   H7    S    
C6    C7    S    
Cu1   O7    S    
C8    H15   S    
C13   C14   S    
C8    H2    S    
C23   C28   A    
Cu1   N2    S    
C17   O7    A    
C3    H11   S    
Cu1   Cu2   S    
C13   N2    A    
C23   C24   A    
C7    H13   S    
C15   H8    S    
C12   O3    A    
Cu1   O5    S    
C28   H20   S    
C25   C26   A    
Cu1   O1    S    
C19   C23   S    
C18   H1    S    
C11   H4    S    
C14   H6    S    
C20   H9    S    
C16   O6    A    
C17   C19   S    
C7    H14   S    
C11   N2    A    
C18   C20   S    
C27   H19   S    
C9    C15   S    
C5    C6    A    
C10   C11   A    
Cu2   O4    S    
C14   H5    S    
C16   O5    A    
C3    C4    A    
C6    C22   A    
C1    O1    A    
C7    C8    S    
C20   C21   D    
C10   N1    A    
C1    C2    S    
C25   H17   S    
C17   O8    A    
Cu2   O8    S    
C12   O4    A    
Cu2   O2    S    
C9    C13   A    
C27   C28   A    
C18   C19   D    
C5    C16   S    
C2    C3    A    
C21   H10   S    
Cu2   N1    S    
C14   C15   S    
Cu2   O6    S    
C12   C21   S    
C1    O2    A    
C9    N1    A    
Cu1   O3    S    
C24   C25   A    
C26   C27   A    
C4    C5    A    
C24   H16   S    
