data_mof_unit_13780.cif
_audit_creation_date              2012-12-10T19:42:33-0500
_audit_creation_method            fapswitch 2.2
_symmetry_space_group_name_H-M    P1
_symmetry_Int_Tables_number       1
_space_group_crystal_system       triclinic
_cell_length_a                    10.906714
_cell_length_b                    10.905049
_cell_length_c                    9.801267
_cell_angle_alpha                 98.737169
_cell_angle_beta                  98.728101
_cell_angle_gamma                 92.975801
_cell_volume                      1135.51675013

loop_
_atom_site_label
_atom_site_type_symbol
_atom_type_description
_atom_site_fract_x
_atom_site_fract_y
_atom_site_fract_z
_atom_type_partial_charge
C1    C     C_R   0.500897 0.261965 0.499285 0.788632
C2    C     C_R   0.499085 0.738034 0.500715 0.788600
C3    C     C_R   0.872250 0.497823 0.503794 -0.087603
C4    C     C_R   0.127753 0.502242 0.496204 -0.087605
C5    C     C_R   0.958794 0.525454 0.630329 0.002241
C6    C     C_R   0.041210 0.474643 0.369666 0.002250
C7    C     C_R   0.301154 0.082392 0.016698 -0.139128
C8    C     C_R   0.698784 0.917553 0.983236 -0.139119
C9    C     C_R   0.327179 0.050638 0.150404 -0.159223
C10   C     C_R   0.672749 0.949378 0.849583 -0.159247
C11   C     C_R   0.447223 0.076541 0.228504 0.133563
C12   C     C_R   0.552708 0.923454 0.771478 0.133599
C13   C     C_R   0.541466 0.132194 0.169626 -0.048337
C14   C     C_R   0.458479 0.867754 0.830316 -0.048334
C15   C     C_R   0.514253 0.166236 0.037022 -0.112956
C16   C     C_R   0.485696 0.833671 0.962879 -0.112933
C17   C     C_R   0.393984 0.141773 0.960843 -0.152415
C18   C     C_R   0.605967 0.858130 0.039049 -0.152403
C19   C     C_R   0.471533 0.914918 0.376003 -0.261874
C20   C     C_R   0.528369 0.085081 0.624003 -0.261915
C21   C     C_R   0.497794 0.872250 0.503803 -0.087557
C22   C     C_R   0.502150 0.127749 0.496201 -0.087544
C23   C     C_R   0.261970 0.500953 0.499287 0.788514
C24   C     C_R   0.738030 0.499068 0.500712 0.788545
C25   C     C_R   0.525318 0.958811 0.630334 0.002203
C26   C     C_R   0.474614 0.041189 0.369669 0.002204
C27   C     C_2   0.510755 0.510312 0.078979 -0.100835
C28   C     C_2   0.489252 0.489684 0.921022 -0.100860
C29   C     C_R   0.166160 0.514757 0.037156 -0.113616
C30   C     C_R   0.833918 0.485499 0.962920 -0.113743
C31   C     C_R   0.132141 0.541774 0.169777 -0.048406
C32   C     C_R   0.867905 0.458424 0.830291 -0.048358
C33   C     C_R   0.076587 0.447389 0.228514 0.133683
C34   C     C_R   0.923421 0.552777 0.771475 0.133677
C35   C     C_R   0.050821 0.327363 0.150299 -0.159106
C36   C     C_R   0.949176 0.672832 0.849618 -0.159101
C37   C     C_R   0.082615 0.301518 0.016600 -0.138894
C38   C     C_R   0.917415 0.698735 0.983325 -0.138851
C39   C     C_R   0.141827 0.394515 0.960847 -0.153004
C40   C     C_R   0.858248 0.605764 0.039161 -0.153014
C41   C     C_R   0.914941 0.471525 0.375986 -0.261838
C42   C     C_R   0.085063 0.528559 0.624009 -0.261845
Cu1   Cu    Cu3+1 0.521120 0.521140 0.639640 0.943688
Cu2   Cu    Cu3+1 0.478880 0.478860 0.360360 0.943696
H1    H     H_    0.167500 0.373638 0.857922 0.120858
H2    H     H_    0.832602 0.626681 0.142094 0.120855
H3    H     H_    0.635177 0.150594 0.227313 0.101242
H4    H     H_    0.364776 0.849326 0.772621 0.101230
H5    H     H_    0.586512 0.210982 0.993088 0.114990
H6    H     H_    0.413451 0.788876 0.006773 0.114985
H7    H     H_    0.449249 0.849418 0.279248 0.154631
H8    H     H_    0.550590 0.150578 0.720763 0.154619
H9    H     H_    0.620009 0.618956 0.904926 0.226810
H10   H     H_    0.380004 0.381027 0.095072 0.226804
H11   H     H_    0.150473 0.635462 0.227580 0.101226
H12   H     H_    0.849584 0.364715 0.772547 0.101256
H13   H     H_    0.005743 0.254186 0.192685 0.114639
H14   H     H_    0.994219 0.745989 0.807166 0.114638
H15   H     H_    0.060371 0.209619 0.955723 0.113350
H16   H     H_    0.939643 0.790661 0.044140 0.113311
H17   H     H_    0.849461 0.449205 0.279216 0.154501
H18   H     H_    0.150544 0.550889 0.720776 0.154508
H19   H     H_    0.372973 0.167442 0.857925 0.120848
H20   H     H_    0.626999 0.832384 0.141910 0.120846
H21   H     H_    0.209238 0.060000 0.955919 0.113271
H22   H     H_    0.790704 0.939910 0.044002 0.113273
H23   H     H_    0.254111 0.005482 0.192884 0.114686
H24   H     H_    0.745806 0.994574 0.807138 0.114700
N1    N     N_2   0.447120 0.447110 0.150550 -0.278403
N2    N     N_2   0.552880 0.552890 0.849450 -0.278423
O1    O     O_R   0.517830 0.337490 0.617920 -0.589286
O2    O     O_R   0.482170 0.662510 0.382080 -0.589291
O3    O     O_R   0.482150 0.301790 0.382070 -0.567487
O4    O     O_R   0.517850 0.698210 0.617930 -0.567478
O5    O     O_R   0.337480 0.517860 0.617920 -0.589441
O6    O     O_R   0.662520 0.482140 0.382080 -0.589430
O7    O     O_R   0.301810 0.482160 0.382070 -0.567594
O8    O     O_R   0.698190 0.517840 0.617930 -0.567606
H25   H     H_    0.418002 0.419199 0.864986 0.158455
H26   H     H_    0.582010 0.580793 0.135016 0.158435
H27   H     H_    0.210832 0.587129 0.993328 0.115006
H28   H     H_    0.789277 0.413148 0.006809 0.115035

loop_
_geom_bond_atom_site_label_1
_geom_bond_atom_site_label_2
_ccdc_geom_bond_type
C30   C32   A    
C5    C42   A    
C8    H22   S    
C41   H17   S    
Cu1   O8    S    
C40   H2    S    
C1    O1    A    
Cu2   O7    S    
C19   C21   A    
C16   H6    S    
C36   H14   S    
C20   C25   A    
C15   C17   A    
Cu2   O6    S    
C19   C26   A    
C7    C17   A    
C6    C41   A    
C31   C33   A    
C42   H18   S    
C27   N1    D    
C39   H1    S    
Cu1   O4    S    
C1    C22   S    
C3    C24   S    
C2    O2    A    
H9    N2    S    
Cu1   O5    S    
C4    C6    A    
C27   H26   S    
C23   O5    A    
C13   H3    S    
C4    C23   S    
C24   O6    A    
C14   H4    S    
C11   C26   S    
C8    C18   A    
C32   C34   A    
C30   H28   S    
Cu1   Cu2   S    
C9    H23   S    
C29   H27   S    
C7    H21   S    
C29   C31   A    
C5    C34   S    
C29   C39   A    
C2    C21   S    
C30   C40   A    
Cu2   N1    S    
C16   C18   A    
C23   O7    A    
C9    C11   A    
C37   H15   S    
C10   C12   A    
C38   H16   S    
C24   O8    A    
C12   C14   A    
Cu1   N2    S    
C13   C15   A    
C14   C16   A    
C7    C9    A    
C21   C25   A    
C3    C41   A    
Cu1   O1    S    
C35   C37   A    
C8    C10   A    
C28   N2    D    
C20   C22   A    
C3    C5    A    
C2    O4    A    
C10   H24   S    
C6    C33   S    
C12   C25   S    
C35   H13   S    
C1    O3    A    
C36   C38   A    
C20   H8    S    
C17   H19   S    
C38   C40   A    
C11   C13   A    
C18   H20   S    
H10   N1    S    
C4    C42   A    
C33   C35   A    
Cu2   O2    S    
C34   C36   A    
C15   H5    S    
Cu2   O3    S    
C19   H7    S    
C28   H25   S    
C37   C39   A    
C22   C26   A    
C27   C28   S    
C31   H11   S    
C32   H12   S    
