data_mof_unit_51991.cif
_audit_creation_date              2012-12-10T17:56:42-0500
_audit_creation_method            fapswitch 2.2
_symmetry_space_group_name_H-M    P1
_symmetry_Int_Tables_number       1
_space_group_crystal_system       triclinic
_cell_length_a                    10.941089
_cell_length_b                    9.587949
_cell_length_c                    10.913804
_cell_angle_alpha                 91.558741
_cell_angle_beta                  90.965806
_cell_angle_gamma                 91.273306
_cell_volume                      1144.00556504

loop_
_atom_site_label
_atom_site_type_symbol
_atom_type_description
_atom_site_fract_x
_atom_site_fract_y
_atom_site_fract_z
_atom_type_partial_charge
C1    C     C_R   0.262660 0.499478 0.507863 0.806668
C2    C     C_R   0.738108 0.501840 0.496433 0.830547
C3    C     C_R   0.942808 0.631366 0.484445 0.373907
C4    C     C_R   0.068382 0.628900 0.513715 0.320027
C5    C     C_R   0.428045 0.070346 0.417589 0.402159
C6    C     C_R   0.572191 0.078460 0.582246 0.372890
C7    C     C_R   0.425037 0.920382 0.420752 0.223095
C8    C     C_R   0.583629 0.930532 0.568994 0.182726
C9    C     C_R   0.501930 0.496974 0.262106 0.834916
C10   C     C_R   0.490309 0.502657 0.737841 0.766795
C11   C     C_R   0.649654 0.690149 0.118539 0.292266
C12   C     C_R   0.514652 0.769842 0.914027 0.277755
C13   C     C_R   0.665045 0.824881 0.075626 -0.271823
C14   C     C_R   0.588913 0.867848 0.981510 -0.301485
C15   C     C_R   0.515771 0.627484 0.946685 0.008389
C16   C     C_R   0.559216 0.601263 0.064921 0.017035
C17   C     C_R   0.508341 0.489347 0.127467 -0.092468
C18   C     C_R   0.476502 0.509199 0.872794 -0.086455
C19   C     C_R   0.451212 0.379337 0.059664 -0.237283
C20   C     C_R   0.443499 0.385408 0.932064 -0.207005
C21   C     C_R   0.059795 0.378215 0.523765 -0.262746
C22   C     C_R   0.933535 0.380281 0.514815 -0.288705
C23   C     C_R   0.872924 0.505671 0.496096 -0.168720
C24   C     C_R   0.128839 0.501359 0.515440 -0.167181
Cu1   Cu    Cu3+1 0.500000 0.640660 0.500000 1.008138
Cu2   Cu    Cu3+1 0.500000 0.359340 0.500000 0.988572
H1    H     H_    0.415048 0.288401 0.104636 0.197556
H2    H     H_    0.409530 0.294411 0.879987 0.180284
H3    H     H_    0.730496 0.897714 0.118411 0.160416
H4    H     H_    0.588202 0.977317 0.959773 0.186178
H5    H     H_    0.102159 0.280945 0.542435 0.170000
H6    H     H_    0.883590 0.282592 0.522691 0.163976
N1    N     N_R   0.500000 0.852070 0.500000 -0.216356
N2    N     N_R   0.500000 0.147940 0.500000 -0.252835
O1    O     O_R   0.319640 0.618740 0.499990 -0.530432
O2    O     O_R   0.680360 0.618740 0.500010 -0.504636
O3    O     O_R   0.319620 0.381170 0.499990 -0.584081
O4    O     O_R   0.680380 0.381170 0.500010 -0.620419
O5    O     O_R   0.500000 0.618810 0.319650 -0.550799
O6    O     O_R   0.500000 0.618810 0.680350 -0.573821
O7    O     O_R   0.499970 0.381240 0.319640 -0.537932
O8    O     O_R   0.500030 0.381240 0.680360 -0.544466
N3    N     N_2   0.728649 0.639110 0.210089 -0.427567
H7    H     H_    0.755937 0.712795 0.274604 0.300250
C25   C     C_3   0.825030 0.552855 0.162942 -0.742508
H8    H     H_    0.879823 0.512233 0.239911 0.228674
H9    H     H_    0.886240 0.614815 0.103835 0.219751
H10   H     H_    0.785629 0.462160 0.109025 0.243530
N4    N     N_2   0.424384 0.820304 0.832565 -0.385002
H11   H     H_    0.461953 0.882666 0.767359 0.280991
C26   C     C_3   0.327588 0.892763 0.894893 -0.756590
H12   H     H_    0.271174 0.947811 0.827685 0.232316
H13   H     H_    0.365023 0.974704 0.959916 0.232176
H14   H     H_    0.269328 0.817276 0.944299 0.231055
O9    O     O_3   0.886811 0.757163 0.461060 -0.566842
C27   C     C_3   0.948436 0.833701 0.369352 0.057268
H15   H     H_    0.958625 0.769228 0.284213 0.135021
H16   H     H_    0.040436 0.871744 0.398540 0.194486
C28   C     C_3   0.878348 0.964915 0.339970 -0.896639
H17   H     H_    0.893373 0.045093 0.414302 0.225449
H18   H     H_    0.911994 0.008772 0.253312 0.215994
H19   H     H_    0.778745 0.942336 0.330599 0.252490
O10   O     O_3   0.130441 0.750933 0.548985 -0.602455
C29   C     C_3   0.094989 0.793383 0.668009 0.126549
H20   H     H_    0.168494 0.765643 0.733047 0.174695
H21   H     H_    0.009718 0.741866 0.700882 0.119057
C30   C     C_3   0.077063 0.950598 0.671856 -0.866819
H22   H     H_    0.999130 0.977437 0.611357 0.255737
H23   H     H_    0.056788 0.986524 0.766784 0.203141
H24   H     H_    0.160802 0.005663 0.640534 0.238058
O11   O     O_3   0.366540 0.138534 0.325557 -0.554374
C31   C     C_3   0.239061 0.132322 0.344319 0.117130
H25   H     H_    0.217532 0.151592 0.441597 0.134971
H26   H     H_    0.198248 0.029536 0.318088 0.118770
C32   C     C_3   0.177077 0.237842 0.263529 -0.794552
H27   H     H_    0.216586 0.344094 0.281371 0.250767
H28   H     H_    0.077529 0.238466 0.281684 0.208974
H29   H     H_    0.190135 0.208874 0.165466 0.224226
O12   O     O_3   0.597527 0.138871 0.697757 -0.569461
C33   C     C_3   0.719740 0.189237 0.712648 0.136428
H30   H     H_    0.725278 0.299169 0.687353 0.191457
H31   H     H_    0.787225 0.129434 0.659571 0.097031
C34   C     C_3   0.757604 0.192494 0.848013 -0.878080
H32   H     H_    0.776907 0.086935 0.880748 0.232606
H33   H     H_    0.842631 0.256993 0.861520 0.207454
H34   H     H_    0.684807 0.239379 0.904502 0.269346
N5    N     N_2   0.350692 0.839378 0.336323 -0.375428
H35   H     H_    0.262600 0.817619 0.362540 0.257882
C35   C     C_3   0.367866 0.858370 0.206594 -0.627148
H36   H     H_    0.454930 0.915409 0.189505 0.249448
H37   H     H_    0.291138 0.916538 0.166753 0.199826
H38   H     H_    0.368390 0.755002 0.158999 0.228086
N6    N     N_2   0.698946 0.872565 0.595311 -0.336470
H39   H     H_    0.768520 0.931727 0.560005 0.263015
C36   C     C_3   0.725915 0.836365 0.719660 -0.607031
H40   H     H_    0.684110 0.911098 0.782210 0.230517
H41   H     H_    0.825822 0.842142 0.737567 0.195350
H42   H     H_    0.694601 0.728511 0.736688 0.242344

loop_
_geom_bond_atom_site_label_1
_geom_bond_atom_site_label_2
_ccdc_geom_bond_type
C15   C18   A    
N5    H35   S    
N6    H39   S    
C33   H30   S    
C10   O8    A    
C3    C23   A    
C19   C20   A    
N3    H7    S    
C12   N4    S    
C36   H42   S    
C25   H8    S    
C21   H5    S    
C4    O10   S    
Cu2   O8    S    
C22   H6    S    
C13   H3    S    
C31   C32   S    
Cu1   O6    S    
C4    C24   A    
C15   C16   A    
C9    O5    A    
C27   H15   S    
C10   O6    A    
C3    O9    S    
Cu2   N2    S    
C7    N5    S    
C36   H40   S    
C16   C17   A    
N4    C26   S    
C11   N3    S    
C35   H37   S    
C19   H1    S    
C1    O3    A    
C28   H17   S    
N6    C36   S    
C13   C14   A    
C7    N1    A    
C14   H4    S    
C33   C34   S    
C25   H9    S    
C28   H18   S    
C26   H12   S    
C29   C30   S    
C33   H31   S    
C5    C7    A    
Cu2   O4    S    
C6    C8    A    
C20   H2    S    
Cu1   Cu2   S    
O10   C29   S    
C30   H22   S    
C30   H23   S    
C29   H21   S    
C32   H27   S    
C32   H28   S    
C11   C16   A    
C2    O4    A    
C34   H32   S    
C12   C15   A    
C5    N2    A    
O9    C27   S    
C9    C17   S    
C35   H38   S    
N3    C25   S    
Cu1   O1    S    
C31   H26   S    
C34   H33   S    
C12   C14   A    
N5    C35   S    
C3    C4    A    
C1    O1    A    
C25   H10   S    
C2    O2    A    
C28   H19   S    
C8    N6    S    
C31   H25   S    
C36   H41   S    
Cu2   O3    S    
C9    O7    A    
C27   C28   S    
C30   H24   S    
C29   H20   S    
C26   H14   S    
O11   C31   S    
C5    O11   S    
Cu1   O5    S    
C11   C13   A    
C6    O12   S    
C10   C18   S    
C17   C19   A    
C27   H16   S    
C18   C20   A    
C8    N1    A    
C32   H29   S    
Cu1   O2    S    
O12   C33   S    
C6    N2    A    
C34   H34   S    
C1    C24   S    
N4    H11   S    
C21   C24   A    
C2    C23   S    
C22   C23   A    
C26   H13   S    
C35   H36   S    
C21   C22   A    
Cu2   O7    S    
Cu1   N1    S    
