data_mof_unit_15051.cif
_audit_creation_date              2012-12-10T18:01:45-0500
_audit_creation_method            fapswitch 2.2
_symmetry_space_group_name_H-M    P1
_symmetry_Int_Tables_number       1
_space_group_crystal_system       triclinic
_cell_length_a                    10.773658
_cell_length_b                    9.517011
_cell_length_c                    19.354974
_cell_angle_alpha                 90.011378
_cell_angle_beta                  90.178374
_cell_angle_gamma                 89.531062
_cell_volume                      1984.44785504

loop_
_atom_site_label
_atom_site_type_symbol
_atom_type_description
_atom_site_fract_x
_atom_site_fract_y
_atom_site_fract_z
_atom_type_partial_charge
C1    C     C_R   0.262597 0.500622 0.499539 0.836892
C2    C     C_R   0.737440 0.499257 0.499344 0.841992
C3    C     C_R   0.500611 0.499729 0.929924 0.409716
C4    C     C_R   0.500712 0.499701 0.070089 0.409926
C5    C     C_R   0.500017 0.499979 0.367414 0.786615
C6    C     C_R   0.500142 0.499991 0.632588 0.784268
C7    C     C_R   0.065915 0.481960 0.562763 0.099057
C8    C     C_R   0.934241 0.513364 0.435387 0.101703
C9    C     C_R   0.935144 0.480275 0.562620 0.098882
C10   C     C_R   0.064949 0.523942 0.436160 0.094187
C11   C     C_R   0.871569 0.496826 0.499043 -0.131252
C12   C     C_R   0.128543 0.502804 0.499510 -0.145258
C13   C     C_R   0.424209 0.075104 0.456246 -0.025011
C14   C     C_R   0.575709 0.924946 0.543782 -0.018237
C15   C     C_R   0.575752 0.073782 0.543763 -0.024526
C16   C     C_R   0.424205 0.926243 0.456248 -0.021876
C17   C     C_R   0.499827 0.627156 0.254900 -0.197911
C18   C     C_R   0.498418 0.372614 0.745046 -0.198997
C19   C     C_R   0.501942 0.627169 0.745134 -0.203139
C20   C     C_R   0.501252 0.372531 0.254935 -0.208448
C21   C     C_R   0.499941 0.627093 0.182935 -0.159717
C22   C     C_R   0.498567 0.372521 0.817015 -0.161093
C23   C     C_R   0.502185 0.627110 0.817101 -0.160362
C24   C     C_R   0.501351 0.372433 0.182969 -0.162550
C25   C     C_R   0.500690 0.499729 0.146235 0.058920
C26   C     C_R   0.500468 0.499779 0.853777 0.059964
C27   C     C_R   0.500502 0.499895 0.291503 -0.025948
C28   C     C_R   0.500086 0.499930 0.708503 -0.024774
Cu1   Cu    Cu3+1 0.500000 0.640660 0.500000 0.926305
Cu2   Cu    Cu3+1 0.500000 0.359340 0.500000 0.923876
H1    H     H_    0.363503 0.131772 0.421200 0.116907
H2    H     H_    0.636312 0.868389 0.578882 0.113119
H3    H     H_    0.636451 0.129391 0.578804 0.115281
H4    H     H_    0.363482 0.870646 0.421217 0.112714
N1    N     N_R   0.500000 0.852070 0.500000 -0.156269
N2    N     N_R   0.500000 0.147930 0.500000 -0.159755
N3    N     N_R   0.500165 0.377012 0.034343 -0.241035
N4    N     N_R   0.501186 0.622408 0.965672 -0.241071
N5    N     N_R   0.500104 0.377027 0.965635 -0.241007
N6    N     N_R   0.501225 0.622394 0.034376 -0.241094
O1    O     O_R   0.319640 0.618740 0.500000 -0.593689
O2    O     O_R   0.680360 0.381260 0.500000 -0.590261
O3    O     O_R   0.680360 0.618740 0.500000 -0.585129
O4    O     O_R   0.319640 0.381260 0.500000 -0.575918
O5    O     O_R   0.499980 0.618820 0.400140 -0.592163
O6    O     O_R   0.500020 0.381180 0.599860 -0.587618
O7    O     O_R   0.500020 0.618820 0.599860 -0.587489
O8    O     O_R   0.499980 0.381180 0.400140 -0.589327
C29   C     C_3   0.139577 0.467422 0.630176 -0.388305
C30   C     C_3   0.168673 0.313710 0.647028 -0.815404
H5    H     H_    0.082377 0.251352 0.650472 0.238545
H6    H     H_    0.229028 0.266286 0.606884 0.274421
H7    H     H_    0.218128 0.307379 0.697367 0.241603
H8    H     H_    0.227880 0.526328 0.627934 0.190242
H9    H     H_    0.090142 0.516756 0.674138 0.210065
C31   C     C_3   0.859881 0.515830 0.367706 -0.394499
C32   C     C_3   0.819890 0.368237 0.346055 -0.821459
H10   H     H_    0.899682 0.293893 0.347206 0.249948
H11   H     H_    0.747023 0.327221 0.380491 0.271185
H12   H     H_    0.781544 0.371529 0.292750 0.242864
H13   H     H_    0.776809 0.584816 0.372713 0.195995
H14   H     H_    0.911247 0.560856 0.323919 0.211021
C33   C     C_3   0.862231 0.462328 0.629747 -0.403038
C34   C     C_3   0.828714 0.604345 0.661699 -0.845275
H15   H     H_    0.913342 0.667127 0.671431 0.246885
H16   H     H_    0.766010 0.664627 0.626955 0.257511
H17   H     H_    0.780421 0.587669 0.711583 0.250818
H18   H     H_    0.776049 0.401802 0.621109 0.198080
H19   H     H_    0.913622 0.398302 0.668203 0.212477
C35   C     C_3   0.137824 0.560266 0.370759 -0.399650
C36   C     C_3   0.166851 0.430595 0.327120 -0.817665
H20   H     H_    0.227269 0.460683 0.283282 0.246608
H21   H     H_    0.216208 0.350044 0.358621 0.248518
H22   H     H_    0.081016 0.385114 0.305416 0.259003
H23   H     H_    0.089872 0.641960 0.339626 0.186390
H24   H     H_    0.226943 0.611701 0.383117 0.199846
H25   H     H_    0.499077 0.726978 0.281783 0.148354
H26   H     H_    0.496878 0.272876 0.718109 0.149142
H27   H     H_    0.503533 0.726950 0.718264 0.151113
H28   H     H_    0.501731 0.272775 0.281859 0.152920
H29   H     H_    0.499346 0.726986 0.156168 0.152627
H30   H     H_    0.497157 0.272610 0.843736 0.152564
H31   H     H_    0.503779 0.726970 0.843888 0.153182
H32   H     H_    0.501948 0.272493 0.156229 0.153971

loop_
_geom_bond_atom_site_label_1
_geom_bond_atom_site_label_2
_ccdc_geom_bond_type
C8    C31   S    
C4    C25   S    
C23   H31   S    
Cu1   O7    S    
C22   H30   S    
Cu2   O8    S    
C16   N1    A    
C32   H11   S    
C29   H8    S    
C31   C32   S    
C23   C26   A    
C20   C24   A    
C16   H4    S    
C5    C27   S    
C6    C28   S    
C4    N6    A    
C3    N4    A    
C30   H6    S    
C35   C36   S    
C3    N5    A    
C9    C33   S    
Cu1   O3    S    
Cu2   O4    S    
C1    C12   S    
C2    C11   S    
C13   H1    S    
C7    C12   A    
C5    O8    A    
C30   H7    S    
C6    O7    A    
C20   H28   S    
C17   C27   A    
C34   H17   S    
C33   H19   S    
C18   C28   A    
C24   C25   A    
C7    C29   S    
C13   N2    A    
C14   N1    A    
C36   H21   S    
C32   H12   S    
C29   H9    S    
C5    O5    A    
C17   C21   A    
Cu1   O5    S    
C34   H16   S    
C19   C23   A    
Cu1   Cu2   S    
C1    O4    A    
C14   C15   A    
C2    O3    A    
C18   H26   S    
C17   H25   S    
C30   H5    S    
C19   H27   S    
C19   C28   A    
C9    C11   A    
C10   C12   A    
C10   C35   S    
C1    O1    A    
C21   H29   S    
C35   H24   S    
C31   H14   S    
C15   N2    A    
C7    C9    A    
C21   C25   A    
C33   H18   S    
C6    O6    A    
Cu1   O1    S    
C18   C22   A    
Cu2   O6    S    
C3    C26   S    
C14   H2    S    
C36   H22   S    
C20   C27   A    
Cu1   N1    S    
Cu2   N2    S    
C34   H15   S    
C24   H32   S    
C36   H20   S    
N3    N5    A    
N4    N6    A    
C32   H10   S    
C2    O2    A    
C8    C11   A    
C33   C34   S    
C4    N3    A    
C8    C10   A    
C29   C30   S    
C22   C26   A    
C13   C16   A    
C35   H23   S    
C31   H13   S    
Cu2   O2    S    
C15   H3    S    
