data_mof_unit_45642.cif
_audit_creation_date              2012-12-10T17:25:21-0500
_audit_creation_method            fapswitch 2.2
_symmetry_space_group_name_H-M    P1
_symmetry_Int_Tables_number       1
_space_group_crystal_system       triclinic
_cell_length_a                    27.768091
_cell_length_b                    10.809766
_cell_length_c                    9.688513
_cell_angle_alpha                 90.706229
_cell_angle_beta                  91.299007
_cell_angle_gamma                 93.789776
_cell_volume                      2900.78398811

loop_
_atom_site_label
_atom_site_type_symbol
_atom_type_description
_atom_site_fract_x
_atom_site_fract_y
_atom_site_fract_z
_atom_type_partial_charge
C1    C     C_R   0.503196 0.263236 0.500519 0.774033
C2    C     C_R   0.278177 0.405584 0.406952 -0.087142
C3    C     C_R   0.253584 0.482653 0.494372 0.315529
C4    C     C_R   0.101042 0.463017 0.492068 -0.093505
C5    C     C_R   0.126958 0.432143 0.612773 -0.024598
C6    C     C_R   0.101071 0.396557 0.731303 0.181458
C7    C     C_R   0.126407 0.496929 0.372489 -0.004647
C8    C     C_R   0.354902 0.496878 0.496443 -0.019479
C9    C     C_R   0.644961 0.485613 0.497153 -0.099523
C10   C     C_R   0.972903 0.404772 0.600018 0.065296
C11   C     C_R   0.973764 0.510611 0.375459 0.033703
C12   C     C_R   0.407786 0.499585 0.498771 0.813865
C13   C     C_R   0.947957 0.455751 0.486798 0.024381
C14   C     C_R   0.945601 0.342848 0.702977 -0.206324
C15   C     C_R   0.895458 0.337917 0.699205 -0.149555
C16   C     C_R   0.870632 0.394838 0.593069 -0.021427
C17   C     C_R   0.896766 0.453643 0.486417 -0.049560
C18   C     C_R   0.871614 0.511733 0.380509 -0.054873
C19   C     C_R   0.821059 0.510551 0.383205 0.568476
C20   C     C_R   0.820050 0.395655 0.591736 0.570260
C21   C     C_R   0.713821 0.363540 0.443412 0.208440
C22   C     C_R   0.663249 0.375827 0.441269 0.050657
C23   C     C_R   0.496141 0.736751 0.500836 0.819266
C24   C     C_R   0.677718 0.586732 0.536503 0.084779
C25   C     C_R   0.727136 0.571972 0.537224 -0.168171
C26   C     C_R   0.745179 0.461436 0.493442 0.287067
C27   C     C_R   0.024132 0.417258 0.606778 0.020615
C28   C     C_R   0.049749 0.459957 0.490174 0.055742
C29   C     C_R   0.024499 0.498775 0.370856 0.065696
C30   C     C_R   0.050631 0.389258 0.727025 -0.266982
C31   C     C_R   0.100845 0.521533 0.251140 -0.167753
C32   C     C_R   0.947728 0.578491 0.276504 0.129949
C33   C     C_R   0.897348 0.574867 0.278011 -0.196736
C34   C     C_R   0.592230 0.497354 0.500291 0.810477
C35   C     C_R   0.050823 0.519610 0.249485 -0.171509
C36   C     C_R   0.532257 0.114086 0.756833 0.165959
C37   C     C_R   0.519891 0.055319 0.882012 0.207223
C38   C     C_R   0.488238 0.948861 0.878791 -0.256908
C39   C     C_R   0.475765 0.889750 0.753611 -0.219027
C40   C     C_R   0.492890 0.939766 0.629137 0.062871
C41   C     C_R   0.511644 0.063807 0.629630 0.055908
C42   C     C_R   0.507485 0.129150 0.503313 -0.105811
C43   C     C_R   0.498241 0.063026 0.379447 -0.220097
C44   C     C_R   0.493852 0.934975 0.378621 -0.209619
C45   C     C_R   0.178004 0.438603 0.610270 0.558350
C46   C     C_R   0.491993 0.871381 0.503453 -0.094908
C47   C     C_R   0.580527 0.616030 0.145855 0.228531
C48   C     C_R   0.624725 0.620199 0.079345 -0.271057
C49   C     C_R   0.624597 0.616196 0.937136 -0.258759
C50   C     C_R   0.580070 0.614417 0.866860 0.239532
C51   C     C_R   0.539068 0.555423 0.929230 0.085529
C52   C     C_R   0.538959 0.556973 0.077580 0.114226
C53   C     C_R   0.463755 0.440521 0.068237 0.253462
C54   C     C_R   0.463877 0.442815 0.921355 -0.041991
C55   C     C_R   0.176968 0.503189 0.375772 0.537661
C56   C     C_R   0.279816 0.567203 0.582876 -0.148437
C57   C     C_R   0.330408 0.574416 0.585076 0.116483
C58   C     C_R   0.328458 0.412950 0.407675 -0.289804
Cu1   Cu    Cu3+1 0.500000 0.499990 0.640660 0.957870
Cu2   Cu    Cu3+1 0.500000 0.500010 0.359340 0.956303
H1    H     H_    0.346696 0.350482 0.341698 0.155581
H2    H     H_    0.260858 0.627481 0.649882 0.150421
H3    H     H_    0.119431 0.541754 0.156164 0.182383
H4    H     H_    0.878560 0.626163 0.200440 0.188824
H5    H     H_    0.752139 0.649298 0.567506 0.161867
H6    H     H_    0.033441 0.529522 0.150016 0.171554
H7    H     H_    0.494040 0.110703 0.283075 0.175765
H8    H     H_    0.258246 0.339098 0.339241 0.157010
H9    H     H_    0.476270 0.905927 0.973584 0.147137
H10   H     H_    0.453238 0.804287 0.755543 0.194454
H11   H     H_    0.490663 0.886163 0.280193 0.159724
H12   H     H_    0.657644 0.653579 0.133799 0.184704
H13   H     H_    0.657464 0.647088 0.886264 0.165989
H14   H     H_    0.434382 0.396264 0.862048 0.153618
H15   H     H_    0.876211 0.290025 0.780970 0.186062
H16   H     H_    0.962030 0.294358 0.786455 0.140439
H17   H     H_    0.033107 0.365044 0.822088 0.136030
N1    N     N_R   0.201677 0.474833 0.493531 -0.471866
N2    N     N_R   0.796487 0.453791 0.488282 -0.441955
N3    N     N_R   0.500460 0.501210 0.147910 -0.182416
N4    N     N_R   0.500480 0.501290 0.852040 -0.210040
O1    O     O_R   0.500000 0.319640 0.618810 -0.572472
O2    O     O_2   0.794656 0.340379 0.693734 -0.538460
O3    O     O_2   0.201347 0.538811 0.262414 -0.532143
O4    O     O_2   0.796585 0.566388 0.282194 -0.540855
O5    O     O_R   0.500000 0.319660 0.381240 -0.589117
O6    O     O_R   0.430260 0.500010 0.618770 -0.564009
O7    O     O_R   0.430270 0.500030 0.381200 -0.590824
O8    O     O_R   0.500000 0.680340 0.618760 -0.563911
O9    O     O_R   0.500000 0.680360 0.381190 -0.552315
O10   O     O_R   0.569730 0.499970 0.618800 -0.556908
O11   O     O_R   0.569740 0.499990 0.381230 -0.555424
O12   O     O_2   0.203987 0.407860 0.722529 -0.494836
N5    N     N_3   0.971787 0.662699 0.183447 -0.606067
H18   H     H_    0.961578 0.752145 0.205365 0.232975
H19   H     H_    0.959784 0.638990 0.082836 0.215915
N6    N     N_3   0.662956 0.709541 0.561384 -0.597072
H20   H     H_    0.673397 0.735328 0.662407 0.216161
H21   H     H_    0.625778 0.714474 0.549307 0.222681
C59   C     C_3   0.572685 0.215138 0.761892 -0.752075
H22   H     H_    0.605650 0.179238 0.809238 0.206509
H23   H     H_    0.583089 0.247063 0.658724 0.209768
H24   H     H_    0.562159 0.295279 0.824479 0.260889
N7    N     N_3   0.539902 0.103228 0.011597 -0.588969
H25   H     H_    0.577084 0.093470 0.011559 0.213292
H26   H     H_    0.527332 0.046883 0.091445 0.198647
C60   C     C_3   0.421657 0.369878 0.131340 -0.792617
H27   H     H_    0.404320 0.300202 0.057441 0.189543
H28   H     H_    0.432839 0.317206 0.222044 0.259905
H29   H     H_    0.394015 0.435142 0.157706 0.237038
N8    N     N_3   0.575817 0.707193 0.251707 -0.517251
H30   H     H_    0.571491 0.791887 0.203422 0.186801
H31   H     H_    0.607779 0.718052 0.310888 0.213980
N9    N     N_3   0.573743 0.711454 0.770756 -0.521214
H32   H     H_    0.550018 0.769257 0.816728 0.220036
H33   H     H_    0.605030 0.770013 0.765695 0.176527
N10   N     N_3   0.125436 0.367719 0.857740 -0.500042
H34   H     H_    0.114618 0.427542 0.934951 0.210378
H35   H     H_    0.114164 0.277164 0.884615 0.220271
C61   C     C_3   0.629283 0.277723 0.370765 -0.827047
H36   H     H_    0.646833 0.193184 0.339507 0.220489
H37   H     H_    0.599967 0.247272 0.439655 0.209684
H38   H     H_    0.613244 0.316553 0.276057 0.258710
N11   N     N_3   0.734506 0.254678 0.391349 -0.568507
H39   H     H_    0.720834 0.177905 0.446111 0.232946
H40   H     H_    0.725137 0.243200 0.286658 0.230845
N12   N     N_3   0.356802 0.661899 0.675187 -0.598145
H41   H     H_    0.346392 0.750516 0.651435 0.216300
H42   H     H_    0.346759 0.642861 0.776485 0.233311

loop_
_geom_bond_atom_site_label_1
_geom_bond_atom_site_label_2
_ccdc_geom_bond_type
C10   C27   A    
C32   N5    S    
C21   C26   A    
C41   C42   A    
C15   H15   S    
N8    H30   S    
Cu1   O1    S    
C7    C55   A    
C49   H13   S    
C45   O12   S    
N7    H26   S    
N9    H32   S    
Cu2   O7    S    
C53   C54   A    
C22   C61   S    
C28   C29   A    
C36   C37   A    
C2    H8    S    
N10   H35   S    
C5    C6    A    
C47   N8    S    
C9    C22   A    
C15   C16   A    
C56   C57   A    
C44   H11   S    
C17   C18   A    
C18   C19   A    
Cu1   O8    S    
C34   O10   A    
C8    C58   A    
C54   H14   S    
C30   H17   S    
C44   C46   A    
C16   C17   A    
C60   H27   S    
C23   O8    A    
C45   N1    A    
C51   N4    A    
C6    N10   S    
C20   N2    A    
C61   H38   S    
C16   C20   A    
C58   H1    S    
C38   H9    S    
Cu1   Cu2   S    
C23   C46   S    
C21   C22   A    
C27   C30   A    
C60   H28   S    
C36   C41   A    
C48   H12   S    
C4    C7    A    
N7    H25   S    
N6    H21   S    
C61   H37   S    
N6    H20   S    
C34   O11   A    
Cu2   O11   S    
C7    C31   A    
C12   O7    A    
C51   C52   A    
C31   H3    S    
C53   N3    A    
C25   H5    S    
C24   C25   A    
C36   C59   S    
C10   C14   A    
C39   C40   A    
C55   N1    A    
Cu2   O5    S    
C35   H6    S    
C1    O1    A    
C5    C45   A    
C59   H24   S    
C24   N6    S    
C50   N9    S    
C14   H16   S    
C40   C46   A    
C43   C44   A    
N12   H42   S    
C37   C38   A    
C8    C57   A    
C3    C56   A    
C53   C60   S    
C47   C48   A    
C8    C12   S    
C59   H23   S    
C50   C51   A    
C23   O9    A    
N8    H31   S    
Cu1   O10   S    
N5    H19   S    
C40   C41   A    
C6    C30   A    
C11   C32   A    
C9    C34   S    
C60   H29   S    
C56   H2    S    
C42   C43   A    
N12   H41   S    
C61   H36   S    
N11   H40   S    
C1    O5    A    
Cu2   N3    S    
C12   O6    A    
Cu1   N4    S    
C4    C5    A    
C19   O4    S    
C10   C13   A    
C57   N12   S    
C37   N7    S    
N9    H33   S    
C2    C58   A    
C9    C24   A    
C47   C52   A    
Cu2   O9    S    
C29   C35   A    
C26   N2    S    
C13   C17   A    
C32   C33   A    
C21   N11   S    
C2    C3    A    
C25   C26   A    
N10   H34   S    
C11   C13   A    
C38   C39   A    
C33   H4    S    
C48   C49   A    
C59   H22   S    
C39   H10   S    
C31   C35   A    
N5    H18   S    
C18   C33   A    
Cu1   O6    S    
C1    C42   S    
C11   C29   A    
C43   H7    S    
C49   C50   A    
C4    C28   A    
C20   O2    S    
C27   C28   A    
C14   C15   A    
C55   O3    S    
C52   N3    A    
C3    N1    S    
C54   N4    A    
C19   N2    A    
N11   H39   S    
