data_mof_unit_24647.cif
_audit_creation_date              2012-12-11T15:52:27-0500
_audit_creation_method            fapswitch 2.2
_symmetry_space_group_name_H-M    P1
_symmetry_Int_Tables_number       1
_space_group_crystal_system       triclinic
_cell_length_a                    6.926872
_cell_length_b                    14.554501
_cell_length_c                    16.017043
_cell_angle_alpha                 90.271724
_cell_angle_beta                  90.013048
_cell_angle_gamma                 90.002277
_cell_volume                      1614.77467175

loop_
_atom_site_label
_atom_site_type_symbol
_atom_type_description
_atom_site_fract_x
_atom_site_fract_y
_atom_site_fract_z
_atom_type_partial_charge
O1    O     O_R   0.494400 0.415640 0.412830 -0.539626
O2    O     O_R   0.823920 0.405510 0.586560 -0.543518
O3    O     O_R   0.994250 0.584360 0.587170 -0.540466
C1    C     C_R   0.654879 0.383202 0.615392 0.684408
O4    O     O_R   0.824110 0.404610 0.413450 -0.542703
O5    O     O_R   0.994440 0.583460 0.412820 -0.539929
C2    C     C_R   0.655035 0.382185 0.384333 0.689008
O6    O     O_R   0.494210 0.416540 0.587180 -0.540371
O7    O     O_3   0.660810 0.558680 0.500000 -0.369710
V1    V     V_3+5 0.935650 0.489110 0.500000 1.390580
O8    O     O_R   0.324150 0.594490 0.413440 -0.543132
C3    C     C_R   0.155082 0.616652 0.384346 0.685588
O9    O     O_R   0.323970 0.595390 0.586550 -0.544384
C4    C     C_R   0.155156 0.617714 0.615577 0.653593
V2    V     V_3+5 0.435660 0.510890 0.500000 1.388048
O10   O     O_3   0.160630 0.441320 0.500000 -0.367260
C5    C     C_3   0.046896 0.645148 0.764487 -0.318914
H1    H     H_    0.898959 0.621006 0.748419 0.136824
H2    H     H_    0.130328 0.584125 0.785446 0.123008
C6    C     C_3   0.034236 0.716330 0.836979 -0.322681
H3    H     H_    0.880386 0.725930 0.855039 0.138659
H4    H     H_    0.876842 0.751903 0.641582 0.141099
H5    H     H_    0.858279 0.856528 0.748407 0.137390
C7    C     C_3   0.025272 0.773151 0.660004 -0.318883
C8    C     C_3   0.349059 0.721307 0.712528 -0.317169
C9    C     C_3   0.144641 0.687687 0.686343 0.116082
H6    H     H_    0.438633 0.661925 0.732760 0.134507
C10   C     C_3   0.123101 0.809726 0.810726 0.115151
C11   C     C_3   0.012613 0.844265 0.732547 -0.323133
C12   C     C_3   0.336634 0.792002 0.784569 -0.306379
H7    H     H_    0.420564 0.766074 0.838862 0.138061
H8    H     H_    0.405112 0.857449 0.764410 0.133226
H9    H     H_    0.092915 0.805820 0.604569 0.123204
H10   H     H_    0.074130 0.910995 0.711810 0.123557
C13   C     C_R   0.953231 0.773784 0.215914 -0.158672
H11   H     H_    0.812383 0.792088 0.191847 0.116146
C14   C     C_R   0.964259 0.710634 0.281496 -0.153500
C15   C     C_R   0.143950 0.684622 0.315140 -0.048478
C16   C     C_R   0.312295 0.723567 0.281266 -0.158748
H12   H     H_    0.453143 0.705261 0.305333 0.116151
C17   C     C_R   0.301266 0.786720 0.215686 -0.153581
H13   H     H_    0.434160 0.815261 0.191449 0.118402
C18   C     C_R   0.121575 0.812730 0.182041 -0.048501
C19   C     C_R   0.812285 0.274347 0.716316 -0.160984
C20   C     C_R   0.801334 0.209644 0.780502 -0.156296
H14   H     H_    0.934204 0.180312 0.804001 0.118016
C21   C     C_R   0.621663 0.183196 0.813745 -0.046139
C22   C     C_R   0.453238 0.223160 0.780985 -0.161163
H15   H     H_    0.312451 0.204546 0.804904 0.116459
C23   C     C_R   0.464188 0.287857 0.716796 -0.156503
H16   H     H_    0.331315 0.317181 0.693291 0.118015
C24   C     C_R   0.643857 0.314302 0.683550 -0.046184
C25   C     C_R   0.812193 0.274188 0.281276 -0.157321
H17   H     H_    0.953052 0.292751 0.305331 0.116691
C26   C     C_R   0.801130 0.210318 0.215734 -0.151939
H18   H     H_    0.934018 0.181509 0.191511 0.118906
C27   C     C_R   0.621423 0.183950 0.182106 -0.047659
C28   C     C_R   0.453090 0.223262 0.215961 -0.157325
H19   H     H_    0.312237 0.204695 0.191904 0.116691
C29   C     C_R   0.464153 0.287136 0.281507 -0.151997
H20   H     H_    0.331273 0.315948 0.305734 0.118838
C30   C     C_R   0.643865 0.313500 0.315134 -0.047743
O11   O     O_R   0.771300 0.080930 0.910090 -0.540332
O12   O     O_R   0.441270 0.092800 0.083770 -0.542630
O13   O     O_R   0.271080 0.913920 0.084380 -0.539938
C31   C     C_R   0.610310 0.115259 0.112911 0.689208
O14   O     O_R   0.441580 0.091910 0.910670 -0.543557
O15   O     O_R   0.271390 0.913020 0.910040 -0.541309
C32   C     C_R   0.610631 0.114261 0.881874 0.684364
O16   O     O_R   0.770990 0.081830 0.084440 -0.539743
O17   O     O_3   0.604750 0.938760 0.997250 -0.369810
V3    V     V_3+5 0.329850 0.008280 0.997210 1.390141
O18   O     O_R   0.941680 0.901940 0.910610 -0.543699
C33   C     C_R   0.110946 0.879666 0.881558 0.653235
O19   O     O_R   0.941370 0.902830 0.083720 -0.543103
C34   C     C_R   0.110440 0.880701 0.112835 0.685689
V4    V     V_3+5 0.829860 0.986420 0.997150 1.388307
O20   O     O_3   0.104830 0.056030 0.997180 -0.367162
H21   H     H_    0.831365 0.682094 0.305734 0.118395
H22   H     H_    0.953071 0.292961 0.692397 0.116431
H23   H     H_    0.111627 0.689393 0.892610 0.123873
H24   H     H_    0.423196 0.753292 0.658284 0.136321

loop_
_geom_bond_atom_site_label_1
_geom_bond_atom_site_label_2
_ccdc_geom_bond_type
C26   H18   S    
C17   H13   S    
C13   H11   S    
C27   C31   S    
C1    O6    A    
C10   C33   S    
C16   C17   A    
C31   O16   A    
C25   H17   S    
C14   H21   S    
O13   C34   A    
C1    C24   S    
C5    C9    S    
H5    C11   S    
C10   C11   S    
C13   C14   A    
C7    C9    S    
O5    C3    A    
C15   C16   A    
O15   C33   A    
V2    O10   S    
C8    C12   S    
C5    C6    S    
C29   C30   A    
O14   V3    S    
O18   C33   A    
C20   C21   A    
C7    C11   S    
C21   C32   S    
V3    O20   S    
O8    V2    S    
O11   C32   A    
C23   C24   A    
O1    V2    S    
C13   C18   A    
O7    V1    S    
V4    O20   S    
C19   C24   A    
C22   C23   A    
O9    C4    A    
O16   V4    S    
C3    C15   S    
C17   C18   A    
C23   H16   S    
C25   C26   A    
C19   H22   S    
C16   H12   S    
O4    C2    A    
C6    C10   S    
C28   H19   S    
C20   H14   S    
C11   H10   S    
C29   H20   S    
O14   C32   A    
O12   C31   A    
O2    C1    A    
O19   C34   A    
C2    C30   S    
C14   C15   A    
C25   C30   A    
C21   C22   A    
O15   V3    S    
C5    H1    S    
C4    C9    S    
O19   V4    S    
O3    C4    A    
C22   H15   S    
O6    V2    S    
O9    V2    S    
C8    H24   S    
H4    C7    S    
O2    V1    S    
O17   V4    S    
C19   C20   A    
O11   V4    S    
C18   C34   S    
O1    C2    A    
O5    V1    S    
O8    C3    A    
C8    H6    S    
O13   V3    S    
C7    H9    S    
C26   C27   A    
C8    C9    S    
O17   V3    S    
O3    V1    S    
V1    O10   S    
C12   H8    S    
C27   C28   A    
C12   H7    S    
C10   C12   S    
C5    H2    S    
O12   V3    S    
O7    V2    S    
O4    V1    S    
C6    H3    S    
O18   V4    S    
C6    H23   S    
C28   C29   A    
