data_mof_unit_6900.cif
_audit_creation_date              2013-03-05T16:04:20-0500
_audit_creation_method            fapswitch 2.2
_symmetry_space_group_name_H-M    P1
_symmetry_Int_Tables_number       1
_space_group_crystal_system       triclinic
_cell_length_a                    9.531533
_cell_length_b                    10.828088
_cell_length_c                    13.474012
_cell_angle_alpha                 91.06998
_cell_angle_beta                  72.607425
_cell_angle_gamma                 89.671271
_cell_volume                      1326.72393672

loop_
_atom_site_label
_atom_site_type_symbol
_atom_site_description
_atom_site_fract_x
_atom_site_fract_y
_atom_site_fract_z
_atom_type_partial_charge
O1    O     O_R   0.381250 0.680340 0.500010 -0.566691
O2    O     O_R   0.618820 0.680370 0.500010 -0.598769
C1    C     C_R   0.500149 0.737758 0.499298 0.838187
O3    O     O_R   0.323240 0.499950 0.650980 -0.530897
O4    O     O_R   0.560810 0.499980 0.650980 -0.577844
C2    C     C_R   0.421590 0.493784 0.699418 0.860303
Cu1   Cu    Cu3+1 0.359340 0.499980 0.500000 1.027080
Cu2   Cu    Cu3+1 0.640660 0.500020 0.500000 0.992348
O5    O     O_R   0.381180 0.319630 0.499990 -0.573996
O6    O     O_R   0.618750 0.319660 0.499990 -0.575692
O7    O     O_R   0.439190 0.500020 0.349020 -0.568269
O8    O     O_R   0.676760 0.500050 0.349020 -0.588963
C3    C     C_R   0.498677 0.262307 0.504416 0.837430
C4    C     C_R   0.578395 0.496625 0.299934 0.819653
C5    C     C_R   0.746853 0.629231 0.040822 -0.148773
H1    H     H_    0.805230 0.622891 0.181362 0.170521
H2    H     H_    0.695910 0.743777 0.886543 0.159310
H3    H     H_    0.824717 0.701949 0.010455 0.163268
C6    C     C_R   0.622613 0.503303 0.185885 -0.112831
C7    C     C_R   0.298750 0.351572 0.838061 0.146231
C8    C     C_R   0.322251 0.280546 0.916312 -0.123407
C9    C     C_R   0.417229 0.320269 0.970183 -0.145097
C10   C     C_R   0.474409 0.440831 0.958505 0.103352
C11   C     C_R   0.458665 0.511980 0.874669 0.024023
C12   C     C_R   0.553823 0.490000 0.024327 0.022425
C13   C     C_R   0.649042 0.590056 0.987587 0.150321
C14   C     C_R   0.635469 0.658504 0.904319 -0.264458
C15   C     C_R   0.529508 0.628506 0.855343 -0.118636
C16   C     C_R   0.534187 0.451017 0.128127 -0.059486
C17   C     C_R   0.736201 0.583547 0.138246 -0.197261
C18   C     C_R   0.379028 0.461429 0.809570 -0.103918
H4    H     H_    0.446016 0.254420 0.020222 0.156177
H5    H     H_    0.272694 0.190456 0.931879 0.174916
C19   C     C_R   0.610341 0.933922 0.529656 -0.141103
H6    H     H_    0.696097 0.882604 0.549136 0.192803
C20   C     C_R   0.606247 0.061778 0.540133 -0.025391
C21   C     C_R   0.497356 0.128255 0.510166 -0.103401
C22   C     C_R   0.388277 0.064670 0.479960 -0.125378
H7    H     H_    0.303461 0.113534 0.457385 0.175757
C23   C     C_R   0.388255 0.937026 0.476951 -0.147977
H8    H     H_    0.302524 0.889807 0.454065 0.169640
C24   C     C_R   0.500028 0.871470 0.500857 -0.037314
C25   C     C_R   0.897249 0.579900 0.562536 -0.019063
H9    H     H_    0.818193 0.643118 0.612641 0.129385
C26   C     C_R   0.044752 0.580128 0.563536 0.261371
N1    N     N_R   0.147940 0.499970 0.499970 -0.182041
C27   C     C_R   0.100839 0.417910 0.438954 -0.024389
H10   H     H_    0.177444 0.350922 0.391553 0.158201
C28   C     C_R   0.952278 0.418362 0.438469 -0.004272
H11   H     H_    0.917602 0.352780 0.389220 0.132348
N2    N     N_R   0.852060 0.500060 0.499990 -0.174847
C29   C     C_2   0.711481 0.119743 0.588380 0.881800
O9    O     O_2   0.669490 0.200326 0.655839 -0.563767
O10   O     O_R   0.857335 0.077604 0.560187 -0.774494
H12   H     H_    0.918149 0.123178 0.599021 0.349261
I1    I     I_    0.087901 0.707549 0.671787 -0.265203
C30   C     C_2   0.408037 0.372460 0.182506 0.815802
O11   O     O_2   0.428242 0.281855 0.229644 -0.622652
O12   O     O_R   0.266551 0.402551 0.179169 -0.752818
H13   H     H_    0.191369 0.338216 0.212752 0.316822
I2    I     I_    0.159768 0.271976 0.756935 -0.293942
C31   C     C_2   0.481429 0.727040 0.796290 0.872158
O13   O     O_2   0.351629 0.736749 0.801896 -0.531387
O14   O     O_R   0.579156 0.813586 0.738718 -0.745155
H14   H     H_    0.685990 0.794556 0.730637 0.288686

loop_
_geom_bond_atom_site_label_1
_geom_bond_atom_site_label_2
_geom_bond_distance
_ccdc_geom_bond_type
C5    H3    1.084159 S    
Cu1   O7    1.947326 S    
C10   C11   1.422866 A    
C1    C24   1.447592 S    
C21   C22   1.404053 A    
O4    Cu2   1.947324 S    
H2    C14   1.083369 S    
C3    C21   1.454967 S    
C27   H10   1.079357 S    
C20   C29   1.484733 S    
O8    C4    1.299244 A    
Cu2   O8    1.959171 S    
O14   H14   1.010788 S    
C23   C24   1.395582 A    
O2    C1    1.290076 A    
C13   C14   1.393407 A    
C11   C18   1.424795 A    
O12   H13   1.013514 S    
C27   C28   1.417957 A    
O1    Cu1   1.965281 S    
C8    C9    1.384585 A    
C7    C8    1.386656 A    
C22   C23   1.381985 A    
C25   C26   1.410026 A    
Cu2   N2    2.014928 S    
C25   N2    1.355434 A    
C30   O11   1.223614 D    
C31   O13   1.220549 D    
C9    H4    1.079155 S    
O3    Cu1   1.959170 S    
Cu2   O6    1.965281 S    
C23   H8    1.083414 S    
C29   O10   1.398471 S    
C2    C18   1.466712 S    
C19   C20   1.388132 A    
C10   C12   1.425241 A    
C25   H9    1.079286 S    
C12   C16   1.426796 A    
O4    C2    1.294691 A    
C19   H6    1.083644 S    
O7    C4    1.293513 A    
C30   O12   1.399505 S    
C8    H5    1.082780 S    
C15   C31   1.491819 S    
H1    C17   1.083677 S    
C6    C16   1.420465 A    
Cu1   N1    2.015088 S    
C14   C15   1.398292 A    
C22   H7    1.083569 S    
C29   O9    1.223360 D    
C5    C17   1.386838 A    
O3    C2    1.294552 A    
C28   H11   1.081708 S    
N1    C27   1.365625 A    
C7    I2    2.129824 S    
Cu1   O5    1.962714 S    
Cu1   Cu2   2.681414 S    
O5    C3    1.294757 A    
O10   H12   1.014044 S    
C20   C21   1.418177 A    
C5    C13   1.398775 A    
C31   O14   1.397435 S    
C28   N2    1.368105 A    
C12   C13   1.416074 A    
C26   N1    1.383154 A    
C6    C17   1.398325 A    
C4    C6    1.470245 S    
O6    C3    1.291429 A    
C9    C10   1.410880 A    
O2    Cu2   1.962716 S    
C11   C15   1.425740 A    
C26   I1    2.119013 S    
C16   C30   1.488117 S    
O1    C1    1.293366 A    
C7    C18   1.414128 A    
C19   C24   1.398464 A    
