data_mof_unit_44220.cif
_audit_creation_date              2012-12-11T14:45:53-0500
_audit_creation_method            fapswitch 2.2
_symmetry_space_group_name_H-M    P1
_symmetry_Int_Tables_number       1
_space_group_crystal_system       triclinic
_cell_length_a                    10.944677
_cell_length_b                    10.92513
_cell_length_c                    18.811877
_cell_angle_alpha                 89.814632
_cell_angle_beta                  90.39413
_cell_angle_gamma                 120.027764
_cell_volume                      1947.42377257

loop_
_atom_site_label
_atom_site_type_symbol
_atom_type_description
_atom_site_fract_x
_atom_site_fract_y
_atom_site_fract_z
_atom_type_partial_charge
C1    C     C_R   0.868042 0.636008 0.605154 0.537718
C2    C     C_R   0.501901 0.709841 0.763807 -0.164031
C3    C     C_R   0.459531 0.687212 0.692949 -0.150430
C4    C     C_R   0.329525 0.672858 0.674022 0.002017
C5    C     C_R   0.835752 0.159742 0.820500 -0.002855
C6    C     C_R   0.094100 0.264434 0.829532 0.109551
C7    C     C_R   0.222627 0.302958 0.797416 -0.120776
C8    C     C_R   0.227736 0.273656 0.726529 -0.093019
C9    C     C_R   0.105512 0.210195 0.684485 0.182624
C10   C     C_R   0.973392 0.184929 0.713507 -0.000093
C11   C     C_R   0.967054 0.199599 0.788713 0.013851
C12   C     C_R   0.274038 0.634228 0.602710 0.530551
C13   C     C_R   0.719151 0.100433 0.704613 -0.013620
C14   C     C_R   0.717758 0.132375 0.776347 -0.016998
C15   C     C_R   0.591528 0.036188 0.665309 -0.100650
C16   C     C_R   0.470089 0.027803 0.692959 -0.070301
C17   C     C_R   0.474146 0.083993 0.759808 0.105611
C18   C     C_R   0.598180 0.138338 0.800697 -0.050681
C19   C     C_R   0.849475 0.150546 0.671189 -0.031778
C20   C     C_R   0.717931 0.541224 0.713283 -0.133978
C21   C     C_R   0.706561 0.544973 0.787041 -0.148755
C22   C     C_R   0.817119 0.653773 0.826075 0.033490
C23   C     C_R   0.862980 0.223086 0.602059 0.549584
C24   C     C_R   0.940059 0.753201 0.791353 -0.103605
C25   C     C_R   0.948456 0.753361 0.719122 -0.153410
C26   C     C_R   0.838484 0.647779 0.679059 0.015369
C27   C     C_R   0.227058 0.545349 0.274955 -0.120466
C28   C     C_R   0.249040 0.563513 0.202619 -0.135018
C29   C     C_R   0.349075 0.695282 0.176367 0.029404
C30   C     C_R   0.424887 0.810226 0.222914 -0.139617
C31   C     C_R   0.403612 0.791543 0.295920 -0.159596
C32   C     C_R   0.305536 0.658370 0.321794 0.037906
C33   C     C_R   0.789942 0.254032 0.274995 -0.167909
C34   C     C_R   0.871689 0.636422 0.394837 0.563443
C35   C     C_R   0.789890 0.238391 0.202404 -0.158029
C36   C     C_R   0.850760 0.164259 0.173402 0.000626
C37   C     C_R   0.922022 0.115621 0.217393 -0.133668
C38   C     C_R   0.923981 0.133058 0.290918 0.064803
C39   C     C_R   0.853843 0.198988 0.319757 0.065878
C40   C     C_R   0.966502 0.731324 0.275634 0.070072
C41   C     C_R   0.949159 0.723610 0.203180 -0.162274
C42   C     C_R   0.815446 0.645593 0.173241 0.027083
C43   C     C_R   0.698495 0.554610 0.215943 0.080446
C44   C     C_R   0.717388 0.556396 0.289409 -0.160435
C45   C     C_R   0.270400 0.633441 0.396200 0.539654
C46   C     C_R   0.849356 0.647188 0.319650 0.035021
C47   C     C_R   0.805413 0.103302 0.894387 0.579895
C48   C     C_R   0.456478 0.723871 0.889350 0.550611
C49   C     C_R   0.797522 0.689803 0.897741 0.534109
C50   C     C_R   0.809076 0.107440 0.102255 0.552418
C51   C     C_R   0.397211 0.705779 0.104067 0.557718
C52   C     C_R   0.797740 0.691287 0.103496 0.562778
C53   C     C_R   0.863456 0.233440 0.394556 0.566262
C54   C     C_R   0.241337 0.678984 0.725623 -0.078453
C55   C     C_R   0.281318 0.698651 0.796634 0.094935
C56   C     C_R   0.412459 0.712676 0.815832 0.048366
Cr1   Cr    Cr6+3 0.791660 0.390250 0.499930 1.007769
Cr2   Cr    Cr6+3 0.098520 0.708290 0.500540 1.009545
Cr3   Cr    Cr6+3 0.109770 0.401430 0.499480 1.031910
Cr4   Cr    Cr6+3 0.874790 0.925890 0.000070 1.008646
Cr5   Cr    Cr6+3 0.574120 0.948670 0.999300 0.999282
Cr6   Cr    Cr6+3 0.551420 0.625320 0.000920 1.010255
H1    H     H_    0.138472 0.662385 0.710833 0.145556
H2    H     H_    0.374565 0.983252 0.661093 0.123846
H3    H     H_    0.587834 0.998700 0.611633 0.118119
H4    H     H_    0.633521 0.456094 0.683282 0.133499
H5    H     H_    0.610123 0.467811 0.812795 0.122802
H6    H     H_    0.028174 0.838136 0.819456 0.151286
H7    H     H_    0.045576 0.834092 0.695350 0.135992
H8    H     H_    0.148232 0.442516 0.294507 0.143951
H9    H     H_    0.191598 0.473897 0.167407 0.127181
H10   H     H_    0.505523 0.912117 0.203204 0.146098
H11   H     H_    0.462725 0.879544 0.331778 0.122893
H12   H     H_    0.740346 0.310387 0.296153 0.143921
H13   H     H_    0.735113 0.277133 0.169259 0.132357
H14   H     H_    0.968079 0.056286 0.195546 0.137609
H15   H     H_    0.040282 0.790172 0.170651 0.134570
H16   H     H_    0.629220 0.487804 0.323052 0.121354
H17   H     H_    0.603908 0.724151 0.778356 0.115040
H18   H     H_    0.527249 0.680700 0.653224 0.114794
H19   H     H_    0.319616 0.354425 0.828151 0.130965
H20   H     H_    0.328748 0.299288 0.704128 0.127438
H21   H     H_    0.601777 0.190985 0.849851 0.136592
O1    O     O_R   0.766500 0.250040 0.579790 -0.516171
O2    O     O_R   0.218690 0.701900 0.425960 -0.486091
O3    O     O_R   0.249490 0.516440 0.419420 -0.523443
O4    O     O_R   0.982880 0.281910 0.424890 -0.476579
O5    O     O_3   0.999980 0.499990 0.499980 -0.253721
O6    O     O_R   0.895110 0.806860 0.920430 -0.526320
O7    O     O_R   0.872260 0.046970 0.925000 -0.473708
O8    O     O_R   0.691430 0.085060 0.918550 -0.545713
O9    O     O_R   0.451490 0.822460 0.925250 -0.508007
O10   O     O_R   0.413330 0.603360 0.920440 -0.543437
O11   O     O_R   0.676110 0.626250 0.926750 -0.526899
O12   O     O_R   0.798570 0.516780 0.574780 -0.496112
O13   O     O_R   0.895350 0.809870 0.080950 -0.536115
O14   O     O_R   0.872490 0.049760 0.073800 -0.501684
O15   O     O_R   0.691680 0.088070 0.079070 -0.523706
O16   O     O_R   0.451720 0.825250 0.074050 -0.507317
O17   O     O_R   0.413580 0.606370 0.080960 -0.491710
O18   O     O_R   0.676340 0.629040 0.075550 -0.462651
O19   O     O_3   0.666780 0.833290 0.000090 -0.265083
O20   O     O_R   0.984000 0.732950 0.581090 -0.553943
O21   O     O_R   0.218600 0.700890 0.574760 -0.517734
O22   O     O_R   0.249390 0.515350 0.579940 -0.506001
O23   O     O_R   0.982790 0.280900 0.573700 -0.461602
O24   O     O_R   0.766600 0.251130 0.419260 -0.540637
O25   O     O_R   0.798660 0.517790 0.425980 -0.520811
O26   O     O_R   0.984100 0.734040 0.420570 -0.470516
N1    N     N_3   0.352275 0.086672 0.785122 -0.658193
H22   H     H_    0.369362 0.126443 0.836946 0.214816
H23   H     H_    0.269533 0.982332 0.787645 0.230078
N2    N     N_3   0.185822 0.700288 0.847870 -0.642664
H24   H     H_    0.165861 0.624445 0.886822 0.248869
H25   H     H_    0.233093 0.799586 0.872078 0.243932
N3    N     N_3   0.991877 0.079409 0.336285 -0.618727
H26   H     H_    0.943316 0.970388 0.328101 0.242407
H27   H     H_    0.097381 0.125498 0.320868 0.225448
N4    N     N_3   0.104280 0.826393 0.303514 -0.576954
H28   H     H_    0.132824 0.928753 0.287220 0.207976
H29   H     H_    0.174381 0.801545 0.279474 0.238692
N5    N     N_3   0.561129 0.465319 0.185310 -0.574902
H30   H     H_    0.566249 0.386539 0.156331 0.216266
H31   H     H_    0.485793 0.413903 0.224954 0.218482
N6    N     N_3   0.095460 0.303062 0.902410 -0.611514
H32   H     H_    0.144892 0.259570 0.932684 0.232877
H33   H     H_    0.156278 0.412685 0.906516 0.247895
N7    N     N_2   0.120546 0.172482 0.613892 -0.482438
H34   H     H_    0.221257 0.220277 0.593320 0.237494
C57   C     C_3   0.028864 0.029395 0.590094 -0.275853
H35   H     H_    0.973119 0.030637 0.540845 0.165854
H36   H     H_    0.949303 0.964383 0.630678 0.139592
H37   H     H_    0.095024 0.982222 0.577397 0.161656

loop_
_geom_bond_atom_site_label_1
_geom_bond_atom_site_label_2
_ccdc_geom_bond_type
C55   C56   A    
Cr2   O26   S    
C41   C42   A    
C14   C18   A    
C57   H36   S    
C35   C36   A    
C17   N1    S    
C7    C8    A    
C39   C53   S    
Cr4   O6    S    
C40   C46   A    
C5    C47   S    
C35   H13   S    
Cr3   O22   S    
C8    H20   S    
C20   H4    S    
C36   C37   A    
C5    C11   A    
C2    C3    A    
C41   H15   S    
C30   C31   A    
C31   H11   S    
C54   H1    S    
C15   C16   A    
C15   H3    S    
N3    H26   S    
C32   C45   S    
N1    H22   S    
C2    H17   S    
Cr3   O5    S    
Cr5   O15   S    
C8    C9    A    
C34   C46   S    
C49   O11   A    
C4    C12   S    
C29   C30   A    
C9    C10   A    
C1    O20   A    
Cr5   O9    S    
Cr6   O18   S    
N6    H32   S    
C21   C22   A    
C21   H5    S    
Cr5   O16   S    
Cr4   O19   S    
C3    H18   S    
C44   C46   A    
C18   H21   S    
Cr3   O4    S    
N4    H29   S    
C51   O16   A    
C38   C39   A    
C52   O18   A    
C50   O15   A    
Cr3   O23   S    
C48   O10   A    
C13   C19   A    
C9    N7    S    
C24   C25   A    
N7    H34   S    
Cr4   O14   S    
C23   O1    A    
C6    C11   A    
C16   C17   A    
C55   N2    S    
C25   C26   A    
C23   O23   A    
Cr2   O5    S    
C19   C23   S    
C43   C44   A    
C37   C38   A    
C38   N3    S    
C53   O24   A    
C57   H35   S    
C31   C32   A    
C10   C19   A    
C1    O12   A    
C40   N4    S    
C17   C18   A    
Cr1   O1    S    
C53   O4    A    
C33   C39   A    
C43   N5    S    
C5    C14   A    
C27   H8    S    
C22   C49   S    
Cr6   O17   S    
Cr4   O13   S    
C40   C41   A    
C7    H19   S    
C37   H14   S    
C13   C15   A    
C48   O9    A    
C1    C26   S    
C47   O7    A    
C22   C24   A    
C57   H37   S    
Cr2   O21   S    
C42   C43   A    
N5    H31   S    
C3    C4    A    
Cr2   O2    S    
C36   C50   S    
N6    H33   S    
N2    H24   S    
C29   C51   S    
C51   O17   A    
C48   C56   S    
C54   C55   A    
C28   C29   A    
C50   O14   A    
C4    C54   A    
C27   C32   A    
C47   O8    A    
C6    N6    S    
C49   O6    A    
N7    C57   S    
C30   H10   S    
N4    H28   S    
C12   O21   A    
C6    C7    A    
Cr4   O7    S    
Cr1   O5    S    
C45   O2    A    
C34   O25   A    
Cr6   O11   S    
C45   O3    A    
Cr3   O3    S    
C2    C56   A    
C12   O22   A    
C20   C26   A    
C44   H16   S    
C33   C35   A    
N3    H27   S    
C52   O13   A    
N1    H23   S    
C10   C11   A    
C24   H6    S    
C28   H9    S    
C33   H12   S    
Cr1   O25   S    
C25   H7    S    
C20   C21   A    
Cr1   O12   S    
Cr6   O10   S    
C27   C28   A    
Cr1   O24   S    
C34   O26   A    
Cr2   O20   S    
C16   H2    S    
Cr6   O19   S    
N5    H30   S    
C13   C14   A    
Cr5   O19   S    
Cr5   O8    S    
C42   C52   S    
N2    H25   S    
