data_mof_unit_40852.cif
_audit_creation_date              2013-03-05T16:02:30-0500
_audit_creation_method            fapswitch 2.2
_symmetry_space_group_name_H-M    P1
_symmetry_Int_Tables_number       1
_space_group_crystal_system       triclinic
_cell_length_a                    16.755453
_cell_length_b                    7.263451
_cell_length_c                    14.98483
_cell_angle_alpha                 89.999878
_cell_angle_beta                  94.815466
_cell_angle_gamma                 89.999701
_cell_volume                      1817.25275617

loop_
_atom_site_label
_atom_site_type_symbol
_atom_site_description
_atom_site_fract_x
_atom_site_fract_y
_atom_site_fract_z
_atom_type_partial_charge
O1    O     O_R   0.663460 0.361760 0.165970 -0.581283
O2    O     O_R   0.336540 0.638240 0.834030 -0.579593
O3    O     O_R   0.836540 0.861760 0.334030 -0.581283
O4    O     O_R   0.163460 0.138240 0.665970 -0.579592
O5    O     O_R   0.827100 0.689870 0.163730 -0.578068
O6    O     O_R   0.172900 0.310130 0.836270 -0.569102
O7    O     O_R   0.672900 0.189870 0.336270 -0.578056
O8    O     O_R   0.327100 0.810130 0.663730 -0.569092
H1    H     H_    0.206000 0.921205 0.489718 0.156866
H2    H     H_    0.792911 0.055767 0.511084 0.155805
H3    H     H_    0.294001 0.421194 0.010280 0.156853
H4    H     H_    0.707085 0.555872 0.988918 0.155791
C1    C     C_R   0.853386 0.523095 0.143727 0.944981
C2    C     C_R   0.146966 0.477054 0.856701 0.944150
C3    C     C_R   0.646615 0.023095 0.356274 0.944972
C4    C     C_R   0.353036 0.977053 0.643301 0.944143
O9    O     O_R   0.663490 0.691370 0.155500 -0.579995
O10   O     O_R   0.336510 0.308630 0.844500 -0.580863
O11   O     O_R   0.836510 0.191370 0.344500 -0.579991
O12   O     O_R   0.163490 0.808630 0.655500 -0.580857
O13   O     O_R   0.671770 0.863320 0.325740 -0.572493
O14   O     O_R   0.328230 0.136680 0.674260 -0.579912
O15   O     O_R   0.828230 0.363320 0.174260 -0.572492
O16   O     O_R   0.171770 0.636680 0.825740 -0.579927
C5    C     C_R   0.637018 0.522765 0.132691 0.903361
C6    C     C_R   0.362894 0.477164 0.867381 0.900243
C7    C     C_R   0.862982 0.022763 0.367309 0.903355
C8    C     C_R   0.137107 0.977165 0.632618 0.900250
O17   O     O_3   0.752910 0.528800 0.305860 -0.275182
O18   O     O_3   0.247090 0.471200 0.694140 -0.274971
O19   O     O_3   0.747090 0.028800 0.194140 -0.275186
O20   O     O_3   0.252910 0.971200 0.805860 -0.274988
V1    V     V_3+5 0.749460 0.803010 0.239640 1.225014
V2    V     V_3+5 0.250540 0.196990 0.760360 1.227706
V3    V     V_3+5 0.750540 0.303010 0.260360 1.225023
V4    V     V_3+5 0.249460 0.696990 0.739640 1.227713
C9    C     C_1   0.467960 0.995541 0.529058 0.235967
C10   C     C_1   0.530371 0.006069 0.468923 0.223429
C11   C     C_1   0.032047 0.495550 0.970951 0.236065
C12   C     C_1   0.969634 0.506076 0.031084 0.223453
C13   C     C_R   0.022930 0.963984 0.315893 -0.339256
C14   C     C_R   0.977491 0.038048 0.683948 -0.337312
C15   C     C_R   0.477071 0.463930 0.184106 -0.339249
C16   C     C_R   0.522509 0.538016 0.816050 -0.337303
C17   C     C_R   0.098610 0.927397 0.286961 0.297634
C18   C     C_R   0.901086 0.060093 0.713498 0.295295
C19   C     C_R   0.401390 0.427353 0.213036 0.297586
C20   C     C_R   0.598916 0.560037 0.786498 0.295207
C21   C     C_R   0.165269 0.911714 0.350708 0.319138
C22   C     C_R   0.833705 0.064646 0.650206 0.324550
C23   C     C_R   0.334731 0.411691 0.149289 0.319145
C24   C     C_R   0.666292 0.564672 0.849796 0.324546
C25   C     C_R   0.153931 0.930876 0.442108 -0.307508
C26   C     C_R   0.845159 0.049400 0.558595 -0.305729
C27   C     C_R   0.346070 0.430854 0.057890 -0.307513
C28   C     C_R   0.654837 0.549462 0.941406 -0.305730
C29   C     C_R   0.077556 0.965494 0.472001 0.066702
C30   C     C_R   0.922215 0.027841 0.528172 0.065001
C31   C     C_R   0.422444 0.465476 0.027997 0.066714
C32   C     C_R   0.577784 0.527869 0.971829 0.065024
C33   C     C_R   0.010681 0.981065 0.407628 0.078183
C34   C     C_R   0.989497 0.018772 0.592284 0.076927
C35   C     C_R   0.489320 0.481039 0.092371 0.078183
C36   C     C_R   0.510502 0.518778 0.907716 0.076907
C37   C     C_R   0.067214 0.986879 0.564505 -0.192715
C38   C     C_R   0.932889 0.012481 0.435437 -0.194005
C39   C     C_R   0.432786 0.486875 0.935495 -0.192724
C40   C     C_R   0.567111 0.512485 0.064564 -0.194018
C41   C     C_1   0.415359 0.986459 0.580672 -0.185513
C42   C     C_1   0.583470 0.014394 0.417911 -0.197973
C43   C     C_1   0.084647 0.486465 0.919334 -0.185493
C44   C     C_1   0.916533 0.514396 0.082093 -0.198005
N1    N     N_R   0.105626 0.900060 0.192927 0.265641
O21   O     O_R   0.144809 0.759150 0.165570 -0.325350
O22   O     O_R   0.061988 0.996827 0.134240 -0.351571
N2    N     N_R   0.893614 0.071767 0.808188 0.271298
O23   O     O_R   0.843259 0.966578 0.845684 -0.289567
O24   O     O_R   0.946496 0.162972 0.859086 -0.385924
N3    N     N_R   0.394371 0.400020 0.307071 0.265635
O25   O     O_R   0.355129 0.259202 0.334427 -0.325323
O26   O     O_R   0.438043 0.496700 0.365761 -0.351580
N4    N     N_R   0.606400 0.571543 0.691801 0.271275
O27   O     O_R   0.656874 0.466542 0.654383 -0.289565
O28   O     O_R   0.553437 0.662364 0.640828 -0.385901
N5    N     N_R   0.753753 0.088317 0.677015 0.280236
O29   O     O_R   0.740940 0.182235 0.748320 -0.307102
O30   O     O_R   0.692438 0.028355 0.626182 -0.355690
N6    N     N_R   0.244958 0.882555 0.324133 0.276751
O31   O     O_R   0.266550 0.952012 0.249820 -0.295674
O32   O     O_R   0.299050 0.803951 0.378812 -0.343267
N7    N     N_R   0.746239 0.588388 0.822988 0.280209
O33   O     O_R   0.759046 0.682496 0.751739 -0.307142
O34   O     O_R   0.807556 0.528325 0.873789 -0.355569
N8    N     N_R   0.255041 0.382568 0.175862 0.276739
O35   O     O_R   0.233440 0.452130 0.250150 -0.295643
O36   O     O_R   0.200952 0.303921 0.121196 -0.343254
H5    H     H_    0.973194 0.974713 0.265228 0.174554
H6    H     H_    0.027441 0.030866 0.734511 0.176128
H7    H     H_    0.526808 0.474643 0.234770 0.174573
H8    H     H_    0.472560 0.530788 0.765488 0.176173

loop_
_geom_bond_atom_site_label_1
_geom_bond_atom_site_label_2
_geom_bond_distance
_ccdc_geom_bond_type
C30   C34   1.419988 A    
C16   C20   1.398511 A    
C10   C42   1.222167 T    
C9    C41   1.222211 T    
C2    C43   1.463015 S    
O10   C6    1.336438 A    
C13   C33   1.412274 A    
C18   N2    1.437364 S    
C15   C35   1.412275 A    
N5    O29   1.300631 A    
C16   C36   1.411808 A    
C22   C26   1.406349 A    
C6    C39   1.489123 S    
N2    O24   1.300860 A    
C27   C31   1.413407 A    
C14   H6    1.082024 S    
O8    V4    1.977372 S    
O6    C2    1.332255 A    
O3    V1    1.991248 S    
C1    O15   1.328980 A    
C17   N1    1.437565 S    
N1    O21   1.300691 A    
C2    O16   1.328395 A    
C22   N5    1.440804 S    
C31   C39   1.419813 A    
C33   C38   1.419824 A    
C30   C38   1.420288 A    
O5    V1    1.977371 S    
O19   V1    1.775257 S    
C19   N3    1.437575 S    
O11   C7    1.337123 A    
C14   C34   1.411791 A    
O5    C1    1.331685 A    
O7    C3    1.331687 A    
O8    C4    1.332253 A    
C11   C43   1.222212 T    
O1    C5    1.332473 A    
N1    O22   1.301552 A    
C21   N6    1.440673 S    
C5    C40   1.489631 S    
O9    V1    2.004310 S    
O4    C8    1.332857 A    
N5    O30   1.301532 A    
O14   V2    1.957799 S    
O4    V2    1.991247 S    
C36   C39   1.419014 A    
N2    O23   1.300355 A    
C11   C12   1.438619 S    
N3    O26   1.301544 A    
C25   C29   1.413419 A    
C19   C23   1.412011 A    
O12   C8    1.336438 A    
C28   C32   1.413541 A    
O20   V2    1.775257 S    
C9    C10   1.438620 S    
N7    O34   1.301546 A    
C17   C21   1.412012 A    
O2    C6    1.332858 A    
O16   V4    1.957799 S    
N8    O36   1.301558 A    
O10   V2    2.004310 S    
H4    C28   1.082028 S    
N6    O32   1.301561 A    
N4    O28   1.300881 A    
C14   C18   1.398504 A    
C13   H5    1.081987 S    
H1    C25   1.081918 S    
N7    O33   1.300637 A    
H3    C27   1.081919 S    
O1    V3    1.991243 S    
C26   C30   1.413548 A    
O2    V4    1.991243 S    
C3    C42   1.463054 S    
C18   C22   1.412607 A    
C35   C40   1.419824 A    
C4    O14   1.328398 A    
C12   C44   1.222168 T    
C34   C37   1.419024 A    
O7    V3    1.977375 S    
C4    C41   1.463014 S    
C29   C37   1.419822 A    
C29   C33   1.420346 A    
C1    C44   1.463055 S    
O17   V3    1.775261 S    
C31   C35   1.420352 A    
O18   V4    1.775259 S    
C32   C36   1.420001 A    
O9    C5    1.337122 A    
O3    C7    1.332468 A    
C8    C37   1.489126 S    
C7    C38   1.489635 S    
O11   V3    2.004302 S    
C15   H7    1.081990 S    
C16   H8    1.082027 S    
C3    O13   1.328980 A    
C21   C25   1.405340 A    
C20   N4    1.437426 S    
C23   C27   1.405333 A    
N8    O35   1.301203 A    
H2    C26   1.082018 S    
O15   V3    1.957801 S    
C23   N8    1.440652 S    
N3    O25   1.300688 A    
O12   V4    2.004302 S    
O6    V2    1.977371 S    
C20   C24   1.412609 A    
O13   V1    1.957799 S    
N6    O31   1.301191 A    
C32   C40   1.420287 A    
N4    O27   1.300345 A    
C13   C17   1.399569 A    
C24   N7    1.440764 S    
C15   C19   1.399577 A    
C24   C28   1.406336 A    
