data_mof_unit_27453.cif
_audit_creation_date              2013-03-05T15:53:19-0500
_audit_creation_method            fapswitch 2.2
_symmetry_space_group_name_H-M    P1
_symmetry_Int_Tables_number       1
_space_group_crystal_system       triclinic
_cell_length_a                    26.740042
_cell_length_b                    7.18817
_cell_length_c                    22.930289
_cell_angle_alpha                 89.972206
_cell_angle_beta                  101.732794
_cell_angle_gamma                 89.973855
_cell_volume                      4315.38753103

loop_
_atom_site_label
_atom_site_type_symbol
_atom_site_description
_atom_site_fract_x
_atom_site_fract_y
_atom_site_fract_z
_atom_type_partial_charge
O1    O     O_R   0.207310 0.594030 0.676830 -0.595295
O2    O     O_R   0.792690 0.405970 0.323170 -0.575573
O3    O     O_R   0.292690 0.094030 0.823170 -0.595499
O4    O     O_R   0.707310 0.905970 0.176830 -0.575508
O5    O     O_R   0.197320 0.262370 0.795700 -0.549565
O6    O     O_R   0.802680 0.737630 0.204300 -0.557860
O7    O     O_R   0.302680 0.762370 0.704300 -0.549517
O8    O     O_R   0.697320 0.237630 0.295700 -0.557669
C1    C     C_R   0.184520 0.431914 0.811883 0.951534
C2    C     C_R   0.815407 0.567929 0.188118 0.945835
C3    C     C_R   0.315481 0.931901 0.688116 0.952328
C4    C     C_R   0.684597 0.067937 0.311891 0.945291
O9    O     O_R   0.201410 0.264250 0.675590 -0.579430
O10   O     O_R   0.798590 0.735750 0.324410 -0.585682
O11   O     O_R   0.298590 0.764250 0.824410 -0.579877
O12   O     O_R   0.701410 0.235750 0.175590 -0.584994
O13   O     O_R   0.296810 0.094940 0.702210 -0.577331
O14   O     O_R   0.703190 0.905060 0.297790 -0.573983
O15   O     O_R   0.203190 0.594940 0.797790 -0.577525
O16   O     O_R   0.796810 0.405060 0.202210 -0.573855
C5    C     C_R   0.189973 0.432077 0.652941 0.952674
C6    C     C_R   0.810307 0.567200 0.346698 0.935667
C7    C     C_R   0.310001 0.931924 0.847086 0.953336
C8    C     C_R   0.689692 0.067345 0.153302 0.935161
O17   O     O_3   0.281300 0.427390 0.758870 -0.254487
O18   O     O_3   0.718700 0.572610 0.241130 -0.248038
O19   O     O_3   0.218700 0.927390 0.741130 -0.254464
O20   O     O_3   0.781300 0.072610 0.258870 -0.248418
V1    V     V_3+5 0.244190 0.152150 0.748350 1.256976
V2    V     V_3+5 0.755810 0.847850 0.251650 1.274323
V3    V     V_3+5 0.255810 0.652150 0.751650 1.256781
V4    V     V_3+5 0.744190 0.347850 0.248350 1.274965
C9    C     C_R   0.656203 0.057014 0.093764 -0.142790
C10   C     C_R   0.343732 0.929289 0.906890 -0.163799
C11   C     C_R   0.843756 0.556200 0.406260 -0.143591
C12   C     C_R   0.156264 0.430099 0.593134 -0.163181
C13   C     C_R   0.648481 0.011577 0.987124 0.210697
C14   C     C_R   0.361678 0.775695 0.003776 0.191893
C15   C     C_R   0.851363 0.504099 0.512606 0.209984
C16   C     C_R   0.138844 0.280544 0.495652 0.191494
C17   C     C_R   0.678293 0.039893 0.044310 -0.228252
C18   C     C_R   0.328031 0.824235 0.950750 -0.201123
C19   C     C_R   0.821607 0.534973 0.455525 -0.228856
C20   C     C_R   0.172309 0.327811 0.548932 -0.201963
C21   C     C_R   0.603396 0.038309 0.087016 -0.075881
C22   C     C_R   0.394643 0.986856 0.915717 -0.132239
C23   C     C_R   0.896621 0.539409 0.413064 -0.078176
C24   C     C_R   0.105177 0.485679 0.584473 -0.130083
C25   C     C_R   0.571983 0.991640 0.031243 0.107347
C26   C     C_R   0.431534 0.926457 0.966036 0.122302
C27   C     C_R   0.928040 0.490231 0.468620 0.107777
C28   C     C_R   0.068545 0.426554 0.533794 0.121978
C29   C     C_R   0.593668 0.002718 0.979469 -0.096408
C30   C     C_R   0.413667 0.840267 0.014028 -0.112858
C31   C     C_R   0.906209 0.496635 0.520376 -0.096895
C32   C     C_R   0.086725 0.343853 0.485496 -0.111981
C33   C     C_R   0.519544 0.936887 0.025941 -0.146904
C34   C     C_R   0.485599 0.948205 0.969482 -0.147165
C35   C     C_R   0.980609 0.437206 0.473735 -0.147492
C36   C     C_R   0.014421 0.446044 0.530312 -0.147533
C37   C     C_R   0.507230 0.967479 0.917858 0.244810
C38   C     C_R   0.500842 0.859048 0.074525 0.246453
C39   C     C_R   0.992653 0.460298 0.581961 0.244748
C40   C     C_R   0.999608 0.363254 0.424816 0.246460
C41   C     C_R   0.560024 0.998698 0.922897 0.193440
C42   C     C_R   0.448729 0.815802 0.068993 0.179965
C43   C     C_R   0.939768 0.489399 0.576990 0.193397
C44   C     C_R   0.051815 0.321195 0.430343 0.180634
H1    H     H_    0.405037 0.074456 0.881895 0.159294
H2    H     H_    0.587395 0.061447 0.125971 0.153957
H3    H     H_    0.094425 0.570680 0.618675 0.158743
H4    H     H_    0.912645 0.565635 0.374298 0.154558
H5    H     H_    0.289352 0.769998 0.941501 0.102835
H6    H     H_    0.719642 0.042929 0.051057 0.106902
H7    H     H_    0.211114 0.274626 0.558071 0.102742
H8    H     H_    0.780243 0.536520 0.448656 0.107429
C45   C     C_R   0.648113 0.903211 0.389645 -0.157074
C46   C     C_R   0.353046 0.098015 0.611382 -0.167389
C47   C     C_R   0.851879 0.403445 0.110333 -0.156945
C48   C     C_R   0.146966 0.597927 0.888630 -0.167780
H9    H     H_    0.677576 0.798761 0.390908 0.159410
H10   H     H_    0.324092 0.204065 0.610620 0.164403
H11   H     H_    0.822378 0.299208 0.109004 0.159105
H12   H     H_    0.175923 0.703869 0.889397 0.164358
C49   C     C_R   0.612189 0.878702 0.426153 0.172913
C50   C     C_R   0.389227 0.122511 0.575174 0.177309
C51   C     C_R   0.887806 0.378988 0.073824 0.173042
C52   C     C_R   0.110784 0.622431 0.924839 0.177340
C53   C     C_R   0.573607 0.014862 0.425545 0.029561
C54   C     C_R   0.427044 0.984241 0.574909 0.029212
C55   C     C_R   0.926433 0.514887 0.074507 0.029325
C56   C     C_R   0.072966 0.484296 0.925100 0.029061
C57   C     C_R   0.571430 0.167188 0.386584 -0.249349
C58   C     C_R   0.428326 0.829642 0.612695 -0.250167
C59   C     C_R   0.928642 0.666935 0.113532 -0.248567
C60   C     C_R   0.071664 0.329872 0.887288 -0.249959
H13   H     H_    0.541980 0.271752 0.385144 0.166098
H14   H     H_    0.457163 0.723255 0.613221 0.165934
H15   H     H_    0.958119 0.771316 0.115026 0.166115
H16   H     H_    0.042814 0.223624 0.886742 0.165945
C61   C     C_R   0.607058 0.189810 0.349762 0.351713
C62   C     C_R   0.392520 0.806603 0.649302 0.365904
C63   C     C_R   0.892996 0.689546 0.150334 0.352518
C64   C     C_R   0.107461 0.306858 0.850668 0.365953
C65   C     C_R   0.646334 0.056748 0.351153 -0.301508
C66   C     C_R   0.353929 0.942377 0.648914 -0.303361
C67   C     C_R   0.853687 0.556725 0.148879 -0.301438
C68   C     C_R   0.146071 0.442432 0.851083 -0.303496
N1    N     N_R   0.486078 0.056593 0.443469 -0.052422
N2    N     N_R   0.514592 0.942512 0.557071 -0.050097
N3    N     N_R   0.013971 0.556239 0.056581 -0.052219
N4    N     N_R   0.985415 0.443000 0.942941 -0.050021
N5    N     N_R   0.451796 0.050744 0.478339 -0.076862
N6    N     N_R   0.548878 0.948462 0.522204 -0.076792
N7    N     N_R   0.048246 0.550389 0.021701 -0.076756
N8    N     N_R   0.951138 0.448956 0.977818 -0.076781
C69   C     C_R   0.465365 0.994726 0.536017 0.119999
C70   C     C_R   0.535310 0.004339 0.464506 0.119334
C71   C     C_R   0.034656 0.494783 0.964005 0.119921
C72   C     C_R   0.964724 0.504406 0.035535 0.119400
N9    N     N_R   0.577703 0.043553 0.869685 0.246983
O21   O     O_R   0.576302 0.919224 0.828137 -0.324750
O22   O     O_R   0.585946 0.216810 0.858135 -0.358292
N10   N     N_R   0.431682 0.761556 0.121816 0.247730
O23   O     O_R   0.446604 0.604393 0.147865 -0.315131
O24   O     O_R   0.409342 0.883809 0.149687 -0.371022
N11   N     N_R   0.921865 0.528309 0.630469 0.246679
O25   O     O_R   0.923362 0.399964 0.670849 -0.324357
O26   O     O_R   0.913472 0.700082 0.643615 -0.357473
N12   N     N_R   0.069084 0.269913 0.377404 0.247642
O27   O     O_R   0.054490 0.113503 0.350738 -0.315012
O28   O     O_R   0.091312 0.394051 0.350095 -0.371325
C73   C     C_3   0.678270 0.963047 0.939194 -0.441143
C74   C     C_3   0.673486 0.754895 0.924022 -0.219541
C75   C     C_3   0.702125 0.705161 0.875008 -0.802432
H17   H     H_    0.686267 0.784024 0.833710 0.285724
H18   H     H_    0.743398 0.737618 0.889486 0.237913
H19   H     H_    0.697964 0.554044 0.865176 0.256867
H20   H     H_    0.689672 0.672323 0.964501 0.189257
H21   H     H_    0.632807 0.714643 0.909411 0.244110
H22   H     H_    0.667915 0.051960 0.899339 0.242289
H23   H     H_    0.719630 0.992742 0.955147 0.177820
C76   C     C_3   0.341797 0.627969 0.041002 -0.409264
C77   C     C_3   0.366052 0.437870 0.033549 -0.262391
C78   C     C_3   0.347128 0.288965 0.071245 -0.752455
H24   H     H_    0.357541 0.326022 0.119203 0.293262
H25   H     H_    0.305009 0.273684 0.057910 0.230908
H26   H     H_    0.365107 0.153712 0.064513 0.257010
H27   H     H_    0.356003 0.395286 0.985969 0.198138
H28   H     H_    0.408313 0.445792 0.046343 0.235277
H29   H     H_    0.346018 0.668298 0.088146 0.242406
H30   H     H_    0.299743 0.611443 0.026205 0.163445
C79   C     C_3   0.821494 0.451206 0.560071 -0.439717
C80   C     C_3   0.826258 0.241930 0.573596 -0.220559
C81   C     C_3   0.797322 0.187452 0.621907 -0.803342
H31   H     H_    0.813032 0.262716 0.663931 0.286106
H32   H     H_    0.756084 0.220777 0.607461 0.237848
H33   H     H_    0.801370 0.035537 0.630433 0.256364
H34   H     H_    0.810289 0.162515 0.532404 0.188983
H35   H     H_    0.866925 0.201262 0.588152 0.243809
H36   H     H_    0.831738 0.536968 0.600612 0.242093
H37   H     H_    0.780145 0.481585 0.544257 0.177641
C82   C     C_3   0.159029 0.134669 0.458064 -0.409866
C83   C     C_3   0.135117 0.943661 0.465066 -0.261655
C84   C     C_3   0.154655 0.795924 0.427487 -0.753191
H38   H     H_    0.144233 0.833023 0.379518 0.293103
H39   H     H_    0.196814 0.782324 0.440956 0.230666
H40   H     H_    0.137122 0.659782 0.434203 0.257824
H41   H     H_    0.144947 0.900466 0.512617 0.198253
H42   H     H_    0.092859 0.950635 0.451888 0.235563
H43   H     H_    0.154738 0.176294 0.411012 0.242397
H44   H     H_    0.201113 0.118948 0.472860 0.163649
N13   N     N_R   0.477786 0.925321 0.859674 0.247031
O29   O     O_R   0.457244 0.761601 0.848916 -0.332987
O30   O     O_R   0.473185 0.046797 0.816779 -0.306636
N14   N     N_R   0.535399 0.794803 0.127120 0.248989
O31   O     O_R   0.569111 0.667566 0.122860 -0.363691
O32   O     O_R   0.531550 0.855609 0.179500 -0.297352
N15   N     N_R   0.022128 0.414758 0.639875 0.247753
O33   O     O_R   0.043167 0.251345 0.649450 -0.333987
O34   O     O_R   0.026259 0.532648 0.683674 -0.306535
N16   N     N_R   0.965304 0.301528 0.371722 0.248972
O35   O     O_R   0.931796 0.172744 0.375028 -0.362213
O36   O     O_R   0.969271 0.365976 0.319787 -0.297988
C85   C     C_3   0.614746 0.699269 0.461379 -0.410131
C86   C     C_3   0.658009 0.705355 0.516678 -0.283972
C87   C     C_3   0.661950 0.521813 0.550804 -0.877071
H45   H     H_    0.625690 0.492453 0.565618 0.275893
H46   H     H_    0.670311 0.405810 0.522215 0.251417
H47   H     H_    0.693373 0.530486 0.590664 0.253731
H48   H     H_    0.695054 0.732137 0.503280 0.189899
H49   H     H_    0.650964 0.819869 0.546555 0.220346
H50   H     H_    0.577919 0.667579 0.474346 0.196895
H51   H     H_    0.621458 0.581605 0.432474 0.218684
C88   C     C_3   0.387966 0.303940 0.541233 -0.411778
C89   C     C_3   0.344757 0.304583 0.485886 -0.291861
C90   C     C_3   0.342767 0.489423 0.452710 -0.842219
H52   H     H_    0.336009 0.605855 0.482034 0.249602
H53   H     H_    0.379205 0.513683 0.437717 0.268919
H54   H     H_    0.311079 0.486515 0.413027 0.256557
H55   H     H_    0.350716 0.190077 0.455460 0.220083
H56   H     H_    0.307445 0.282092 0.499114 0.190442
H57   H     H_    0.382116 0.420529 0.570915 0.220897
H58   H     H_    0.425026 0.333156 0.528480 0.196061
C91   C     C_3   0.885156 0.199978 0.038437 -0.410177
C92   C     C_3   0.842043 0.207479 0.983006 -0.283999
C93   C     C_3   0.838109 0.024698 0.948542 -0.876598
H59   H     H_    0.874452 0.995274 0.933912 0.275936
H60   H     H_    0.829508 0.908196 0.976820 0.251504
H61   H     H_    0.806850 0.034570 0.908544 0.253567
H62   H     H_    0.804947 0.234239 0.996293 0.189633
H63   H     H_    0.849242 0.322555 0.953390 0.220491
H64   H     H_    0.922024 0.167869 0.025613 0.197010
H65   H     H_    0.878209 0.082076 0.067157 0.218309
C94   C     C_3   0.112030 0.803763 0.958771 -0.412050
C95   C     C_3   0.155223 0.804130 0.014132 -0.291776
C96   C     C_3   0.157165 0.988821 0.047323 -0.841779
H66   H     H_    0.163908 0.105383 0.018015 0.249558
H67   H     H_    0.120715 0.013026 0.062303 0.268907
H68   H     H_    0.188844 0.985724 0.087016 0.256589
H69   H     H_    0.149274 0.689494 0.044543 0.220153
H70   H     H_    0.192545 0.781673 0.000918 0.190659
H71   H     H_    0.117883 0.920420 0.929087 0.220832
H72   H     H_    0.074962 0.833033 0.971509 0.196102
N17   N     N_R   0.601107 0.344450 0.309564 0.237814
O37   O     O_R   0.559338 0.360256 0.269340 -0.298418
O38   O     O_R   0.631022 0.487908 0.321721 -0.398684
N18   N     N_R   0.397579 0.647872 0.687892 0.239726
O39   O     O_R   0.441074 0.616700 0.723830 -0.279338
O40   O     O_R   0.364813 0.512564 0.676212 -0.411125
N19   N     N_R   0.898941 0.843973 0.190555 0.237868
O41   O     O_R   0.940646 0.859186 0.230897 -0.298186
O42   O     O_R   0.869118 0.987792 0.178326 -0.398622
N20   N     N_R   0.102359 0.148429 0.812010 0.239675
O43   O     O_R   0.058878 0.117946 0.775992 -0.278774
O44   O     O_R   0.135050 0.012733 0.823669 -0.411259

loop_
_geom_bond_atom_site_label_1
_geom_bond_atom_site_label_2
_geom_bond_distance
_ccdc_geom_bond_type
O17   V3    1.747868 S    
C75   H19   1.110544 S    
O1    C5    1.329680 A    
C84   H38   1.110689 S    
C52   C94   1.515239 S    
C51   C55   1.419771 A    
O19   V1    1.748591 S    
C9    C21   1.395451 A    
C14   C76   1.524160 S    
N19   O41   1.300748 A    
O3    C7    1.329839 A    
C82   C83   1.536921 S    
C10   C18   1.388976 A    
C56   C60   1.404938 A    
C85   H51   1.111607 S    
C48   H12   1.083884 S    
C11   C23   1.395470 A    
C94   H72   1.108916 S    
N18   O40   1.300373 A    
C78   H24   1.110685 S    
C83   H41   1.112393 S    
C39   N15   1.437214 S    
C33   C38   1.424951 A    
C5    C12   1.480102 S    
C91   C92   1.533446 S    
C96   H68   1.110351 S    
O7    C3    1.338472 A    
C6    C11   1.474668 S    
C73   H23   1.112788 S    
C26   C30   1.427088 A    
C15   C79   1.523310 S    
C36   C39   1.425619 A    
C40   C44   1.408550 A    
O2    V4    1.973880 S    
O9    V1    1.990762 S    
C83   C84   1.525360 S    
C56   C71   1.490834 S    
C94   H71   1.110782 S    
C14   C18   1.401439 A    
C74   H21   1.109670 S    
C4    C65   1.496158 S    
O4    C8    1.324427 A    
C87   H46   1.111305 S    
C59   H15   1.083988 S    
C81   H32   1.110944 S    
C58   H14   1.084069 S    
C92   H63   1.111414 S    
C76   C77   1.536753 S    
C64   C68   1.418682 A    
O1    V3    1.973876 S    
O13   V1    1.968155 S    
C93   H60   1.111289 S    
C61   N17   1.431693 S    
C86   H48   1.112033 S    
O3    V1    1.973277 S    
N16   O35   1.301475 A    
C51   C91   1.515550 S    
C87   H47   1.110434 S    
C77   H28   1.109766 S    
C28   C36   1.439921 A    
C17   H6    1.085061 S    
C95   H69   1.111435 S    
C83   H42   1.109818 S    
C92   H62   1.112034 S    
C1    O15   1.338910 A    
C15   C31   1.441920 A    
C85   C86   1.533495 S    
C52   C56   1.418459 A    
C2    O16   1.337098 A    
C16   C32   1.439099 A    
O2    C6    1.324343 A    
C93   H61   1.110401 S    
C12   C24   1.397952 A    
C10   C22   1.397870 A    
C41   N9    1.431984 S    
C11   C19   1.386441 A    
O15   V3    1.968214 S    
N2    N6    1.334053 A    
C16   C20   1.401731 A    
C27   C31   1.425862 A    
N1    N5    1.333988 A    
C13   C29   1.441731 A    
C46   C50   1.408201 A    
C34   C37   1.425994 A    
O11   C7    1.323843 A    
C91   H64   1.108763 S    
C35   C36   1.423958 A    
O12   C8    1.326860 A    
C81   H33   1.110613 S    
C49   C85   1.515638 S    
C2    C67   1.496130 S    
C90   H52   1.111334 S    
N20   O44   1.300377 A    
O10   V2    1.990763 S    
N2    C69   1.359269 A    
C47   C51   1.407717 A    
N18   O39   1.300701 A    
C78   H25   1.110895 S    
C59   C63   1.405057 A    
N1    C70   1.359401 A    
C54   C58   1.404931 A    
O5    V1    1.982595 S    
N13   O30   1.301877 A    
C63   N19   1.431645 S    
C39   C43   1.410916 A    
C61   C65   1.415724 A    
O7    V3    1.982631 S    
C38   C42   1.408217 A    
C47   C67   1.407535 A    
C93   H59   1.110902 S    
C26   C34   1.440302 A    
C54   C69   1.490847 S    
C75   H17   1.110790 S    
C37   N13   1.437060 S    
C95   C96   1.526240 S    
C16   C82   1.524228 S    
C50   C54   1.418486 A    
C57   C61   1.405040 A    
C74   H20   1.112223 S    
C49   C53   1.419756 A    
C92   C93   1.526157 S    
C77   C78   1.525251 S    
C23   C27   1.420456 A    
C88   H58   1.108898 S    
C96   H66   1.111331 S    
N13   O29   1.301278 A    
C55   C59   1.406524 A    
C90   H53   1.110981 S    
N8    C72   1.359237 A    
C79   H36   1.102926 S    
N3    C72   1.359409 A    
C1    C68   1.498849 S    
O8    V4    1.982632 S    
C20   H7    1.085314 S    
N12   O28   1.301133 A    
C94   C95   1.532713 S    
N11   O26   1.301307 A    
C80   H35   1.109674 S    
C77   H27   1.112385 S    
C43   N11   1.431850 S    
C50   C88   1.515239 S    
N3    N7    1.334010 A    
C46   H10   1.083878 S    
C31   C43   1.421041 A    
C21   C25   1.420371 A    
C14   C30   1.439134 A    
C45   H9    1.084149 S    
O8    C4    1.338938 A    
C7    C10   1.480319 S    
C38   N14   1.437865 S    
C29   C41   1.420720 A    
C3    C66   1.498853 S    
C62   N18   1.432948 S    
N17   O37   1.300749 A    
N9    O21   1.301566 A    
O9    C5    1.324021 A    
N19   O42   1.300512 A    
C86   H49   1.111431 S    
C44   N12   1.432117 S    
C82   H44   1.113010 S    
C58   C62   1.405562 A    
C80   C81   1.525677 S    
N6    C70   1.359240 A    
N5    C69   1.359098 A    
N14   O31   1.301468 A    
O6    V2    1.982596 S    
C91   H65   1.111671 S    
C84   H40   1.109434 S    
N7    C71   1.359118 A    
C90   H54   1.110354 S    
C60   C64   1.405558 A    
C73   C74   1.535799 S    
C42   N10   1.432201 S    
C12   C20   1.388989 A    
C27   C35   1.437865 A    
N20   O43   1.300695 A    
C24   H3    1.078459 S    
C89   H56   1.112077 S    
N11   O25   1.301586 A    
C57   H13   1.083990 S    
N4    N8    1.334038 A    
C78   H26   1.109087 S    
C82   H43   1.102748 S    
N10   O24   1.301115 A    
O16   V4    1.968211 S    
C19   H8    1.085092 S    
C75   H18   1.110841 S    
C48   C68   1.408454 A    
C76   H30   1.113014 S    
C18   H5    1.085330 S    
C53   C57   1.406517 A    
C76   H29   1.102760 S    
C21   H2    1.078951 S    
N14   O32   1.301921 A    
O5    C1    1.338588 A    
C89   C90   1.526227 S    
C3    O13   1.338894 A    
O6    C2    1.339005 A    
N4    C71   1.359233 A    
C15   C19   1.404113 A    
O11   V3    1.991842 S    
C74   C75   1.525627 S    
O18   V4    1.747867 S    
O12   V4    1.991839 S    
C22   C26   1.424487 A    
C73   H22   1.103025 S    
C8    C9    1.474536 S    
C79   H37   1.112806 S    
C46   C66   1.408418 A    
C63   C67   1.415695 A    
C9    C17   1.386528 A    
O10   C6    1.327094 A    
O20   V2    1.748591 S    
N12   O27   1.301631 A    
C89   H55   1.111437 S    
C40   N16   1.437778 S    
C80   H34   1.112238 S    
C48   C52   1.408220 A    
C32   C44   1.420403 A    
C88   C89   1.532737 S    
C47   H11   1.084164 S    
C33   C34   1.424251 A    
C25   C33   1.437740 A    
C25   C29   1.425458 A    
C60   H16   1.084070 S    
C64   N20   1.432903 S    
N17   O38   1.300505 A    
C62   C66   1.418737 A    
C13   C73   1.523250 S    
C37   C41   1.410886 A    
C13   C17   1.404157 A    
C96   H67   1.110983 S    
C45   C65   1.407569 A    
N16   O36   1.301924 A    
C23   H4    1.078931 S    
N9    O22   1.301312 A    
C95   H70   1.112076 S    
O14   V2    1.968160 S    
C45   C49   1.407733 A    
N15   O33   1.301305 A    
C35   C40   1.425129 A    
C24   C28   1.424247 A    
C88   H57   1.110766 S    
C53   C70   1.491508 S    
C87   H45   1.110901 S    
C84   H39   1.110900 S    
C4    O14   1.337048 A    
C81   H31   1.110771 S    
C22   H1    1.078233 S    
C55   C72   1.491571 S    
C85   H50   1.108717 S    
N15   O34   1.301837 A    
C86   C87   1.526248 S    
C30   C42   1.420395 A    
O4    V2    1.973273 S    
C28   C32   1.426733 A    
N10   O23   1.301637 A    
C79   C80   1.535799 S    
