data_mof_unit_62995.cif
_audit_creation_date              2013-03-05T16:14:13-0500
_audit_creation_method            fapswitch 2.2
_symmetry_space_group_name_H-M    P1
_symmetry_Int_Tables_number       1
_space_group_crystal_system       triclinic
_cell_length_a                    45.025421
_cell_length_b                    39.017485
_cell_length_c                    21.965431
_cell_angle_alpha                 89.999661
_cell_angle_beta                  60.057329
_cell_angle_gamma                 89.999387
_cell_volume                      33437.8242667

loop_
_atom_site_label
_atom_site_type_symbol
_atom_site_description
_atom_site_fract_x
_atom_site_fract_y
_atom_site_fract_z
_atom_type_partial_charge
O1    O     O_R   0.049910 0.528880 0.450120 -0.533428
O2    O     O_R   0.950090 0.528880 0.549880 -0.533317
O3    O     O_R   0.549910 0.028880 0.450120 -0.533496
O4    O     O_R   0.450090 0.028880 0.549880 -0.533497
O5    O     O_R   0.049900 0.471110 0.450110 -0.597550
O6    O     O_R   0.950100 0.471110 0.549890 -0.597608
O7    O     O_R   0.549900 0.971110 0.450110 -0.597384
O8    O     O_R   0.450100 0.971110 0.549890 -0.597384
C1    C     C_R   0.066198 0.500007 0.435538 0.841632
C2    C     C_R   0.933801 0.500008 0.564461 0.841382
C3    C     C_R   0.566198 0.000007 0.435537 0.841570
C4    C     C_R   0.433802 0.000007 0.564463 0.841569
O9    O     O_R   0.999990 0.528880 0.589040 -0.575516
O10   O     O_R   0.000010 0.528880 0.410960 -0.575617
O11   O     O_R   0.499990 0.028880 0.589040 -0.575643
O12   O     O_R   0.500010 0.028880 0.410960 -0.575644
O13   O     O_R   0.999990 0.471110 0.589030 -0.571981
O14   O     O_R   0.000010 0.471110 0.410970 -0.571965
O15   O     O_R   0.499990 0.971110 0.589030 -0.571672
O16   O     O_R   0.500010 0.971110 0.410970 -0.571671
C5    C     C_R   0.000076 0.499798 0.617346 0.737267
C6    C     C_R   0.999922 0.499798 0.382657 0.736957
C7    C     C_R   0.500076 0.999798 0.617346 0.737070
C8    C     C_R   0.499924 0.999798 0.382654 0.737068
Cu1   Cu    Cu3+1 0.000000 0.534200 0.500000 1.084401
Cu2   Cu    Cu3+1 0.500000 0.034200 0.500000 1.084310
Cu3   Cu    Cu3+1 0.000000 0.465790 0.500000 0.990956
Cu4   Cu    Cu3+1 0.500000 0.965790 0.500000 0.992331
C9    C     C_2   0.974924 0.513488 0.808053 -0.121805
C10   C     C_2   0.025082 0.513465 0.191942 -0.121840
C11   C     C_2   0.474926 0.013495 0.808051 -0.120692
C12   C     C_2   0.525074 0.013495 0.191949 -0.120693
C13   C     C_2   0.002298 0.507375 0.815056 -0.238645
C14   C     C_2   0.997703 0.507376 0.184942 -0.238672
C15   C     C_2   0.502299 0.007379 0.815056 -0.238857
C16   C     C_2   0.497701 0.007379 0.184944 -0.238858
H1    H     H_    0.949667 0.516590 0.853930 0.163249
H2    H     H_    0.050342 0.516544 0.146063 0.163256
H3    H     H_    0.449670 0.016601 0.853927 0.163311
H4    H     H_    0.550330 0.016600 0.146073 0.163311
H5    H     H_    0.027851 0.507870 0.769397 0.184923
H6    H     H_    0.972150 0.507891 0.230598 0.184985
H7    H     H_    0.527852 0.007870 0.769397 0.184546
H8    H     H_    0.472148 0.007871 0.230603 0.184548
C17   C     C_2   0.978667 0.517222 0.737769 -0.240566
C18   C     C_2   0.021344 0.517199 0.262221 -0.240581
C19   C     C_2   0.478669 0.017227 0.737766 -0.240624
C20   C     C_2   0.521330 0.017227 0.262234 -0.240625
C21   C     C_2   0.000912 0.498060 0.682848 0.373707
C22   C     C_2   0.999077 0.498064 0.317165 0.373693
C23   C     C_2   0.500911 0.998061 0.682850 0.373991
C24   C     C_2   0.499088 0.998061 0.317151 0.373993
H9    H     H_    0.961186 0.534483 0.732320 0.124951
H10   H     H_    0.038847 0.534438 0.267648 0.124878
H11   H     H_    0.461192 0.034491 0.732313 0.124881
H12   H     H_    0.538808 0.034490 0.267686 0.124879
C25   C     C_R   0.377643 0.502090 0.069118 -0.178775
C26   C     C_R   0.622355 0.502003 0.930896 -0.178773
C27   C     C_R   0.877645 0.002131 0.069117 -0.180183
C28   C     C_R   0.122355 0.002131 0.930883 -0.180183
H13   H     H_    0.390932 0.504564 0.012466 0.170827
H14   H     H_    0.609067 0.504407 0.987560 0.170855
H15   H     H_    0.890935 0.004627 0.012468 0.170453
H16   H     H_    0.109065 0.004627 0.987532 0.170453
C29   C     C_R   0.341901 0.501376 0.105677 -0.231560
C30   C     C_R   0.658097 0.501286 0.894336 -0.231555
C31   C     C_R   0.841903 0.001419 0.105671 -0.231547
C32   C     C_R   0.158097 0.001420 0.894328 -0.231548
H17   H     H_    0.328357 0.503072 0.076585 0.161864
H18   H     H_    0.671640 0.502911 0.923439 0.161861
H19   H     H_    0.828360 0.003138 0.076580 0.161776
H20   H     H_    0.171640 0.003138 0.923420 0.161777
C33   C     C_R   0.323738 0.497980 0.179024 0.019497
C34   C     C_R   0.676261 0.497977 0.820972 0.019519
C35   C     C_R   0.823738 0.997996 0.179013 0.019649
C36   C     C_R   0.176262 0.997997 0.820986 0.019650
C37   C     C_R   0.341877 0.496137 0.215929 0.511472
C38   C     C_R   0.658122 0.496225 0.784056 0.511451
C39   C     C_R   0.841876 0.996125 0.215918 0.511156
C40   C     C_R   0.158124 0.996127 0.784082 0.511154
C41   C     C_R   0.377770 0.496424 0.178807 -0.250230
C42   C     C_R   0.622230 0.496510 0.821178 -0.250212
C43   C     C_R   0.877769 0.996410 0.178799 -0.249487
C44   C     C_R   0.122230 0.996411 0.821201 -0.249486
H21   H     H_    0.391288 0.494318 0.207885 0.178548
H22   H     H_    0.608713 0.494475 0.792087 0.178554
H23   H     H_    0.891286 0.994281 0.207875 0.178768
H24   H     H_    0.108714 0.994282 0.792125 0.178768
C45   C     C_R   0.395933 0.499521 0.105284 -0.106455
C46   C     C_R   0.604066 0.499521 0.894716 -0.106474
C47   C     C_R   0.895934 0.999532 0.105280 -0.106159
C48   C     C_R   0.104066 0.999532 0.894719 -0.106160
C49   C     C_R   0.267592 0.523260 0.206546 -0.212171
C50   C     C_R   0.732405 0.523198 0.793616 -0.212164
C51   C     C_R   0.767591 0.023282 0.206561 -0.212227
C52   C     C_R   0.232409 0.023283 0.793440 -0.212227
H25   H     H_    0.280945 0.544035 0.170355 0.153078
H26   H     H_    0.719051 0.543927 0.829939 0.153077
H27   H     H_    0.780942 0.044066 0.170394 0.152976
H28   H     H_    0.219056 0.044066 0.829607 0.152977
C53   C     C_R   0.231913 0.523242 0.244052 -0.149499
C54   C     C_R   0.768083 0.523182 0.756114 -0.149480
C55   C     C_R   0.731912 0.023261 0.244064 -0.149406
C56   C     C_R   0.268087 0.023262 0.755936 -0.149405
H29   H     H_    0.218221 0.543781 0.235460 0.174033
H30   H     H_    0.781774 0.543676 0.764838 0.174042
H31   H     H_    0.718218 0.043806 0.235496 0.174062
H32   H     H_    0.281780 0.043807 0.764506 0.174063
C57   C     C_R   0.213889 0.497043 0.292310 0.005706
C58   C     C_R   0.786109 0.497044 0.707688 0.005696
C59   C     C_R   0.713889 0.997050 0.292293 0.005717
C60   C     C_R   0.286111 0.997052 0.707706 0.005716
C61   C     C_R   0.232152 0.470207 0.302624 0.296957
C62   C     C_R   0.767848 0.470267 0.697199 0.296955
C63   C     C_R   0.732154 0.970206 0.302577 0.296972
C64   C     C_R   0.267846 0.970208 0.697422 0.296971
C65   C     C_R   0.268120 0.470455 0.263903 -0.154059
C66   C     C_R   0.731880 0.470509 0.735923 -0.154072
C67   C     C_R   0.768122 0.970457 0.263856 -0.154082
C68   C     C_R   0.231878 0.970459 0.736143 -0.154084
H33   H     H_    0.282378 0.450153 0.271460 0.202748
H34   H     H_    0.717624 0.450250 0.728238 0.202787
H35   H     H_    0.782381 0.950147 0.271389 0.202749
H36   H     H_    0.217620 0.950149 0.728608 0.202749
C69   C     C_R   0.285922 0.497067 0.216686 0.048906
C70   C     C_R   0.714077 0.497062 0.783309 0.048881
C71   C     C_R   0.785922 0.997080 0.216670 0.048897
C72   C     C_R   0.214078 0.997082 0.783329 0.048896
C73   C     C_R   0.157738 0.471916 0.320657 -0.149780
C74   C     C_R   0.842262 0.471863 0.679170 -0.149838
C75   C     C_R   0.657739 0.971926 0.320629 -0.149653
C76   C     C_R   0.342262 0.971927 0.679370 -0.149654
H37   H     H_    0.171134 0.450833 0.285409 0.171237
H38   H     H_    0.828870 0.450735 0.714281 0.171242
H39   H     H_    0.671135 0.950848 0.285365 0.171343
H40   H     H_    0.328865 0.950848 0.714633 0.171342
C77   C     C_R   0.122083 0.472616 0.355995 -0.228438
C78   C     C_R   0.877917 0.472564 0.643834 -0.228382
C79   C     C_R   0.622084 0.972623 0.355973 -0.228175
C80   C     C_R   0.377917 0.972624 0.644027 -0.228175
H41   H     H_    0.108595 0.452008 0.347031 0.182501
H42   H     H_    0.891407 0.451911 0.652668 0.182598
H43   H     H_    0.608595 0.952019 0.346996 0.182724
H44   H     H_    0.391405 0.952019 0.653002 0.182725
C81   C     C_R   0.103973 0.499875 0.401050 -0.213725
C82   C     C_R   0.896024 0.499879 0.598951 -0.213846
C83   C     C_R   0.603973 0.999876 0.401047 -0.213797
C84   C     C_R   0.396027 0.999877 0.598953 -0.213796
C85   C     C_R   0.122288 0.526590 0.411585 0.240026
C86   C     C_R   0.877703 0.526650 0.588595 0.240088
C87   C     C_R   0.622287 0.026587 0.411597 0.240015
C88   C     C_R   0.377713 0.026588 0.588404 0.240014
C89   C     C_R   0.158414 0.525480 0.376442 0.423363
C90   C     C_R   0.841577 0.525541 0.623739 0.423347
C91   C     C_R   0.658413 0.025478 0.376449 0.423381
C92   C     C_R   0.341587 0.025479 0.623552 0.423382
C93   C     C_R   0.176092 0.498219 0.330310 -0.003688
C94   C     C_R   0.823905 0.498222 0.669692 -0.003662
C95   C     C_R   0.676092 0.998224 0.330297 -0.003792
C96   C     C_R   0.323908 0.998226 0.669703 -0.003792
O17   O     O_R   0.971110 0.450090 0.028870 -0.581386
O18   O     O_R   0.028890 0.450090 0.971130 -0.581403
O19   O     O_R   0.471110 0.950090 0.028870 -0.584719
O20   O     O_R   0.528890 0.950090 0.971130 -0.584719
C97   C     C_R   0.000000 0.433798 1.000000 0.800680
C98   C     C_R   0.500000 0.933761 1.000000 0.805142
O21   O     O_R   0.971120 0.500000 0.939830 -0.582145
O22   O     O_R   0.028880 0.500000 0.060170 -0.582165
O23   O     O_R   0.471120 0.000000 0.939830 -0.580586
O24   O     O_R   0.528880 0.000000 0.060170 -0.580587
O25   O     O_R   0.028890 0.500000 0.882090 -0.585452
O26   O     O_R   0.971110 0.500000 0.117910 -0.585430
O27   O     O_R   0.528890 0.000000 0.882090 -0.586555
O28   O     O_R   0.471110 0.000000 0.117910 -0.586556
C99   C     C_R   0.000327 0.502054 0.882398 0.829538
C100  C     C_R   0.999673 0.502054 0.117602 0.829543
C101  C     C_R   0.500328 0.002056 0.882398 0.831303
C102  C     C_R   0.499672 0.002056 0.117602 0.831304
Cu5   Cu    Cu3+1 0.965790 0.500000 0.034190 0.970965
Cu6   Cu    Cu3+1 0.034210 0.500000 0.965810 0.970920
Cu7   Cu    Cu3+1 0.465790 0.000000 0.034190 0.969575
Cu8   Cu    Cu3+1 0.534210 0.000000 0.965810 0.969573
O29   O     O_R   0.971120 0.549910 0.028870 -0.588563
O30   O     O_R   0.028880 0.549910 0.971130 -0.588561
O31   O     O_R   0.471120 0.049910 0.028870 -0.588635
O32   O     O_R   0.528880 0.049910 0.971130 -0.588635
C103  C     C_R   1.000000 0.566209 0.000000 0.829399
C104  C     C_R   0.500000 0.066209 0.000000 0.829373
O33   O     O_R   0.499990 0.450020 0.051430 -0.579435
O34   O     O_R   0.500010 0.450020 0.948570 -0.579412
O35   O     O_R   0.999990 0.950020 0.051430 -0.579420
O36   O     O_R   0.000010 0.950020 0.948570 -0.579419
C105  C     C_R   0.500000 0.433745 0.000000 0.842342
C106  C     C_R   1.000000 0.933745 0.000000 0.842276
O37   O     O_R   0.450090 0.499930 0.101420 -0.586927
O38   O     O_R   0.549910 0.499930 0.898580 -0.586917
O39   O     O_R   0.950090 0.999930 0.101420 -0.585996
O40   O     O_R   0.049910 0.999930 0.898580 -0.585995
O41   O     O_R   0.450100 0.500000 0.998350 -0.585594
O42   O     O_R   0.549900 0.500000 0.001650 -0.585616
O43   O     O_R   0.950100 0.000000 0.998350 -0.586946
O44   O     O_R   0.049900 0.000000 0.001650 -0.586946
C107  C     C_R   0.433774 0.499890 0.066558 0.817182
C108  C     C_R   0.566226 0.499890 0.933442 0.817194
C109  C     C_R   0.933774 0.999894 0.066558 0.815632
C110  C     C_R   0.066226 0.999894 0.933442 0.815633
Cu9   Cu    Cu3+1 0.499990 0.499920 0.061020 0.969933
Cu10  Cu    Cu3+1 0.500010 0.499920 0.938980 0.969963
Cu11  Cu    Cu3+1 0.999990 0.999920 0.061020 0.971286
Cu12  Cu    Cu3+1 0.000010 0.999920 0.938980 0.971286
O45   O     O_R   0.500000 0.549840 0.051640 -0.588981
O46   O     O_R   0.500000 0.549840 0.948360 -0.588996
O47   O     O_R   0.000000 0.049840 0.051640 -0.585587
O48   O     O_R   0.000000 0.049840 0.948360 -0.585587
C111  C     C_R   0.500000 0.566113 1.000000 0.782452
C112  C     C_R   0.000000 0.066071 1.000000 0.778192
C113  C     C_R   0.500909 0.622117 0.054208 -0.178150
C114  C     C_R   0.499092 0.622117 0.945790 -0.178163
C115  C     C_R   0.014845 0.121922 0.033181 -0.177381
C116  C     C_R   0.985155 0.121922 0.966817 -0.177381
H45   H     H_    0.501550 0.608799 0.096789 0.156702
H46   H     H_    0.498451 0.608799 0.903209 0.156699
H47   H     H_    0.026770 0.108425 0.058512 0.148796
H48   H     H_    0.973230 0.108426 0.941486 0.148795
C117  C     C_R   0.500945 0.657857 0.054152 -0.163790
C118  C     C_R   0.499057 0.657857 0.945844 -0.163793
C119  C     C_R   0.015223 0.157697 0.032470 -0.159435
C120  C     C_R   0.984778 0.157698 0.967527 -0.159436
H49   H     H_    0.501273 0.671293 0.096955 0.133303
H50   H     H_    0.498729 0.671293 0.903040 0.133301
H51   H     H_    0.027889 0.170843 0.056597 0.129039
H52   H     H_    0.972113 0.170844 0.943400 0.129039
C121  C     C_R   0.500001 0.676040 0.999997 0.103685
C122  C     C_R   0.000001 0.176105 0.999998 0.104254
C123  C     C_R   0.500000 0.603896 0.999999 -0.034902
C124  C     C_R   0.000000 0.103777 0.999999 -0.028119
C125  C     C_R   0.478187 0.732074 0.983053 -0.167378
C126  C     C_R   0.521816 0.732073 0.016940 -0.167379
C127  C     C_R   0.001968 0.232661 0.942927 -0.167792
C128  C     C_R   0.998034 0.232660 0.057069 -0.167793
H53   H     H_    0.460894 0.718643 0.970445 0.133747
H54   H     H_    0.539109 0.718642 0.029548 0.133749
H55   H     H_    0.004289 0.219521 0.897369 0.131633
H56   H     H_    0.995712 0.219520 0.102627 0.131634
C129  C     C_R   0.001558 0.268436 0.943370 -0.163880
C130  C     C_R   0.998443 0.268436 0.056626 -0.163874
C131  C     C_R   0.478153 0.767810 0.983147 -0.165355
C132  C     C_R   0.521849 0.767810 0.016846 -0.165354
H57   H     H_    0.003034 0.282104 0.899008 0.141240
H58   H     H_    0.996968 0.282103 0.100988 0.141244
H59   H     H_    0.461297 0.781242 0.969325 0.135038
H60   H     H_    0.538705 0.781240 0.030668 0.135039
C133  C     C_R   0.000001 0.286460 0.999998 0.085795
C134  C     C_R   0.500001 0.785994 0.999997 0.094537
C135  C     C_R   0.500001 0.713889 0.999997 0.093945
C136  C     C_R   0.000001 0.214251 0.999998 0.096008
C137  C     C_R   0.027070 0.342146 0.999379 -0.154998
C138  C     C_R   0.972932 0.342147 0.000617 -0.154994
C139  C     C_R   0.531020 0.842027 0.970583 -0.158726
C140  C     C_R   0.468981 0.842027 0.029413 -0.158727
H61   H     H_    0.048162 0.328488 0.998779 0.139489
H62   H     H_    0.951840 0.328489 0.001217 0.139490
H63   H     H_    0.555302 0.828590 0.946827 0.134620
H64   H     H_    0.444700 0.828591 0.053169 0.134620
C141  C     C_R   0.027292 0.377930 0.998490 -0.170418
C142  C     C_R   0.972709 0.377931 0.001508 -0.170407
C143  C     C_R   0.531030 0.877767 0.970511 -0.168762
C144  C     C_R   0.468971 0.877767 0.029487 -0.168761
H65   H     H_    0.048524 0.391408 0.997648 0.153094
H66   H     H_    0.951477 0.391409 0.002350 0.153101
H67   H     H_    0.555359 0.891093 0.947261 0.158536
H68   H     H_    0.444642 0.891093 0.052737 0.158536
C145  C     C_R   0.000000 0.396090 0.999999 -0.031459
C146  C     C_R   0.500000 0.895983 0.999999 -0.037268
C147  C     C_R   0.000001 0.324114 0.999998 0.092130
C148  C     C_R   0.500001 0.823843 0.999997 0.101414
C149  C     C_R   0.514780 0.377975 0.936524 -0.228901
C150  C     C_R   0.485220 0.377975 0.063478 -0.228909
C151  C     C_R   0.014780 0.877975 0.936524 -0.228889
C152  C     C_R   0.985219 0.877975 0.063478 -0.228889
H69   H     H_    0.526201 0.391983 0.887394 0.198705
H70   H     H_    0.473798 0.391984 0.112608 0.198698
H71   H     H_    0.026202 0.891983 0.887394 0.198706
H72   H     H_    0.973798 0.891984 0.112608 0.198706
C153  C     C_R   0.515088 0.342046 0.935463 0.318301
C154  C     C_R   0.484911 0.342046 0.064541 0.318305
C155  C     C_R   0.015088 0.842046 0.935462 0.318307
C156  C     C_R   0.984911 0.842046 0.064541 0.318308
C157  C     C_R   0.499999 0.323847 0.000002 -0.171645
C158  C     C_R   1.000000 0.823847 0.000002 -0.171649
C159  C     C_R   0.500000 0.396015 0.000001 -0.155889
C160  C     C_R   1.000000 0.896015 0.000001 -0.155890
C161  C     C_R   0.471063 0.268155 0.009499 -0.084501
C162  C     C_R   0.528936 0.268154 0.990507 -0.084511
C163  C     C_R   0.971063 0.768155 0.009497 -0.084513
C164  C     C_R   0.028936 0.768154 0.990507 -0.084515
H73   H     H_    0.448636 0.281865 0.016579 0.143839
H74   H     H_    0.551363 0.281864 0.983426 0.143831
H75   H     H_    0.948636 0.781865 0.016577 0.143833
H76   H     H_    0.051363 0.781864 0.983427 0.143831
C165  C     C_R   0.971196 0.732392 0.008739 -0.112999
C166  C     C_R   0.028803 0.732391 0.991265 -0.113004
C167  C     C_R   0.471195 0.232392 0.008740 -0.112995
C168  C     C_R   0.528803 0.232391 0.991265 -0.112995
H77   H     H_    0.948897 0.718929 0.014539 0.169569
H78   H     H_    0.051102 0.718927 0.985465 0.169565
H79   H     H_    0.448897 0.218929 0.014541 0.169568
H80   H     H_    0.551102 0.218927 0.985464 0.169563
C169  C     C_R   0.999999 0.714184 0.000002 0.119185
C170  C     C_R   0.499999 0.214184 0.000003 0.119180
C171  C     C_R   0.499999 0.286125 0.000003 0.198599
C172  C     C_R   0.999999 0.786125 0.000002 0.198611
C173  C     C_R   0.027440 0.657887 0.945339 0.445175
C174  C     C_R   0.972558 0.657887 0.054663 0.445186
C175  C     C_R   0.527440 0.157887 0.945339 0.445179
C176  C     C_R   0.472559 0.157886 0.054664 0.445180
C177  C     C_R   0.027699 0.622020 0.946915 -0.257723
C178  C     C_R   0.972300 0.622020 0.053086 -0.257729
C179  C     C_R   0.527699 0.122021 0.946915 -0.257776
C180  C     C_R   0.472300 0.122020 0.053086 -0.257776
H81   H     H_    0.049221 0.608367 0.905307 0.181523
H82   H     H_    0.950779 0.608367 0.094693 0.181519
H83   H     H_    0.549220 0.108367 0.905307 0.181485
H84   H     H_    0.450779 0.108367 0.094694 0.181485
C181  C     C_R   1.000000 0.603921 0.000000 -0.168550
C182  C     C_R   0.499999 0.103921 0.000000 -0.168496
C183  C     C_R   0.999999 0.676196 0.000001 -0.121046
C184  C     C_R   0.499999 0.176196 0.000002 -0.121037
N1    N     N_R   0.214913 0.443267 0.353017 0.120663
O49   O     O_R   0.187027 0.449515 0.412092 -0.365578
O50   O     O_R   0.229189 0.413268 0.343711 -0.334805
N2    N     N_R   0.785089 0.443395 0.646627 0.120666
O51   O     O_R   0.812972 0.449710 0.587591 -0.365606
O52   O     O_R   0.770816 0.413407 0.655735 -0.334801
N3    N     N_R   0.714917 0.943254 0.352942 0.120651
O53   O     O_R   0.687034 0.949493 0.412028 -0.365688
O54   O     O_R   0.729193 0.913254 0.343600 -0.334840
N4    N     N_R   0.285084 0.943256 0.647055 0.120651
O55   O     O_R   0.312966 0.949496 0.587969 -0.365687
O56   O     O_R   0.270809 0.913256 0.656396 -0.334840
N5    N     N_R   0.104638 0.553943 0.460184 0.140456
O57   O     O_R   0.114303 0.585549 0.442429 -0.292683
O58   O     O_R   0.081844 0.547028 0.524970 -0.393061
N6    N     N_R   0.895345 0.554068 0.540176 0.140537
O59   O     O_R   0.885707 0.585660 0.558188 -0.292732
O60   O     O_R   0.918087 0.547242 0.475308 -0.392716
N7    N     N_R   0.604635 0.053933 0.460213 0.140462
O61   O     O_R   0.614301 0.085541 0.442480 -0.292615
O62   O     O_R   0.581839 0.047010 0.524992 -0.393155
N8    N     N_R   0.395364 0.053935 0.539789 0.140462
O63   O     O_R   0.385699 0.085543 0.557524 -0.292614
O64   O     O_R   0.418160 0.047012 0.475010 -0.393154
O65   O     O_3   0.176486 0.551467 0.386368 -0.556735
C185  C     C_3   0.181521 0.542381 0.442714 -0.195687
H85   H     H_    0.197978 0.519229 0.430044 0.169779
H86   H     H_    0.156727 0.538283 0.492090 0.177638
H87   H     H_    0.194961 0.563746 0.452184 0.184862
O66   O     O_3   0.823502 0.551590 0.613998 -0.556768
C186  C     C_3   0.818461 0.542636 0.557600 -0.195690
H88   H     H_    0.802006 0.519493 0.570113 0.169753
H89   H     H_    0.843253 0.538595 0.508188 0.177737
H90   H     H_    0.805014 0.564052 0.548288 0.184869
O67   O     O_3   0.676484 0.051460 0.386394 -0.556656
C187  C     C_3   0.681520 0.042360 0.442732 -0.195825
H91   H     H_    0.697978 0.019207 0.430045 0.169727
H92   H     H_    0.656727 0.038257 0.492106 0.177559
H93   H     H_    0.694962 0.063720 0.452215 0.184899
O68   O     O_3   0.323516 0.051462 0.613608 -0.556656
C188  C     C_3   0.318480 0.042363 0.557270 -0.195822
H94   H     H_    0.302022 0.019211 0.569955 0.169726
H95   H     H_    0.343273 0.038261 0.507895 0.177560
H96   H     H_    0.305038 0.063724 0.547788 0.184901
N9    N     N_R   0.530899 0.324701 0.868559 0.133915
O69   O     O_R   0.555786 0.339334 0.813409 -0.333180
O70   O     O_R   0.518456 0.296077 0.860440 -0.351734
N10   N     N_R   0.469100 0.324702 0.131445 0.133916
O71   O     O_R   0.444213 0.339336 0.186594 -0.333178
O72   O     O_R   0.481542 0.296077 0.139565 -0.351738
N11   N     N_R   0.030900 0.824701 0.868559 0.133910
O73   O     O_R   0.055787 0.839334 0.813409 -0.333205
O74   O     O_R   0.018457 0.796077 0.860439 -0.351758
N12   N     N_R   0.969100 0.824702 0.131444 0.133910
O75   O     O_R   0.944212 0.839336 0.186594 -0.333206
O76   O     O_R   0.981542 0.796077 0.139565 -0.351763
O77   O     O_3   0.054699 0.674917 0.891029 -0.579516
C189  C     C_3   0.047842 0.678722 0.835402 -0.234882
H97   H     H_    0.024170 0.694047 0.851791 0.171356
H98   H     H_    0.045817 0.653381 0.814457 0.152457
H99   H     H_    0.069471 0.692780 0.792048 0.210161
O78   O     O_3   0.945300 0.674917 0.108974 -0.579510
C190  C     C_3   0.952157 0.678721 0.164601 -0.234921
H100  H     H_    0.975829 0.694045 0.148213 0.171358
H101  H     H_    0.954181 0.653379 0.185546 0.152441
H102  H     H_    0.930527 0.692778 0.207955 0.210156
O79   O     O_3   0.554698 0.174917 0.891028 -0.579529
C191  C     C_3   0.547841 0.178722 0.835402 -0.234898
H103  H     H_    0.524169 0.194047 0.851791 0.171367
H104  H     H_    0.545816 0.153381 0.814457 0.152430
H105  H     H_    0.569470 0.192780 0.792048 0.210176
O80   O     O_3   0.445300 0.174917 0.108975 -0.579524
C192  C     C_3   0.452157 0.178720 0.164602 -0.234895
H106  H     H_    0.475829 0.194045 0.148213 0.171362
H107  H     H_    0.454182 0.153379 0.185546 0.152428
H108  H     H_    0.430528 0.192778 0.207957 0.210178
O81   O     O_3   0.018009 0.470971 0.693300 -0.570854
C193  C     C_3   0.052901 0.471041 0.640394 -0.275359
H109  H     H_    0.064671 0.496902 0.633360 0.170174
H110  H     H_    0.056284 0.461431 0.589713 0.187916
H111  H     H_    0.067047 0.453403 0.656531 0.195734
O82   O     O_3   0.981941 0.471000 0.306754 -0.570844
C194  C     C_3   0.947057 0.471097 0.359704 -0.275457
H112  H     H_    0.935313 0.496976 0.366794 0.170009
H113  H     H_    0.943688 0.461454 0.410353 0.187892
H114  H     H_    0.932876 0.453500 0.343582 0.195830
O83   O     O_3   0.518004 0.970970 0.693307 -0.570154
C195  C     C_3   0.552897 0.971036 0.640406 -0.275019
H115  H     H_    0.564670 0.996895 0.633375 0.169878
H116  H     H_    0.556281 0.961428 0.589722 0.187976
H117  H     H_    0.567040 0.953396 0.656545 0.195497
O84   O     O_3   0.481995 0.970971 0.306694 -0.570155
C196  C     C_3   0.447102 0.971039 0.359596 -0.275018
H118  H     H_    0.435330 0.996898 0.366626 0.169879
H119  H     H_    0.443718 0.961431 0.410280 0.187976
H120  H     H_    0.432959 0.953398 0.343458 0.195498
O85   O     O_3   0.324705 0.492896 0.288214 -0.577021
C197  C     C_3   0.319591 0.525931 0.317769 -0.294892
H121  H     H_    0.303796 0.542096 0.302967 0.163644
H122  H     H_    0.344441 0.538770 0.302373 0.157475
H123  H     H_    0.305425 0.523458 0.375824 0.203069
O86   O     O_3   0.675295 0.493076 0.711754 -0.577045
C198  C     C_3   0.680412 0.526154 0.682375 -0.294924
H124  H     H_    0.696210 0.542262 0.697261 0.163649
H125  H     H_    0.655564 0.539013 0.697841 0.157470
H126  H     H_    0.694577 0.523754 0.624307 0.203075
O87   O     O_3   0.824703 0.992859 0.288198 -0.577114
C199  C     C_3   0.819582 0.025884 0.317802 -0.294617
H127  H     H_    0.803783 0.042057 0.303025 0.163623
H128  H     H_    0.844429 0.038723 0.302424 0.157908
H129  H     H_    0.805417 0.023390 0.375854 0.203019
O88   O     O_3   0.175297 0.992861 0.711801 -0.577116
C200  C     C_3   0.180417 0.025886 0.682199 -0.294610
H130  H     H_    0.196216 0.042059 0.696976 0.163622
H131  H     H_    0.155570 0.038726 0.697577 0.157907
H132  H     H_    0.194582 0.023392 0.624147 0.203020

loop_
_geom_bond_atom_site_label_1
_geom_bond_atom_site_label_2
_geom_bond_distance
_ccdc_geom_bond_type
C174  C178  1.400023 A    
C190  H102  1.109203 S    
C15   C101  1.451887 S    
C194  H113  1.110774 S    
O85   C197  1.409499 S    
C43   H23   1.083152 S    
C14   H6    1.085381 S    
C56   H32   1.083525 S    
C140  H64   1.083001 S    
C168  C170  1.405362 A    
C150  C159  1.398616 A    
C118  C121  1.403774 A    
C24   O84   1.392429 S    
C137  H61   1.083303 S    
C173  O77   1.381820 S    
O84   C196  1.412829 S    
C191  H104  1.113315 S    
C162  H74   1.083165 S    
C139  H63   1.083003 S    
C51   H27   1.083223 S    
C174  C183  1.413377 A    
O37   C107  1.299102 A    
C9    C13   1.337521 D    
C128  H56   1.082029 S    
C10   H2    1.085967 S    
O23   C101  1.292745 A    
C85   C89   1.410711 A    
C149  H69   1.083423 S    
C82   C86   1.417971 A    
C88   C92   1.410707 A    
C51   C55   1.392205 A    
C151  H71   1.083421 S    
O38   C108  1.299100 A    
C175  C184  1.413376 A    
C188  H96   1.109121 S    
C28   C48   1.404398 A    
C74   H38   1.083395 S    
O68   C188  1.410309 S    
C46   C108  1.476423 S    
C157  C171  1.471849 S    
C40   O88   1.381783 S    
C113  H45   1.082866 S    
C179  H83   1.083507 S    
C137  C147  1.401476 A    
C137  C141  1.396300 A    
C49   C53   1.392202 A    
N3    O54   1.301435 A    
C200  H132  1.109214 S    
C163  H75   1.083170 S    
O16   Cu4   1.966343 S    
O22   Cu6   1.963916 S    
C153  N9    1.442227 S    
Cu11  O47   1.958595 S    
O7    Cu4   1.958081 S    
C9    C17   1.474206 S    
C189  H98   1.113315 S    
O18   C97   1.294148 A    
C38   C42   1.400449 A    
C179  C182  1.400745 A    
C175  O79   1.381817 S    
C32   H20   1.083338 S    
O9    C5    1.294820 A    
C139  C148  1.403808 A    
C27   C47   1.404403 A    
O36   Cu12  1.958333 S    
O22   C100  1.292730 A    
O26   Cu5   1.969471 S    
O24   C102  1.292746 A    
O27   Cu8   1.969474 S    
C63   N3    1.440476 S    
C52   C56   1.392205 A    
C133  C147  1.469153 S    
O8    Cu4   1.958081 S    
C193  H110  1.110770 S    
C16   H8    1.085374 S    
C189  H99   1.109202 S    
C74   C78   1.391592 A    
C122  C136  1.488361 S    
C199  H127  1.113593 S    
C56   C60   1.403018 A    
O44   C110  1.298305 A    
Cu7   O31   1.958439 S    
C60   C96   1.475460 S    
C154  C157  1.419150 A    
O3    Cu2   1.958475 S    
C44   H24   1.083152 S    
O31   C104  1.293936 A    
C25   H13   1.082849 S    
C130  C133  1.399861 A    
C67   H35   1.083296 S    
C43   C47   1.404662 A    
C166  H78   1.082828 S    
C27   H15   1.082852 S    
C74   C94   1.398579 A    
C28   H16   1.082852 S    
C195  H115  1.114060 S    
O35   C106  1.295728 A    
C155  N11   1.442227 S    
O81   C193  1.412828 S    
C176  O80   1.381818 S    
C30   H18   1.083340 S    
C103  C181  1.471420 S    
N8    O63   1.301094 A    
C62   N2    1.440491 S    
O3    C3    1.294224 A    
N3    O53   1.301261 A    
C20   C24   1.345830 D    
C73   C77   1.391597 A    
C50   C54   1.392189 A    
C144  C146  1.404743 A    
C186  H88   1.112044 S    
C90   C94   1.409408 A    
C176  C184  1.413377 A    
C55   H31   1.083523 S    
C35   C39   1.410780 A    
C114  C118  1.394462 A    
O17   C97   1.294148 A    
Cu6   O30   1.958435 S    
C156  C158  1.419149 A    
C132  C134  1.404120 A    
C119  H51   1.082073 S    
O39   Cu11  1.960898 S    
C196  H118  1.114056 S    
O19   Cu7   1.958393 S    
O83   C195  1.412830 S    
C57   C93   1.475454 S    
C113  C123  1.404828 A    
C5    C21   1.459516 S    
C192  H106  1.113612 S    
C106  C160  1.472118 S    
C198  H125  1.113296 S    
C90   O66   1.383813 S    
C164  C166  1.395447 A    
C116  C120  1.395966 A    
C12   C16   1.337522 D    
C114  C123  1.404827 A    
C61   N1    1.440479 S    
C89   C93   1.409432 A    
O48   C112  1.299109 A    
C142  C145  1.404428 A    
C30   C34   1.402398 A    
C153  C157  1.419147 A    
C187  H91   1.112042 S    
C125  C131  1.394361 A    
C66   H34   1.083289 S    
C98   C146  1.474006 S    
C59   C95   1.475459 S    
C27   C31   1.394790 A    
O5    Cu3   1.958081 S    
C79   H43   1.083298 S    
C48   C110  1.476416 S    
C162  C171  1.400471 A    
C144  H68   1.082888 S    
C140  C144  1.394478 A    
C15   H7    1.085376 S    
C58   C62   1.417675 A    
O18   Cu6   1.958397 S    
C199  H129  1.109216 S    
C76   H40   1.083407 S    
C17   H9    1.086938 S    
C92   O68   1.383798 S    
Cu9   O45   1.958595 S    
N1    O50   1.301438 A    
C138  H62   1.083304 S    
C22   O82   1.392432 S    
C23   O83   1.392431 S    
N10   O72   1.301057 A    
N5    O58   1.301216 A    
C128  C136  1.408712 A    
C10   C14   1.337520 D    
C91   C95   1.409434 A    
O13   Cu3   1.966343 S    
C195  H117  1.109166 S    
C92   C96   1.409436 A    
C16   C102  1.451889 S    
N2    O51   1.301259 A    
C37   O85   1.381784 S    
C38   O86   1.381787 S    
C118  H50   1.083002 S    
C149  C153  1.402014 A    
C163  C172  1.400471 A    
C64   C68   1.403983 A    
C151  C155  1.402014 A    
O38   Cu10  1.960898 S    
C83   C87   1.417942 A    
O5    C1    1.295265 A    
C51   C71   1.399512 A    
C198  H124  1.113598 S    
O46   C111  1.299903 A    
O8    C4    1.295266 A    
Cu11  Cu12  2.680212 S    
C170  C184  1.482177 S    
C173  C183  1.413377 A    
C75   C95   1.398583 A    
O15   Cu4   1.966343 S    
O82   C194  1.412833 S    
C2    C82   1.476758 S    
C61   C65   1.403990 A    
C141  C145  1.404423 A    
O35   Cu11  1.958336 S    
C196  H120  1.109168 S    
C180  C182  1.400743 A    
C85   N5    1.436397 S    
C31   C35   1.402400 A    
O44   Cu11  1.955801 S    
C138  C142  1.396301 A    
C49   H25   1.083223 S    
C60   C64   1.417679 A    
C192  H108  1.109203 S    
O21   C99   1.292736 A    
C177  C181  1.400744 A    
C190  H101  1.113314 S    
C129  H57   1.083364 S    
C33   C37   1.410777 A    
O14   C6    1.281472 A    
C10   C18   1.474193 S    
C36   C40   1.410779 A    
O80   C192  1.409567 S    
C127  H55   1.082029 S    
C173  C177  1.400021 A    
C149  C159  1.398614 A    
C131  H59   1.082966 S    
C32   C36   1.402401 A    
C63   C67   1.403984 A    
C87   C91   1.410707 A    
O30   C103  1.293936 A    
C91   O67   1.383798 S    
C126  C135  1.404117 A    
O10   C6    1.294799 A    
C154  N10   1.442229 S    
C78   C82   1.403574 A    
C33   C69   1.476011 S    
C52   H28   1.083222 S    
C166  C169  1.405364 A    
C89   O65   1.383802 S    
O41   Cu10  1.955801 S    
C186  H90   1.109130 S    
C35   C71   1.476024 S    
O40   Cu12  1.960898 S    
C75   C79   1.391597 A    
C140  C148  1.403811 A    
C131  C134  1.404118 A    
C132  H60   1.082967 S    
C168  H80   1.082831 S    
N6    O59   1.301107 A    
C151  C160  1.398615 A    
C126  C132  1.394361 A    
O43   C109  1.298305 A    
C44   C48   1.404664 A    
C65   C69   1.402279 A    
C41   H21   1.083154 S    
O26   C100  1.285183 A    
C113  C117  1.394466 A    
C188  H95   1.113292 S    
C67   C71   1.402280 A    
C8    C24   1.459519 S    
O21   Cu5   1.963918 S    
C158  C172  1.471849 S    
N12   O75   1.301552 A    
O39   C109  1.299111 A    
C40   C44   1.400464 A    
O65   C185  1.410309 S    
N11   O73   1.301550 A    
Cu7   Cu8   2.669686 S    
C174  O78   1.381817 S    
C25   C45   1.404404 A    
C180  H84   1.083506 S    
C77   C81   1.403543 A    
N9    O70   1.301059 A    
C200  H131  1.113300 S    
C197  H121  1.113595 S    
C50   H26   1.083229 S    
C53   C57   1.403012 A    
O88   C200  1.409495 S    
C52   C72   1.399508 A    
C55   C59   1.403015 A    
Cu8   O32   1.958435 S    
C156  N12   1.442229 S    
C141  H65   1.083122 S    
O34   C105  1.295731 A    
C143  H67   1.082886 S    
O67   C187  1.410311 S    
C161  C167  1.395447 A    
O4    C4    1.294224 A    
O28   C102  1.285172 A    
C162  C168  1.395447 A    
C58   C94   1.475411 S    
C21   O81   1.392431 S    
C6    C22   1.459485 S    
C41   C45   1.404669 A    
C11   C19   1.474211 S    
C194  H114  1.109169 S    
O41   C107  1.298319 A    
C12   C20   1.474210 S    
C105  C159  1.472114 S    
C47   C109  1.476417 S    
C199  H128  1.113296 S    
O12   Cu2   1.966568 S    
C178  H82   1.083506 S    
Cu9   Cu10  2.680212 S    
C84   C88   1.417941 A    
O19   C98   1.294856 A    
O1    C1    1.294230 A    
C191  H103  1.113608 S    
C78   H42   1.083312 S    
N7    O61   1.301092 A    
C19   C23   1.345828 D    
C42   H22   1.083162 S    
C128  C130  1.395950 A    
C117  H49   1.083002 S    
C195  H116  1.110772 S    
C152  C156  1.402011 A    
O29   C103  1.293936 A    
C17   C21   1.345827 D    
C18   H10   1.086949 S    
C155  C158  1.419150 A    
C152  C160  1.398616 A    
N8    O64   1.301215 A    
C26   C46   1.404401 A    
O23   Cu7   1.963918 S    
C126  H54   1.082966 S    
O42   Cu9   1.955801 S    
C88   N8    1.436400 S    
C112  C124  1.471178 S    
C11   C15   1.337521 D    
C54   C58   1.403018 A    
O32   C104  1.293936 A    
C169  C183  1.482173 S    
C120  H52   1.082068 S    
O77   C189  1.409570 S    
O47   C112  1.299108 A    
C119  C122  1.407938 A    
C77   H41   1.083300 S    
C150  C154  1.402015 A    
C138  C147  1.401472 A    
C125  C135  1.404118 A    
C80   H44   1.083293 S    
C25   C29   1.394792 A    
O6    C2    1.295301 A    
O4    Cu2   1.958483 S    
O79   C191  1.409567 S    
C68   C72   1.402281 A    
O78   C190  1.409569 S    
C125  H53   1.082966 S    
C76   C80   1.391601 A    
C175  C179  1.400021 A    
C42   C46   1.404669 A    
C104  C182  1.471420 S    
C176  C180  1.400023 A    
C117  C121  1.403770 A    
C189  H97   1.113610 S    
C39   C43   1.400464 A    
C3    C83   1.476670 S    
C129  C133  1.399862 A    
O33   Cu9   1.958336 S    
C29   H17   1.083338 S    
C1    C81   1.476682 S    
C187  H92   1.113291 S    
O2    Cu1   1.958483 S    
C31   H19   1.083339 S    
O10   Cu1   1.966568 S    
C161  H73   1.083168 S    
C49   C69   1.399508 A    
O20   Cu8   1.958397 S    
C115  H47   1.083234 S    
Cu5   Cu6   2.669686 S    
C161  C171  1.400469 A    
C177  H81   1.083508 S    
C163  C165  1.395443 A    
C164  H76   1.083166 S    
O37   Cu9   1.960898 S    
C28   C32   1.394793 A    
C37   C41   1.400469 A    
C34   C38   1.410790 A    
C9    H1    1.085969 S    
C127  C136  1.408711 A    
C193  H109  1.114062 S    
C115  C119  1.395962 A    
C81   C85   1.417941 A    
O13   C5    1.281470 A    
O45   C111  1.299906 A    
C26   H14   1.082849 S    
C143  C146  1.404741 A    
N1    O49   1.301259 A    
O15   C7    1.281476 A    
C191  H105  1.109205 S    
C80   C84   1.403538 A    
C73   C93   1.398573 A    
C190  H100  1.113608 S    
N5    O57   1.301095 A    
O7    C3    1.295266 A    
C79   C83   1.403539 A    
C76   C96   1.398579 A    
N4    O56   1.301435 A    
N2    O52   1.301436 A    
C86   N6    1.436375 S    
C39   O87   1.381784 S    
N11   O74   1.301057 A    
C29   C33   1.402395 A    
C65   H33   1.083295 S    
O86   C198  1.409500 S    
C194  H112  1.114083 S    
C26   C30   1.394778 A    
O16   C8    1.281474 A    
C164  C172  1.400469 A    
C193  H111  1.109165 S    
C165  H77   1.082827 S    
C120  C122  1.407943 A    
Cu10  O46   1.958598 S    
O11   C7    1.294819 A    
C165  C169  1.405366 A    
C196  H119  1.110771 S    
O1    Cu1   1.958475 S    
O9    Cu1   1.966562 S    
O28   Cu7   1.969471 S    
C192  H107  1.113314 S    
C114  H46   1.082870 S    
C198  H126  1.109216 S    
Cu5   O29   1.958439 S    
C50   C70   1.399514 A    
C53   H29   1.083526 S    
C111  C123  1.474221 S    
C13   H5    1.085378 S    
C142  H66   1.083120 S    
C134  C148  1.476773 S    
O11   Cu2   1.966562 S    
C167  H79   1.082826 S    
Cu12  O48   1.958598 S    
O25   C99   1.285180 A    
C187  H93   1.109121 S    
C178  C181  1.400747 A    
O33   C105  1.295729 A    
O42   C108  1.298313 A    
N7    O62   1.301215 A    
C75   H39   1.083406 S    
C7    C23   1.459520 S    
O6    Cu3   1.958081 S    
O27   C101  1.285175 A    
C127  C129  1.395950 A    
C186  H89   1.113294 S    
C62   C66   1.403979 A    
C167  C170  1.405366 A    
O34   Cu10  1.958333 S    
C45   C107  1.476435 S    
N6    O60   1.301217 A    
C185  H85   1.112044 S    
C185  H86   1.113289 S    
C86   C90   1.410671 A    
C73   H37   1.083405 S    
O25   Cu6   1.969474 S    
O17   Cu5   1.958393 S    
O2    C2    1.294232 A    
O43   Cu12  1.955801 S    
C116  H48   1.083235 S    
N10   O71   1.301549 A    
C19   H11   1.086938 S    
C188  H94   1.112041 S    
C130  H58   1.083363 S    
C20   H12   1.086938 S    
N12   O76   1.301056 A    
C115  C124  1.401991 A    
C116  C124  1.401988 A    
O14   Cu3   1.966343 S    
C152  H72   1.083423 S    
C64   N4    1.440476 S    
C57   C61   1.417684 A    
Cu1   Cu3   2.669186 S    
C185  H87   1.109118 S    
C18   C22   1.345821 D    
Cu2   Cu4   2.669186 S    
C4    C84   1.476670 S    
O20   C98   1.294856 A    
N9    O69   1.301547 A    
C200  H130  1.113597 S    
C34   C70   1.476013 S    
C197  H122  1.113297 S    
C139  C143  1.394478 A    
C36   C72   1.476026 S    
C11   H3    1.085968 S    
C54   H30   1.083529 S    
C12   H4    1.085968 S    
O66   C186  1.410297 S    
C13   C99   1.451879 S    
C87   N7    1.436400 S    
C14   C100  1.451878 S    
C121  C135  1.476773 S    
O87   C199  1.409500 S    
O12   C8    1.294822 A    
N4    O55   1.301258 A    
C150  H70   1.083420 S    
O40   C110  1.299111 A    
C59   C63   1.417682 A    
C66   C70   1.402288 A    
C97   C145  1.471275 S    
O24   Cu8   1.963916 S    
C68   H36   1.083292 S    
C197  H123  1.109214 S    
O36   C106  1.295729 A    
