data_mof_unit_28085.cif
_audit_creation_date              2012-12-10T18:52:57-0500
_audit_creation_method            fapswitch 2.2
_symmetry_space_group_name_H-M    P1
_symmetry_Int_Tables_number       1
_space_group_crystal_system       triclinic
_cell_length_a                    9.896925
_cell_length_b                    10.634957
_cell_length_c                    16.742428
_cell_angle_alpha                 91.079217
_cell_angle_beta                  85.82276
_cell_angle_gamma                 90.814323
_cell_volume                      1757.05825629

loop_
_atom_site_label
_atom_site_type_symbol
_atom_type_description
_atom_site_fract_x
_atom_site_fract_y
_atom_site_fract_z
_atom_type_partial_charge
C1    C     C_R   0.501022 0.739486 0.498112 0.850707
C2    C     C_R   0.498981 0.260500 0.501799 0.854988
C3    C     C_R   0.583310 0.937741 0.439167 -0.041025
C4    C     C_R   0.416436 0.062192 0.560533 -0.045404
C5    C     C_R   0.580889 0.067428 0.443392 -0.117578
C6    C     C_R   0.418967 0.932524 0.556363 -0.116445
C7    C     C_R   0.497987 0.127999 0.502714 -0.138539
C8    C     C_R   0.501952 0.871959 0.497091 -0.138450
C9    C     C_R   0.929418 0.403146 0.465672 -0.147364
C10   C     C_R   0.070581 0.596849 0.534339 -0.147221
C11   C     C_R   0.072591 0.402932 0.464618 0.050352
C12   C     C_R   0.927403 0.597055 0.535401 0.048128
C13   C     C_R   0.481745 0.497759 0.653100 0.905564
C14   C     C_R   0.518262 0.507213 0.347209 0.910651
C15   C     C_R   0.471274 0.491234 0.739865 -0.157582
C16   C     C_R   0.528755 0.545139 0.263954 -0.102411
C17   C     C_R   0.584142 0.455984 0.779445 -0.118656
C18   C     C_R   0.417169 0.601031 0.232639 -0.276750
C19   C     C_R   0.578559 0.455603 0.862793 -0.083059
C20   C     C_R   0.425518 0.642941 0.154302 -0.066084
C21   C     C_R   0.458309 0.495307 0.906115 -0.030035
C22   C     C_R   0.546460 0.622457 0.105790 0.069857
C23   C     C_R   0.342066 0.521702 0.866410 0.480269
C24   C     C_R   0.662698 0.579284 0.139684 0.384797
C25   C     C_R   0.349081 0.519522 0.783361 -0.227204
C26   C     C_R   0.653157 0.540371 0.218649 -0.224108
C27   C     C_2   0.456927 0.521922 0.991549 -0.190485
C28   C     C_2   0.541094 0.609190 0.019399 -0.087958
H1    H     H_    0.676538 0.428492 0.745234 0.211453
H2    H     H_    0.323358 0.613147 0.269465 0.175415
H3    H     H_    0.741888 0.503171 0.243738 0.195171
H4    H     H_    0.260425 0.544340 0.753022 0.200644
H5    H     H_    0.615662 0.657255 0.979533 0.202839
H6    H     H_    0.383966 0.472153 0.031579 0.199364
H7    H     H_    0.640930 0.122187 0.399358 0.184349
H8    H     H_    0.358937 0.877775 0.600411 0.185938
H9    H     H_    0.875919 0.326588 0.437651 0.143988
H10   H     H_    0.124080 0.673394 0.562376 0.145033
N1    N     N_R   0.142790 0.500030 0.500020 -0.091711
N2    N     N_R   0.857210 0.499970 0.499980 -0.091499
O1    O     O_R   0.385380 0.683250 0.500010 -0.627823
O2    O     O_R   0.614620 0.316750 0.499990 -0.622826
O3    O     O_R   0.614710 0.683220 0.500000 -0.608913
O4    O     O_R   0.385290 0.316780 0.500000 -0.606349
O5    O     O_R   0.371780 0.500040 0.615800 -0.631730
O6    O     O_R   0.628220 0.499960 0.384200 -0.638798
O7    O     O_R   0.601110 0.500010 0.615800 -0.557099
O8    O     O_R   0.398890 0.499990 0.384200 -0.555266
Zn1   Zn    Zn3+2 0.346870 0.500020 0.500000 0.992922
Zn2   Zn    Zn3+2 0.653130 0.499980 0.500000 0.993999
Cl1   Cl    Cl    0.188589 0.565982 0.918800 -0.457624
Cl2   Cl    Cl    0.818676 0.562135 0.082951 -0.549249
C29   C     C_2   0.304935 0.703688 0.124729 0.513889
H11   H     H_    0.208195 0.698765 0.159615 0.085624
O9    O     O_2   0.312713 0.762917 0.062759 -0.482195
C30   C     C_2   0.697274 0.412014 0.903738 0.511623
H12   H     H_    0.688143 0.394032 0.967434 0.110733
O10   O     O_2   0.806446 0.394270 0.866672 -0.496905
C31   C     C_2   0.665171 0.873476 0.372675 0.407889
H13   H     H_    0.655031 0.773052 0.362177 0.073044
O11   O     O_2   0.744634 0.932572 0.327960 -0.546598
C32   C     C_2   0.334217 0.126405 0.626884 0.418971
H14   H     H_    0.344885 0.226724 0.637722 0.072051
O12   O     O_2   0.253826 0.067389 0.671081 -0.535675
C33   C     C_2   0.140813 0.295154 0.423688 0.462277
H15   H     H_    0.102649 0.200604 0.435429 0.039728
O13   O     O_2   0.232416 0.310406 0.372024 -0.522270
C34   C     C_2   0.859166 0.704796 0.576370 0.473769
H16   H     H_    0.897242 0.799365 0.564602 0.037689
O14   O     O_2   0.767668 0.689497 0.628094 -0.514831

loop_
_geom_bond_atom_site_label_1
_geom_bond_atom_site_label_2
_ccdc_geom_bond_type
C19   C30   S    
C24   Cl2   S    
C32   O12   D    
C11   C33   S    
N1    Zn1   S    
O3    Zn2   S    
C12   N2    A    
C32   H14   S    
C18   H2    S    
C2    O2    A    
C1    C8    S    
C17   H1    S    
O6    Zn2   S    
C23   Cl1   S    
C2    C7    S    
C13   C15   S    
O5    Zn1   S    
C10   H10   S    
C25   H4    S    
C9    H9    S    
C21   C27   S    
C26   H3    S    
C14   O6    A    
C16   C18   A    
C22   C28   S    
C29   H11   S    
C13   O5    A    
C12   C34   S    
C9    C11   A    
C10   C12   A    
O2    Zn2   S    
C4    C7    A    
N2    Zn2   S    
C5    H7    S    
C22   C24   A    
O1    Zn1   S    
O8    Zn1   S    
C17   C19   A    
C30   O10   D    
C28   H5    S    
C3    C8    A    
O7    Zn2   S    
C18   C20   A    
C29   O9    D    
C27   H6    S    
C16   C26   A    
C11   N1    A    
C14   C16   S    
C31   O11   D    
C15   C25   A    
C20   C22   A    
C4    C32   S    
C31   H13   S    
C23   C25   A    
C30   H12   S    
C19   C21   A    
C4    C6    A    
C33   H15   S    
C34   H16   S    
C1    O1    A    
C27   C28   D    
C5    C7    A    
C34   O14   D    
C14   O8    A    
C10   N1    A    
C6    C8    A    
C3    C5    A    
C15   C17   A    
C13   O7    A    
C21   C23   A    
C1    O3    A    
C9    N2    A    
C2    O4    A    
C24   C26   A    
C6    H8    S    
C20   C29   S    
C33   O13   D    
O4    Zn1   S    
C3    C31   S    
