data_mof_unit_16790.cif
_audit_creation_date              2012-12-10T16:49:24-0500
_audit_creation_method            fapswitch 2.2
_symmetry_space_group_name_H-M    P1
_symmetry_Int_Tables_number       1
_space_group_crystal_system       triclinic
_cell_length_a                    7.752938
_cell_length_b                    8.578466
_cell_length_c                    12.877916
_cell_angle_alpha                 90.058179
_cell_angle_beta                  88.064272
_cell_angle_gamma                 93.619107
_cell_volume                      854.292109535

loop_
_atom_site_label
_atom_site_type_symbol
_atom_type_description
_atom_site_fract_x
_atom_site_fract_y
_atom_site_fract_z
_atom_type_partial_charge
C1    C     C_R   0.454628 0.205209 0.497284 0.970226
C2    C     C_R   0.711401 0.462046 0.140275 -0.206585
C3    C     C_R   0.589377 0.473563 0.868859 -0.274528
C4    C     C_R   0.410623 0.526437 0.131141 -0.274527
C5    C     C_R   0.578774 0.481719 0.975312 0.186630
C6    C     C_R   0.421226 0.518281 0.024688 0.186630
C7    C     C_2   0.430732 0.041744 0.495731 -0.380056
C8    C     C_2   0.569268 0.958256 0.504269 -0.380057
C9    C     C_R   0.545372 0.794791 0.502716 0.970226
C10   C     C_R   0.465858 0.501959 0.699816 0.882912
C11   C     C_R   0.534142 0.498041 0.300184 0.882912
C12   C     C_R   0.554292 0.496608 0.189018 -0.049678
C13   C     C_R   0.445708 0.503392 0.810982 -0.049678
C14   C     C_R   0.276392 0.545459 0.967037 -0.224367
C15   C     C_R   0.723608 0.454541 0.032963 -0.224367
C16   C     C_R   0.288599 0.537954 0.859725 -0.206585
H1    H     H_    0.823163 0.439060 0.184786 0.162553
H2    H     H_    0.001538 0.384408 0.578189 0.189894
H3    H     H_    0.176837 0.560940 0.815214 0.162553
H4    H     H_    0.299886 0.990621 0.487586 0.180241
H5    H     H_    0.700114 0.009378 0.512414 0.180241
H6    H     H_    0.289128 0.554810 0.168603 0.161673
H7    H     H_    0.710872 0.445190 0.831397 0.161673
H8    H     H_    0.155047 0.573254 0.004764 0.138368
H9    H     H_    0.844953 0.426746 0.995236 0.138368
H10   H     H_    0.998462 0.615592 0.421811 0.189894
N1    N     N_2   0.054030 0.541640 0.471970 -0.177107
N2    N     N_2   0.945970 0.458360 0.528030 -0.177108
O1    O     O_R   0.609680 0.261530 0.506880 -0.612239
O2    O     O_R   0.390320 0.738470 0.493120 -0.612239
O3    O     O_R   0.323330 0.288220 0.488910 -0.629415
O4    O     O_R   0.676670 0.711780 0.511090 -0.629415
O5    O     O_R   0.619510 0.488830 0.661140 -0.625202
O6    O     O_R   0.380490 0.511170 0.338860 -0.625202
O7    O     O_R   0.333160 0.515520 0.643180 -0.632834
O8    O     O_R   0.666840 0.484480 0.356820 -0.632834
Zn1   Zn    Zn3+2 0.691200 0.482180 0.511990 0.939517
Zn2   Zn    Zn3+2 0.308800 0.517820 0.488010 0.939517

loop_
_geom_bond_atom_site_label_1
_geom_bond_atom_site_label_2
_ccdc_geom_bond_type
C11   C12   S    
C10   O7    A    
C6    C14   A    
C4    H6    S    
C3    H7    S    
C3    C13   A    
O3    Zn2   S    
C2    C12   A    
C1    O1    A    
C8    H5    S    
C7    C8    D    
C1    C7    S    
O4    Zn1   S    
C2    H1    S    
C2    C15   A    
H10   N1    S    
N2    Zn1   S    
C16   H3    S    
C9    O2    A    
C11   O8    A    
C10   O5    A    
C5    C6    A    
C14   C16   A    
C5    C15   A    
C4    C12   A    
N1    Zn2   S    
O1    Zn1   S    
C1    O3    A    
O7    Zn2   S    
H2    N2    S    
O2    Zn2   S    
C15   H9    S    
C4    C6    A    
C7    H4    S    
C13   C16   A    
C14   H8    S    
N1    N2    D    
O8    Zn1   S    
C9    O4    A    
O6    Zn2   S    
C11   O6    A    
O5    Zn1   S    
C8    C9    S    
C3    C5    A    
C10   C13   S    
