data_mof_unit_22811.cif
_audit_creation_date              2012-10-26T17:10:33-0400
_audit_creation_method            fapswitch 2.2
_symmetry_space_group_name_H-M    P1
_symmetry_Int_Tables_number       1
_space_group_crystal_system       triclinic
_cell_length_a                    16.953714
_cell_length_b                    16.953835
_cell_length_c                    16.953801
_cell_angle_alpha                 66.741258
_cell_angle_beta                  66.741732
_cell_angle_gamma                 66.741537
_cell_volume                      3944.92531551

loop_
_atom_site_label
_atom_site_type_symbol
_atom_type_description
_atom_site_fract_x
_atom_site_fract_y
_atom_site_fract_z
_atom_type_partial_charge
C1    C     C_R   0.596006 0.017328 0.601839 -0.131430
C2    C     C_R   0.398148 0.982748 0.403963 -0.131819
C3    C     C_R   0.017289 0.601848 0.596019 -0.131498
C4    C     C_R   0.982690 0.403987 0.398159 -0.131470
C5    C     C_R   0.601849 0.596034 0.017260 -0.131717
C6    C     C_R   0.403991 0.398157 0.982681 -0.131433
C7    C     C_R   0.029174 0.829052 0.564722 0.834526
C8    C     C_R   0.981732 0.169171 0.431047 0.862784
C9    C     C_R   0.829052 0.564722 0.029172 0.834584
C10   C     C_R   0.169171 0.431047 0.981730 0.862815
C11   C     C_R   0.564721 0.029177 0.829053 0.834366
C12   C     C_R   0.431046 0.981736 0.169169 0.862877
C13   C     C_R   0.435279 0.170947 0.970823 0.834369
C14   C     C_R   0.568954 0.830831 0.018263 0.862861
C15   C     C_R   0.970824 0.435278 0.170948 0.834485
C16   C     C_R   0.018268 0.568953 0.830829 0.862806
C17   C     C_R   0.170948 0.970826 0.435278 0.834665
C18   C     C_R   0.830828 0.018269 0.568953 0.862785
C19   C     C_R   0.545126 0.007956 0.551396 0.159458
C20   C     C_R   0.448575 0.992164 0.454831 0.159145
C21   C     C_R   0.007889 0.551416 0.545146 0.159373
C22   C     C_R   0.992082 0.454862 0.448592 0.159389
C23   C     C_R   0.551419 0.545163 0.007856 0.159218
C24   C     C_R   0.454868 0.448597 0.992063 0.159431
C25   C     C_R   0.583321 0.007739 0.460953 -0.170360
C26   C     C_R   0.407998 0.000307 0.542620 -0.186272
C27   C     C_R   0.007653 0.460978 0.583344 -0.170361
C28   C     C_R   0.000233 0.542650 0.408017 -0.185951
C29   C     C_R   0.460978 0.583354 0.007626 -0.170338
C30   C     C_R   0.542660 0.408029 0.000205 -0.185884
C31   C     C_R   0.539009 0.992415 0.416632 -0.170339
C32   C     C_R   0.457340 0.999799 0.591969 -0.185881
C33   C     C_R   0.416665 0.539034 0.992301 -0.170373
C34   C     C_R   0.592000 0.457378 0.999698 -0.186183
C35   C     C_R   0.992324 0.416663 0.539029 -0.170367
C36   C     C_R   0.999732 0.591993 0.457360 -0.186001
C37   C     C_R   0.551607 0.046905 0.680288 0.284357
C38   C     C_R   0.426491 0.004672 0.308811 0.284511
C39   C     C_R   0.046875 0.680293 0.551615 0.284325
C40   C     C_R   0.004628 0.308832 0.426503 0.284390
C41   C     C_R   0.680297 0.551625 0.046847 0.284300
C42   C     C_R   0.308836 0.426500 0.004625 0.284377
C43   C     C_R   0.319703 0.953156 0.448374 0.284285
C44   C     C_R   0.691161 0.995384 0.573494 0.284355
C45   C     C_R   0.448391 0.319712 0.953097 0.284343
C46   C     C_R   0.573503 0.691187 0.995335 0.284457
C47   C     C_R   0.953105 0.448389 0.319711 0.284306
C48   C     C_R   0.995359 0.573502 0.691173 0.284390
C49   C     C_R   0.602137 0.042006 0.731954 -0.273649
C50   C     C_R   0.389666 0.978893 0.264152 -0.279627
C51   C     C_R   0.041997 0.731954 0.602138 -0.273527
C52   C     C_R   0.978873 0.264159 0.389670 -0.279594
C53   C     C_R   0.731956 0.602142 0.041979 -0.273275
C54   C     C_R   0.264161 0.389669 0.978870 -0.279581
C55   C     C_R   0.268045 0.958019 0.397859 -0.273147
C56   C     C_R   0.735839 0.021128 0.610331 -0.279577
C57   C     C_R   0.397864 0.268047 0.957992 -0.273630
C58   C     C_R   0.610335 0.735849 0.021104 -0.279611
C59   C     C_R   0.957997 0.397863 0.268047 -0.273556
C60   C     C_R   0.021123 0.610331 0.735842 -0.279600
C61   C     C_R   0.691082 0.041802 0.691495 0.452057
C62   C     C_R   0.308507 0.958206 0.308918 0.451905
C63   C     C_R   0.041804 0.691491 0.691080 0.452048
C64   C     C_R   0.958196 0.308919 0.308507 0.452055
C65   C     C_R   0.691495 0.691084 0.041787 0.451940
C66   C     C_R   0.308919 0.308507 0.958191 0.452053
Cu1   Cu    Cu3+1 0.995180 0.995180 0.424630 1.077608
Cu2   Cu    Cu3+1 0.004820 0.004820 0.575370 1.077749
Cu3   Cu    Cu3+1 0.995180 0.424630 0.995180 1.077701
Cu4   Cu    Cu3+1 0.004820 0.575370 0.004820 1.077604
Cu5   Cu    Cu3+1 0.424630 0.995180 0.995180 1.077557
Cu6   Cu    Cu3+1 0.575370 0.004820 0.004820 1.077557
H1    H     H_    0.424425 0.992951 0.662112 0.205399
H2    H     H_    0.577180 0.981345 0.351964 0.201862
H3    H     H_    0.992894 0.662135 0.424444 0.205424
H4    H     H_    0.981249 0.351996 0.577197 0.201846
H5    H     H_    0.662142 0.424467 0.992866 0.205430
H6    H     H_    0.351995 0.577195 0.981230 0.201843
H7    H     H_    0.337859 0.007125 0.575539 0.205442
H8    H     H_    0.647983 0.018827 0.422788 0.201840
H9    H     H_    0.575581 0.337888 0.007044 0.205416
H10   H     H_    0.422804 0.648014 0.018712 0.201860
H11   H     H_    0.007068 0.575569 0.337876 0.205429
H12   H     H_    0.018733 0.422810 0.648009 0.201846
O1    O     O_R   0.124540 0.978640 0.385460 -0.526420
O2    O     O_R   0.875460 0.021360 0.614540 -0.521365
O3    O     O_R   0.978640 0.385460 0.124540 -0.526303
O4    O     O_R   0.021360 0.614540 0.875460 -0.521354
O5    O     O_R   0.385460 0.124540 0.978640 -0.526353
O6    O     O_R   0.614540 0.875460 0.021360 -0.521351
O7    O     O_R   0.614540 0.021360 0.875460 -0.526346
O8    O     O_R   0.385460 0.978640 0.124540 -0.521350
O9    O     O_R   0.875460 0.614540 0.021360 -0.526399
O10   O     O_R   0.124540 0.385460 0.978640 -0.521365
O11   O     O_R   0.021360 0.875460 0.614540 -0.526295
O12   O     O_R   0.978640 0.124540 0.385460 -0.521358
O13   O     O_R   0.013780 0.867370 0.487190 -0.561830
O14   O     O_R   0.986220 0.132630 0.512810 -0.554427
O15   O     O_R   0.867370 0.487190 0.013780 -0.561744
O16   O     O_R   0.132630 0.512810 0.986220 -0.554406
O17   O     O_R   0.487190 0.013780 0.867370 -0.561821
O18   O     O_R   0.512810 0.986220 0.132630 -0.554411
O19   O     O_R   0.512810 0.132630 0.986220 -0.561826
O20   O     O_R   0.487190 0.867370 0.013780 -0.554399
O21   O     O_R   0.986220 0.512810 0.132630 -0.561842
O22   O     O_R   0.013780 0.487190 0.867370 -0.554423
O23   O     O_R   0.132630 0.986220 0.512810 -0.561716
O24   O     O_R   0.867370 0.013780 0.487190 -0.554405
O25   O     O_3   0.459561 0.079362 0.708303 -0.567869
C67   C     C_3   0.435619 0.173381 0.673107 0.072472
H13   H     H_    0.459892 0.193417 0.598538 0.137321
H14   H     H_    0.463330 0.204024 0.699823 0.133610
C68   C     C_3   0.334162 0.209729 0.700587 -0.729247
H15   H     H_    0.307897 0.191838 0.774737 0.283348
H16   H     H_    0.314354 0.283754 0.673296 0.192329
H17   H     H_    0.304551 0.181048 0.674061 0.234604
O26   O     O_3   0.486338 0.055062 0.258553 -0.557953
C69   C     C_3   0.437313 0.146512 0.241019 0.080972
H18   H     H_    0.399781 0.165765 0.304496 0.131927
H19   H     H_    0.389464 0.161768 0.203428 0.119333
C70   C     C_3   0.501681 0.203219 0.184068 -0.768783
H20   H     H_    0.539140 0.186582 0.119536 0.275473
H21   H     H_    0.463667 0.275237 0.170181 0.185967
H22   H     H_    0.549850 0.190575 0.219938 0.242106
O27   O     O_3   0.079327 0.708311 0.459569 -0.567841
C71   C     C_3   0.173331 0.672973 0.435613 0.072406
H23   H     H_    0.193254 0.598403 0.459864 0.137367
H24   H     H_    0.204080 0.699568 0.463334 0.133758
C72   C     C_3   0.209668 0.700467 0.334156 -0.729367
H25   H     H_    0.191889 0.774616 0.307911 0.283351
H26   H     H_    0.283681 0.673067 0.314338 0.192307
H27   H     H_    0.180880 0.674061 0.304537 0.234630
O28   O     O_3   0.055024 0.258586 0.486345 -0.557953
C73   C     C_3   0.146473 0.241068 0.437314 0.080937
H28   H     H_    0.165713 0.304552 0.399783 0.131909
H29   H     H_    0.161734 0.203478 0.389462 0.119323
C74   C     C_3   0.203192 0.184124 0.501672 -0.768725
H30   H     H_    0.186572 0.119582 0.539126 0.275451
H31   H     H_    0.275208 0.170256 0.463649 0.186000
H32   H     H_    0.190542 0.219989 0.549847 0.242106
O29   O     O_3   0.708311 0.459582 0.079323 -0.567742
C75   C     C_3   0.672590 0.435627 0.173284 0.072166
H33   H     H_    0.598018 0.459782 0.192895 0.137560
H34   H     H_    0.698812 0.463447 0.204293 0.133673
C76   C     C_3   0.700174 0.334176 0.209649 -0.729667
H35   H     H_    0.774322 0.308030 0.192214 0.283365
H36   H     H_    0.672440 0.314356 0.283626 0.192226
H37   H     H_    0.674166 0.304460 0.180573 0.234778
O30   O     O_3   0.258592 0.486336 0.055027 -0.557954
C77   C     C_3   0.241068 0.437296 0.146473 0.080936
H38   H     H_    0.304550 0.399780 0.165721 0.131908
H39   H     H_    0.203500 0.389429 0.161719 0.119323
C78   C     C_3   0.184092 0.501642 0.203198 -0.768742
H40   H     H_    0.119557 0.539089 0.186561 0.275477
H41   H     H_    0.170210 0.463611 0.275211 0.185956
H42   H     H_    0.219939 0.549823 0.190574 0.242096
O31   O     O_3   0.291685 0.920676 0.540416 -0.567701
C79   C     C_3   0.327584 0.826736 0.564378 0.072047
H43   H     H_    0.402157 0.807270 0.540272 0.137642
H44   H     H_    0.301538 0.795602 0.536516 0.133701
C80   C     C_3   0.299955 0.790367 0.665828 -0.729803
H45   H     H_    0.225808 0.807643 0.691925 0.283378
H46   H     H_    0.327844 0.716409 0.685654 0.192190
H47   H     H_    0.325774 0.819583 0.695585 0.234841
O32   O     O_3   0.741401 0.945011 0.513631 -0.557956
C81   C     C_3   0.758934 0.853555 0.562637 0.080965
H48   H     H_    0.695454 0.834305 0.600178 0.131882
H49   H     H_    0.796543 0.838279 0.610477 0.119341
C82   C     C_3   0.815862 0.796867 0.498250 -0.768726
H50   H     H_    0.880393 0.813508 0.460777 0.275454
H51   H     H_    0.829756 0.724845 0.536250 0.185980
H52   H     H_    0.779971 0.809527 0.450093 0.242084
O33   O     O_3   0.540437 0.291697 0.920642 -0.567877
C83   C     C_3   0.564382 0.326902 0.826623 0.072471
H53   H     H_    0.540104 0.401470 0.806593 0.137318
H54   H     H_    0.536679 0.300185 0.795972 0.133618
C84   C     C_3   0.665840 0.299430 0.790282 -0.729271
H55   H     H_    0.692110 0.225280 0.808165 0.283341
H56   H     H_    0.685650 0.326727 0.716257 0.192329
H57   H     H_    0.695442 0.325954 0.818973 0.234605
O34   O     O_3   0.513633 0.741440 0.944970 -0.557952
C85   C     C_3   0.562627 0.758979 0.853512 0.081024
H58   H     H_    0.600178 0.695503 0.834259 0.131896
H59   H     H_    0.610456 0.796603 0.838227 0.119351
C86   C     C_3   0.498226 0.815887 0.796833 -0.768805
H60   H     H_    0.460761 0.880428 0.813454 0.275433
H61   H     H_    0.536213 0.829762 0.724807 0.185978
H62   H     H_    0.450063 0.779991 0.809525 0.242119
O35   O     O_3   0.920648 0.540434 0.291695 -0.567859
C87   C     C_3   0.826638 0.564382 0.326977 0.072441
H63   H     H_    0.806671 0.540121 0.401546 0.137344
H64   H     H_    0.795932 0.536663 0.300333 0.133714
C88   C     C_3   0.790293 0.665839 0.299489 -0.729340
H65   H     H_    0.808112 0.692092 0.225339 0.283355
H66   H     H_    0.716274 0.685650 0.326848 0.192303
H67   H     H_    0.819038 0.695456 0.325941 0.234621
O36   O     O_3   0.944963 0.513660 0.741422 -0.557949
C89   C     C_3   0.853516 0.562693 0.758942 0.080931
H68   H     H_    0.834272 0.600226 0.695459 0.131913
H69   H     H_    0.838258 0.610542 0.796534 0.119331
C90   C     C_3   0.796797 0.498336 0.815886 -0.768738
H70   H     H_    0.813429 0.460872 0.880422 0.275463
H71   H     H_    0.724782 0.536360 0.829766 0.185992
H72   H     H_    0.809435 0.450170 0.780015 0.242101
F1    F     F_    0.734587 0.058366 0.733056 -0.622914
F2    F     F_    0.266956 0.941612 0.265427 -0.622906
F3    F     F_    0.058383 0.733047 0.734578 -0.622862
F4    F     F_    0.941627 0.265418 0.266947 -0.622873
F5    F     F_    0.733047 0.734576 0.058378 -0.622913
F6    F     F_    0.265417 0.266949 0.941621 -0.622924

loop_
_geom_bond_atom_site_label_1
_geom_bond_atom_site_label_2
_ccdc_geom_bond_type
C56   C61   A    
C25   C31   A    
C39   C51   A    
Cu5   O20   S    
C26   C32   A    
C87   H63   S    
C39   O27   S    
C6    C45   A    
C25   H8    S    
Cu2   O2    S    
C82   H50   S    
C8    O12   A    
C57   C66   A    
Cu4   O4    S    
C76   H37   S    
C73   C74   S    
C76   H35   S    
C21   C36   A    
O34   C85   S    
C41   O29   S    
C22   C35   A    
C64   F4    S    
C45   C57   A    
C59   C64   A    
O32   C81   S    
C20   C26   A    
C60   C63   A    
C17   O1    A    
C23   C29   A    
C46   O34   S    
C27   H12   S    
C72   H25   S    
Cu3   Cu4   S    
C17   O23   A    
C34   H5    S    
C33   H6    S    
C86   H61   S    
C13   C57   S    
C10   O10   A    
C55   C62   A    
C29   C33   A    
C3    C48   A    
C4    C22   S    
Cu2   O14   S    
C16   C60   S    
C42   O30   S    
C8    O14   A    
C85   H58   S    
C14   O6    A    
C70   H22   S    
C1    C44   A    
C87   C88   S    
C80   H46   S    
C83   H53   S    
C38   O26   S    
C65   F5    S    
C79   H44   S    
O31   C79   S    
Cu5   O8    S    
C4    C40   A    
C43   O31   S    
C84   H56   S    
C77   C78   S    
C5    C23   S    
C87   H64   S    
C89   H68   S    
Cu2   O23   S    
C78   H41   S    
C53   C65   A    
C8    C52   S    
C37   O25   S    
Cu3   O3    S    
C16   O22   A    
C68   H17   S    
C23   C34   A    
C18   O24   A    
O27   C71   S    
Cu5   O17   S    
C74   H30   S    
C3    C39   A    
C9    O15   A    
C63   F3    S    
C69   H18   S    
C28   H11   S    
C81   H49   S    
C90   H71   S    
C75   C76   S    
O35   C87   S    
C10   C54   S    
C19   C32   A    
C76   H36   S    
Cu4   O16   S    
C48   C60   A    
C69   H19   S    
C14   C58   S    
C74   H32   S    
C35   H4    S    
Cu1   O1    S    
Cu2   O11   S    
C49   C61   A    
C30   C34   A    
C2    C20   S    
Cu1   Cu2   S    
Cu4   O9    S    
C51   C63   A    
Cu3   O10   S    
C52   C64   A    
C32   H1    S    
Cu6   O7    S    
C31   H2    S    
C73   H29   S    
C71   C72   S    
C27   C35   A    
O33   C83   S    
C1    C19   S    
C67   H13   S    
C68   H16   S    
C69   C70   S    
C79   H43   S    
C47   O35   S    
C12   O18   A    
C11   C49   S    
C36   H3    S    
C45   O33   S    
C13   O19   A    
O28   C73   S    
C37   C49   A    
C44   C56   A    
C58   C65   A    
C14   O20   A    
Cu5   O5    S    
C2    C43   A    
C84   H57   S    
C6    C24   S    
C89   C90   S    
C88   H66   S    
C11   O17   A    
C18   O2    A    
C78   H42   S    
C10   O16   A    
C74   H31   S    
C83   C84   S    
C41   C53   A    
C70   H20   S    
C67   C68   S    
C54   C66   A    
Cu3   O15   S    
C43   C55   A    
C84   H55   S    
Cu1   O12   S    
C50   C62   A    
C90   H72   S    
C75   H34   S    
C3    C21   S    
C24   C30   A    
C66   F6    S    
Cu1   O24   S    
C9    O9    A    
C80   H45   S    
C80   H47   S    
C15   O3    A    
C68   H15   S    
C82   H51   S    
C40   O28   S    
C5    C41   A    
C71   H24   S    
C7    O13   A    
C85   H59   S    
C13   O5    A    
C77   H38   S    
C15   C59   S    
C12   O8    A    
C26   H7    S    
C86   H62   S    
Cu4   O21   S    
C12   C50   S    
Cu3   O22   S    
C73   H28   S    
C38   C50   A    
Cu6   O19   S    
C18   C56   S    
C7    O11   A    
C5    C46   A    
C85   C86   S    
O26   C69   S    
C24   C33   A    
C90   H70   S    
C48   O36   S    
C2    C38   A    
C72   H27   S    
C30   H9    S    
C89   H69   S    
C7    C51   S    
Cu5   Cu6   S    
C40   C52   A    
O30   C77   S    
C42   C54   A    
C88   H67   S    
C15   O21   A    
C86   H60   S    
C81   H48   S    
Cu6   O18   S    
C71   H23   S    
C17   C55   S    
C82   H52   S    
C83   H54   S    
C77   H39   S    
C44   O32   S    
C21   C27   A    
O36   C89   S    
C19   C25   A    
C67   H14   S    
C70   H21   S    
Cu1   O13   S    
C47   C59   A    
C11   O7    A    
C29   H10   S    
C9    C53   S    
C28   C36   A    
C81   C82   S    
C79   C80   S    
C88   H65   S    
C6    C42   A    
O25   C67   S    
C16   O4    A    
C75   H33   S    
C4    C47   A    
C22   C28   A    
Cu6   O6    S    
C78   H40   S    
O29   C75   S    
C62   F2    S    
C46   C58   A    
C61   F1    S    
C1    C37   A    
C72   H26   S    
C20   C31   A    
