data_mof_unit_51905.cif
_audit_creation_date              2012-12-10T17:07:14-0500
_audit_creation_method            fapswitch 2.2
_symmetry_space_group_name_H-M    P1
_symmetry_Int_Tables_number       1
_space_group_crystal_system       triclinic
_cell_length_a                    10.057209
_cell_length_b                    10.738637
_cell_length_c                    13.596505
_cell_angle_alpha                 90.417312
_cell_angle_beta                  81.786054
_cell_angle_gamma                 88.167441
_cell_volume                      1452.52075917

loop_
_atom_site_label
_atom_site_type_symbol
_atom_type_description
_atom_site_fract_x
_atom_site_fract_y
_atom_site_fract_z
_atom_type_partial_charge
C1    C     C_R   0.496670 0.738081 0.504691 0.778684
C2    C     C_R   0.502700 0.262956 0.497423 0.908987
C3    C     C_R   0.525300 0.499296 0.314113 0.900858
C4    C     C_1   0.546073 0.493659 0.209781 -0.177549
C5    C     C_2   0.556328 0.482366 0.017170 0.380554
C6    C     C_2   0.438349 0.501228 0.983971 0.380339
C7    C     C_1   0.440507 0.500092 0.878688 -0.084925
C8    C     C_1   0.556976 0.488012 0.121675 -0.043047
C9    C     C_3   0.206730 0.491068 0.020307 0.107173
C10   C     C_3   0.092728 0.505048 0.106554 -0.815135
C11   C     C_3   0.771328 0.526208 0.951986 0.092195
C12   C     C_1   0.453328 0.499860 0.790392 -0.182346
C13   C     C_3   0.895886 0.476080 0.885105 -0.796325
C14   C     C_3   0.262804 0.918130 0.508969 0.104020
C15   C     C_3   0.160565 0.025481 0.533197 -0.836637
C16   C     C_3   0.106221 0.595149 0.649174 0.233565
C17   C     C_3   0.987188 0.686701 0.675044 -1.006378
C18   C     C_3   0.976787 0.245101 0.347563 0.061038
C19   C     C_3   0.900866 0.136564 0.313116 -0.805930
C20   C     C_2   0.602558 0.065264 0.526816 -0.124978
C21   C     C_2   0.511051 0.131827 0.486370 -0.251418
C22   C     C_2   0.603478 0.931456 0.517709 -0.266450
C23   C     C_2   0.487701 0.871063 0.523645 0.326809
C24   C     C_2   0.088615 0.454313 0.428250 -0.127663
C25   C     C_2   0.937635 0.430442 0.439317 0.529836
C26   C     C_R   0.474640 0.499949 0.685935 0.906022
H1    H     H_    0.887340 0.578851 0.525604 0.176895
H2    H     H_    0.798799 0.542737 0.027360 0.141112
H3    H     H_    0.738667 0.616225 0.921250 0.141029
H4    H     H_    0.871043 0.454279 0.810003 0.280985
H5    H     H_    0.974397 0.546962 0.878576 0.191849
H6    H     H_    0.935373 0.389898 0.916959 0.250121
H7    H     H_    0.208068 0.831809 0.527804 0.172569
H8    H     H_    0.299978 0.918439 0.427657 0.114505
H9    H     H_    0.207020 0.115713 0.512698 0.262374
H10   H     H_    0.074905 0.013166 0.491161 0.199144
H11   H     H_    0.121815 0.027097 0.613916 0.271884
H12   H     H_    0.678834 0.108601 0.563445 0.171367
H13   H     H_    0.150302 0.430801 0.358236 0.100567
H14   H     H_    0.191920 0.648915 0.614868 0.183331
H15   H     H_    0.132014 0.555956 0.719632 0.156036
H16   H     H_    0.894624 0.636644 0.702653 0.282106
H17   H     H_    0.008330 0.752518 0.733822 0.238326
H18   H     H_    0.970800 0.741614 0.608686 0.242782
H19   H     H_    0.032003 0.211297 0.408105 0.141608
H20   H     H_    0.049027 0.275369 0.283301 0.137364
H21   H     H_    0.844465 0.166578 0.252369 0.261698
H22   H     H_    0.972816 0.059333 0.285311 0.201178
H23   H     H_    0.441424 0.089630 0.443346 0.152402
H24   H     H_    0.829193 0.102281 0.375968 0.254179
H25   H     H_    0.701253 0.884210 0.500149 0.143600
H26   H     H_    0.220073 0.390139 0.000079 0.139575
H27   H     H_    0.178595 0.544491 0.956197 0.147400
H28   H     H_    0.069193 0.605256 0.123834 0.251958
H29   H     H_    0.001673 0.460747 0.087121 0.211846
H30   H     H_    0.122103 0.458872 0.173365 0.250818
N1    N     N_2   0.147970 0.498670 0.498970 0.054990
N2    N     N_2   0.852310 0.498640 0.498940 -0.190445
O1    O     O_R   0.386960 0.680940 0.500020 -0.654545
O2    O     O_3   0.669244 0.438861 0.954035 -0.613789
O3    O     O_3   0.367459 0.930032 0.567662 -0.592449
O4    O     O_3   0.072479 0.495708 0.589735 -0.565505
O5    O     O_3   0.884336 0.343529 0.380438 -0.581528
O6    O     O_R   0.613100 0.680900 0.499980 -0.640036
O7    O     O_R   0.370650 0.500000 0.640370 -0.635059
O8    O     O_R   0.596800 0.499960 0.640330 -0.592636
O9    O     O_R   0.386900 0.319100 0.500020 -0.610259
O10   O     O_R   0.613040 0.319060 0.499980 -0.569905
O11   O     O_R   0.403200 0.500040 0.359670 -0.618958
O12   O     O_R   0.629350 0.500000 0.359630 -0.574960
O13   O     O_3   0.324468 0.538229 0.049941 -0.627611
Zn1   Zn    Zn3+2 0.349000 0.500030 0.500020 0.957328
Zn2   Zn    Zn3+2 0.651000 0.499970 0.499980 0.993460

loop_
_geom_bond_atom_site_label_1
_geom_bond_atom_site_label_2
_ccdc_geom_bond_type
C14   H8    S    
O11   Zn1   S    
O6    Zn2   S    
C17   H17   S    
C6    C7    S    
C5    C8    S    
O7    Zn1   S    
C20   H12   S    
C9    C10   S    
C15   H10   S    
C13   H6    S    
O1    Zn1   S    
C4    C8    T    
C16   H15   S    
C3    O12   A    
O12   Zn2   S    
C21   H23   S    
O10   Zn2   S    
C17   H18   S    
N1    O4    S    
C24   C25   S    
C10   H29   S    
O8    Zn2   S    
C19   H24   S    
C5    C6    D    
C9    H26   S    
C16   O4    S    
C11   H2    S    
C14   H7    S    
C18   H20   S    
C15   H9    S    
C3    O11   A    
C16   H14   S    
C1    C23   S    
C18   O5    S    
C2    O10   A    
C1    O1    A    
N1    Zn1   S    
C6    O13   S    
C10   H28   S    
C19   H21   S    
C7    C12   T    
C22   H25   S    
C11   C13   S    
C9    H27   S    
C25   N2    D    
C11   O2    S    
C26   O8    A    
C18   H19   S    
C9    O13   S    
C13   H4    S    
C23   O3    S    
C24   H13   S    
C10   H30   S    
C20   C21   D    
C11   H3    S    
C18   C19   S    
C25   O5    S    
C12   C26   S    
C17   H16   S    
C16   C17   S    
O9    Zn1   S    
C14   O3    S    
C19   H22   S    
C5    O2    S    
C2    C21   S    
C14   C15   S    
C26   O7    A    
C1    O6    A    
C13   H5    S    
C22   C23   D    
C15   H11   S    
C3    C4    S    
N2    Zn2   S    
C20   C22   S    
C24   N1    D    
C2    O9    A    
H1    N2    S    
