data_mof_unit_52522.cif
_audit_creation_date              2012-12-10T17:28:34-0500
_audit_creation_method            fapswitch 2.2
_symmetry_space_group_name_H-M    P1
_symmetry_Int_Tables_number       1
_space_group_crystal_system       triclinic
_cell_length_a                    10.567683
_cell_length_b                    12.005023
_cell_length_c                    12.848136
_cell_angle_alpha                 92.977725
_cell_angle_beta                  90.343603
_cell_angle_gamma                 86.668983
_cell_volume                      1625.02417005

loop_
_atom_site_label
_atom_site_type_symbol
_atom_type_description
_atom_site_fract_x
_atom_site_fract_y
_atom_site_fract_z
_atom_type_partial_charge
C1    C     C_R   0.495901 0.521640 0.700275 0.891111
C2    C     C_R   0.452533 0.552796 0.131690 -0.266825
C3    C     C_R   0.525164 0.451199 0.974920 0.188543
C4    C     C_R   0.463811 0.547058 0.024937 0.184774
C5    C     C_R   0.432251 0.949038 0.373621 -0.006429
C6    C     C_R   0.561356 0.051464 0.628036 0.012188
C7    C     C_R   0.433366 0.833920 0.389712 -0.034900
C8    C     C_R   0.563374 0.166087 0.611224 0.001506
C9    C     C_R   0.516593 0.861932 0.559733 -0.060495
C10   C     C_R   0.479774 0.138781 0.441005 -0.037393
C11   C     C_R   0.518729 0.978267 0.547873 0.038071
C12   C     C_R   0.500882 0.478171 0.299702 0.916044
C13   C     C_R   0.476928 0.022335 0.452982 0.042360
C14   C     C_R   0.737177 0.503035 0.523079 0.907521
C15   C     C_R   0.261910 0.501824 0.520549 0.900148
C16   C     C_R   0.881817 0.305791 0.606791 -0.113275
C17   C     C_R   0.119054 0.710423 0.600421 -0.187208
C18   C     C_R   0.952106 0.205285 0.612711 0.106119
C19   C     C_R   0.047205 0.810426 0.618012 0.103940
C20   C     C_R   0.083380 0.205332 0.615445 -0.217074
C21   C     C_R   0.917034 0.808008 0.630535 -0.151519
C22   C     C_R   0.141549 0.306420 0.616160 0.189485
C23   C     C_R   0.502643 0.464747 0.188547 -0.057614
C24   C     C_R   0.860257 0.706033 0.626400 0.144160
C25   C     C_R   0.073259 0.405004 0.585696 0.035443
C26   C     C_R   0.927266 0.607798 0.586668 0.048658
C27   C     C_R   0.939729 0.405121 0.583853 0.023914
C28   C     C_R   0.060613 0.608146 0.580154 0.047818
C29   C     C_R   0.131498 0.504954 0.562674 -0.200716
C30   C     C_R   0.868328 0.505951 0.565559 -0.203620
C31   C     C_R   0.488914 0.534112 0.811416 -0.000373
C32   C     C_R   0.416073 0.636080 0.967591 -0.196704
C33   C     C_R   0.571392 0.361481 0.031895 -0.196435
C34   C     C_R   0.428145 0.629364 0.860231 -0.162690
C35   C     C_R   0.559708 0.368105 0.139184 -0.195167
C36   C     C_R   0.539060 0.446388 0.868550 -0.226733
H1    H     H_    0.863891 0.882391 0.660351 0.163089
H2    H     H_    0.617584 0.287445 0.993775 0.141357
H3    H     H_    0.445478 0.175103 0.370108 0.163273
H4    H     H_    0.547696 0.826509 0.631453 0.188920
H5    H     H_    0.593894 0.222281 0.673546 0.133641
H6    H     H_    0.400492 0.777561 0.328374 0.137839
H7    H     H_    0.441583 0.950068 0.216835 0.190546
H8    H     H_    0.293586 0.967867 0.266270 0.188992
H9    H     H_    0.540863 0.051862 0.784092 0.199556
H10   H     H_    0.691962 0.032587 0.742246 0.196098
H11   H     H_    0.920683 0.073193 0.697317 0.199560
H12   H     H_    0.137738 0.130305 0.635383 0.174043
H13   H     H_    0.914334 0.048377 0.566048 0.212180
H14   H     H_    0.162272 0.925415 0.570241 0.189525
H15   H     H_    0.170300 0.904148 0.699092 0.191414
H16   H     H_    0.783265 0.304745 0.626999 0.167614
H17   H     H_    0.219761 0.715037 0.611694 0.173736
H18   H     H_    0.406406 0.626517 0.170626 0.144629
H19   H     H_    0.587387 0.373470 0.830014 0.147069
H20   H     H_    0.598511 0.299727 0.183573 0.163185
H21   H     H_    0.388765 0.697185 0.815405 0.155776
H22   H     H_    0.368960 0.709785 0.005504 0.138597
I1    I     I_    0.279776 0.311984 0.734266 -0.409681
I2    I     I_    0.734470 0.696461 0.751089 -0.425189
N1    N     N_R   0.523130 0.207800 0.519340 -0.113466
N2    N     N_R   0.476870 0.792200 0.480660 -0.117060
N3    N     N_3   0.387084 0.990377 0.276783 -0.476239
N4    N     N_3   0.599167 0.010720 0.727043 -0.464863
N5    N     N_3   0.888546 0.105650 0.627342 -0.483566
N6    N     N_3   0.108110 0.912893 0.636040 -0.493643
O1    O     O_R   0.506170 0.421700 0.658830 -0.629470
O2    O     O_R   0.493830 0.578300 0.341170 -0.621745
O3    O     O_R   0.491330 0.609310 0.646410 -0.634966
O4    O     O_R   0.508670 0.390690 0.353590 -0.622636
O5    O     O_R   0.690650 0.406190 0.506220 -0.626395
O6    O     O_R   0.309350 0.593810 0.493780 -0.631584
O7    O     O_R   0.675800 0.593810 0.493800 -0.587549
O8    O     O_R   0.324200 0.406190 0.506200 -0.592379
Zn1   Zn    Zn3+2 0.509910 0.374730 0.508290 0.955661
Zn2   Zn    Zn3+2 0.490090 0.625270 0.491710 0.947498

loop_
_geom_bond_atom_site_label_1
_geom_bond_atom_site_label_2
_ccdc_geom_bond_type
C14   O5    A    
C32   H22   S    
O6    Zn2   S    
H7    N3    S    
N1    Zn1   S    
C18   N5    S    
C15   O6    A    
C12   O2    A    
C12   C23   S    
H13   N5    S    
C19   N6    S    
C28   C29   A    
C19   C21   A    
C24   C26   A    
C3    C33   A    
C1    C31   S    
C5    N3    S    
O3    Zn2   S    
C7    H6    S    
C6    N4    S    
C33   C35   A    
C22   C25   A    
C34   H21   S    
C5    C13   A    
C8    N1    A    
C16   C27   A    
C27   C30   A    
N2    Zn2   S    
C14   C30   S    
C15   C29   S    
H8    N3    S    
C25   C29   A    
O8    Zn1   S    
C9    N2    A    
C14   O7    A    
C8    H5    S    
C2    H18   S    
C6    C11   A    
C5    C7    A    
C17   C19   A    
C6    C8    A    
C9    H4    S    
C1    O3    A    
H10   N4    S    
C10   H3    S    
H15   N6    S    
C32   C34   A    
C2    C4    A    
C7    N2    A    
C9    C11   A    
C24   I2    S    
C31   C34   A    
C21   H1    S    
C4    C32   A    
H14   N6    S    
C20   H12   S    
C20   C22   A    
C26   C30   A    
C23   C35   A    
O7    Zn2   S    
C10   N1    A    
O2    Zn2   S    
C3    C4    A    
C17   H17   S    
C22   I1    S    
C12   O4    A    
C35   H20   S    
C17   C28   A    
C16   H16   S    
C10   C13   A    
C25   C27   A    
H9    N4    S    
C26   C28   A    
C33   H2    S    
C36   H19   S    
O5    Zn1   S    
C11   C13   A    
C3    C36   A    
C1    O1    A    
C18   C20   A    
C15   O8    A    
O1    Zn1   S    
O4    Zn1   S    
C16   C18   A    
C21   C24   A    
C2    C23   A    
C31   C36   A    
H11   N5    S    
