data_mof_unit_62406.cif
_audit_creation_date              2012-12-10T19:58:57-0500
_audit_creation_method            fapswitch 2.2
_symmetry_space_group_name_H-M    P1
_symmetry_Int_Tables_number       1
_space_group_crystal_system       monoclinic
_cell_length_a                    18.372197
_cell_length_b                    18.372198
_cell_length_c                    22.426292
_cell_angle_alpha                 90.0
_cell_angle_beta                  90.0
_cell_angle_gamma                 90.007307
_cell_volume                      7569.71763603

loop_
_atom_site_label
_atom_site_type_symbol
_atom_type_description
_atom_site_fract_x
_atom_site_fract_y
_atom_site_fract_z
_atom_type_partial_charge
C1    C     C_R   0.500000 0.000000 0.340072 0.508928
C2    C     C_R   0.859147 0.639404 0.500925 0.507129
C3    C     C_1   0.903889 0.205763 0.517029 0.241344
C4    C     C_1   0.205764 0.903889 0.517036 0.241346
C5    C     C_1   0.821766 0.712210 0.614335 0.243273
C6    C     C_1   0.794237 0.096111 0.517029 0.241344
C7    C     C_1   0.178239 0.287795 0.614336 0.243270
C8    C     C_1   0.212198 0.321754 0.114337 0.243267
C9    C     C_1   0.596111 0.294236 0.017036 0.241344
C10   C     C_1   0.787799 0.678243 0.114336 0.243269
C11   C     C_1   0.403889 0.705763 0.017035 0.241345
C12   C     C_1   0.705764 0.403889 0.017036 0.241345
C13   C     C_R   0.359083 0.860663 0.499134 0.504071
C14   C     C_1   0.321754 0.212198 0.114337 0.243267
C15   C     C_1   0.294236 0.596111 0.017035 0.241344
C16   C     C_1   0.678243 0.787799 0.114336 0.243269
C17   C     C_R   0.140853 0.360596 0.500924 0.507130
C18   C     C_R   0.360596 0.140853 0.500924 0.507130
C19   C     C_R   0.139337 0.640917 0.499134 0.504071
C20   C     C_R   0.639404 0.859147 0.500925 0.507130
C21   C     C_R   0.860663 0.359083 0.499134 0.504072
C22   C     C_R   0.140917 0.639337 0.999134 0.504071
C23   C     C_R   0.359147 0.139404 0.000924 0.507130
C24   C     C_R   0.859083 0.360663 0.999134 0.504072
C25   C     C_R   0.000000 0.500000 0.340072 0.508928
C26   C     C_R   0.640853 0.860596 0.000924 0.507130
C27   C     C_R   0.860596 0.640853 0.000924 0.507130
C28   C     C_R   0.639337 0.140917 0.999134 0.504071
C29   C     C_R   0.139404 0.359147 0.000924 0.507130
C30   C     C_R   0.360663 0.859083 0.999134 0.504071
C31   C     C_R   0.699505 0.752369 0.457467 0.006424
C32   C     C_R   0.260769 0.686366 0.473049 0.018219
C33   C     C_R   0.300493 0.247630 0.457466 0.006424
C34   C     C_R   0.739229 0.313636 0.473053 0.018220
C35   C     C_R   0.313634 0.739231 0.473049 0.018219
C36   C     C_R   0.000000 0.500000 0.840072 0.508927
C37   C     C_R   0.752369 0.699505 0.457467 0.006424
C38   C     C_R   0.686364 0.260771 0.473053 0.018220
C39   C     C_R   0.247630 0.300493 0.457466 0.006424
C40   C     C_R   0.199511 0.252374 0.957463 0.006426
C41   C     C_R   0.760769 0.186366 0.973049 0.018218
C42   C     C_R   0.800491 0.747627 0.957464 0.006427
C43   C     C_R   0.239230 0.813635 0.973049 0.018218
C44   C     C_R   0.813634 0.239230 0.973049 0.018218
C45   C     C_R   0.252374 0.199511 0.957463 0.006426
C46   C     C_R   0.186365 0.760770 0.973049 0.018218
C47   C     C_R   0.500000 1.000000 0.840072 0.508927
C48   C     C_R   0.747627 0.800491 0.957464 0.006427
C49   C     C_R   0.690584 0.798859 0.505966 0.008159
C50   C     C_R   0.190805 0.700918 0.493746 0.004844
C51   C     C_R   0.309416 0.201140 0.505965 0.008159
C52   C     C_R   0.809194 0.299082 0.493746 0.004846
C53   C     C_R   0.299082 0.809195 0.493746 0.004845
C54   C     C_R   0.798859 0.690584 0.505966 0.008158
C55   C     C_R   0.700917 0.190806 0.493746 0.004845
C56   C     C_R   0.201140 0.309416 0.505965 0.008159
C57   C     C_R   0.190584 0.298860 0.005964 0.008161
C58   C     C_R   0.500000 0.000000 0.659935 0.509770
C59   C     C_R   0.690805 0.200918 0.993746 0.004845
C60   C     C_R   0.809416 0.701140 0.005965 0.008160
C61   C     C_R   0.309195 0.799082 0.993746 0.004845
C62   C     C_R   0.799082 0.309195 0.993746 0.004845
C63   C     C_R   0.298860 0.190584 0.005964 0.008161
C64   C     C_R   0.200918 0.690805 0.993746 0.004845
C65   C     C_R   0.701140 0.809416 0.005965 0.008160
C66   C     C_R   0.728400 0.782870 0.559603 -0.053609
C67   C     C_R   0.171164 0.774350 0.505159 -0.059605
C68   C     C_R   0.271602 0.217132 0.559603 -0.053608
C69   C     C_R   1.000000 0.500000 0.659935 0.509769
C70   C     C_R   0.828836 0.225650 0.505157 -0.059603
C71   C     C_R   0.225650 0.828836 0.505159 -0.059604
C72   C     C_R   0.782870 0.728400 0.559603 -0.053609
C73   C     C_R   0.774350 0.171164 0.505157 -0.059604
C74   C     C_R   0.217132 0.271602 0.559603 -0.053608
C75   C     C_R   0.228395 0.282865 0.059603 -0.053607
C76   C     C_R   0.671164 0.274350 0.005160 -0.059604
C77   C     C_R   0.771604 0.717134 0.059603 -0.053608
C78   C     C_R   0.328836 0.725649 0.005159 -0.059604
C79   C     C_R   0.725650 0.328836 0.005160 -0.059604
C80   C     C_R   1.000000 0.500000 0.159935 0.509772
C81   C     C_R   0.282865 0.228395 0.059603 -0.053607
C82   C     C_R   0.274350 0.671164 0.005159 -0.059604
C83   C     C_R   0.717134 0.771604 0.059603 -0.053608
C84   C     C_1   1.000000 0.500000 0.276702 -0.008569
C85   C     C_1   0.500000 0.000000 0.276702 -0.008569
C86   C     C_1   0.500000 0.000000 0.776702 -0.008571
C87   C     C_1   0.000000 0.500000 0.776702 -0.008571
C88   C     C_1   0.500000 0.000000 0.723302 -0.002682
C89   C     C_1   0.000000 0.500000 0.723302 -0.002682
C90   C     C_1   1.000000 0.500000 0.223301 -0.002680
C91   C     C_R   0.500000 0.000000 0.159935 0.509772
C92   C     C_1   0.500000 0.000000 0.223301 -0.002680
C93   C     C_3   0.769261 0.710773 0.392989 -0.253575
C94   C     C_3   0.371784 0.686714 0.490741 -0.263421
C95   C     C_3   0.230735 0.289223 0.392988 -0.253575
C96   C     C_3   0.628215 0.313287 0.490752 -0.263422
C97   C     C_3   0.313286 0.628216 0.490741 -0.263421
C98   C     C_3   0.710773 0.769261 0.392989 -0.253575
C99   C     C_3   0.686713 0.371785 0.490752 -0.263423
C100  C     C_3   0.289223 0.230735 0.392988 -0.253575
C101  C     C_3   0.269274 0.210786 0.892987 -0.253580
C102  C     C_R   0.640917 0.139337 0.499134 0.504072
C103  C     C_3   0.871784 0.186713 0.990742 -0.263420
C104  C     C_3   0.730729 0.789217 0.892988 -0.253579
C105  C     C_3   0.128215 0.813286 0.990743 -0.263420
C106  C     C_3   0.813286 0.128215 0.990742 -0.263420
C107  C     C_3   0.210786 0.269274 0.892987 -0.253580
C108  C     C_3   0.186713 0.871785 0.990743 -0.263420
C109  C     C_3   0.789217 0.730729 0.892988 -0.253579
C110  C     C_1   0.712210 0.821766 0.614335 0.243273
C111  C     C_1   0.096111 0.794236 0.517036 0.241346
C112  C     C_1   0.287795 0.178239 0.614336 0.243270
H1    H     H_    0.754713 0.662552 0.365523 0.162658
H2    H     H_    0.894373 0.198162 0.035789 0.135835
H3    H     H_    0.745274 0.837436 0.865518 0.162659
H4    H     H_    0.105627 0.801837 0.035791 0.135835
H5    H     H_    0.801838 0.105627 0.035789 0.135835
H6    H     H_    0.162568 0.254729 0.865516 0.162659
H7    H     H_    0.198162 0.894373 0.035791 0.135835
H8    H     H_    0.837436 0.745274 0.865518 0.162659
H9    H     H_    0.825032 0.732517 0.385569 0.145419
H10   H     H_    0.412998 0.679187 0.454980 0.155852
H11   H     H_    0.174964 0.267479 0.385570 0.145419
H12   H     H_    0.394373 0.698162 0.535789 0.135834
H13   H     H_    0.586998 0.320817 0.454993 0.155851
H14   H     H_    0.320813 0.587002 0.454980 0.155852
H15   H     H_    0.732517 0.825032 0.385569 0.145419
H16   H     H_    0.679183 0.413002 0.454993 0.155851
H17   H     H_    0.267479 0.174964 0.385570 0.145418
H18   H     H_    0.325045 0.232530 0.885573 0.145417
H19   H     H_    0.912998 0.179186 0.954981 0.155853
H20   H     H_    0.674958 0.767473 0.885572 0.145416
H21   H     H_    0.087001 0.820814 0.954982 0.155853
H22   H     H_    0.820813 0.087002 0.954981 0.155853
H23   H     H_    0.245282 0.337443 0.365520 0.162658
H24   H     H_    0.232530 0.325045 0.885573 0.145417
H25   H     H_    0.179186 0.912999 0.954982 0.155853
H26   H     H_    0.767473 0.674958 0.885572 0.145416
H27   H     H_    0.605630 0.301835 0.535799 0.135834
H28   H     H_    0.301838 0.605627 0.535789 0.135834
H29   H     H_    0.662552 0.754713 0.365523 0.162658
H30   H     H_    0.698165 0.394370 0.535799 0.135833
H31   H     H_    0.337443 0.245282 0.365520 0.162659
H32   H     H_    0.254729 0.162568 0.865516 0.162660
N1    N     N_1   0.699332 0.852700 0.658042 -0.263331
N2    N     N_1   0.536256 0.310174 0.026473 -0.246832
N3    N     N_1   0.800682 0.647313 0.158045 -0.263336
N4    N     N_1   0.463744 0.689826 0.026472 -0.246832
N5    N     N_1   0.689826 0.463743 0.026473 -0.246832
N6    N     N_1   0.352682 0.199313 0.158046 -0.263338
N7    N     N_1   0.310174 0.536256 0.026471 -0.246832
N8    N     N_1   0.647313 0.800682 0.158045 -0.263336
N9    N     N_1   0.036256 0.810174 0.526473 -0.246829
N10   N     N_1   0.300676 0.147307 0.658044 -0.263334
N11   N     N_1   0.963745 0.189825 0.526462 -0.246833
N12   N     N_1   0.189826 0.963744 0.526472 -0.246830
N13   N     N_1   0.852700 0.699332 0.658042 -0.263331
N14   N     N_1   0.810175 0.036255 0.526463 -0.246832
N15   N     N_1   0.147308 0.300676 0.658044 -0.263335
N16   N     N_1   0.199313 0.352682 0.158046 -0.263338
O1    O     O_3   0.500000 0.000000 0.500000 -0.455750
O2    O     O_R   0.560750 0.000000 0.867980 -0.533335
O3    O     O_R   0.000000 0.560750 0.867980 -0.533335
O4    O     O_R   0.439250 0.000000 0.867980 -0.533335
O5    O     O_R   0.560720 0.000000 0.632020 -0.524903
O6    O     O_R   1.000000 0.560720 0.632020 -0.524902
O7    O     O_R   0.439280 0.000000 0.632020 -0.524902
O8    O     O_R   1.000000 0.439280 0.632020 -0.524902
O9    O     O_R   0.060720 0.500000 0.132020 -0.524902
O10   O     O_R   0.500000 0.060720 0.132020 -0.524902
O11   O     O_R   0.939280 0.500000 0.132020 -0.524902
O12   O     O_3   1.000000 0.500000 0.500000 -0.455750
O13   O     O_R   0.500000 0.939280 0.132020 -0.524902
O14   O     O_R   0.585450 0.146130 0.465380 -0.539803
O15   O     O_R   0.853870 0.585450 0.465380 -0.544557
O16   O     O_R   0.414550 0.853870 0.465380 -0.539804
O17   O     O_R   0.146130 0.414550 0.465380 -0.544557
O18   O     O_R   0.414550 0.146130 0.465380 -0.544556
O19   O     O_R   0.146130 0.585450 0.465380 -0.539804
O20   O     O_R   0.585450 0.853870 0.465380 -0.544557
O21   O     O_R   0.853870 0.414550 0.465380 -0.539803
O22   O     O_R   0.085450 0.646130 0.965380 -0.539803
O23   O     O_3   0.000000 0.500000 0.000000 -0.455750
O24   O     O_R   0.353870 0.085450 0.965380 -0.544556
O25   O     O_R   0.914550 0.353870 0.965380 -0.539804
O26   O     O_R   0.646130 0.914550 0.965380 -0.544556
O27   O     O_R   0.914550 0.646130 0.965380 -0.544556
O28   O     O_R   0.646130 0.085450 0.965380 -0.539804
O29   O     O_R   0.085450 0.353870 0.965380 -0.544556
O30   O     O_R   0.353870 0.914550 0.965380 -0.539804
O31   O     O_R   0.353850 0.914510 0.534610 -0.529015
O32   O     O_R   0.085490 0.353850 0.534610 -0.518222
O33   O     O_R   0.646150 0.085490 0.534610 -0.529014
O34   O     O_3   0.500000 0.000000 0.000000 -0.455750
O35   O     O_R   0.914510 0.646150 0.534610 -0.518223
O36   O     O_R   0.646150 0.914510 0.534610 -0.518223
O37   O     O_R   0.914510 0.353850 0.534610 -0.529015
O38   O     O_R   0.353850 0.085490 0.534610 -0.518222
O39   O     O_R   0.085490 0.646150 0.534610 -0.529015
O40   O     O_R   0.853850 0.414510 0.034610 -0.529015
O41   O     O_R   0.585490 0.853850 0.034610 -0.518222
O42   O     O_R   0.146150 0.585490 0.034610 -0.529015
O43   O     O_R   0.414510 0.146150 0.034610 -0.518222
O44   O     O_R   0.146150 0.414510 0.034610 -0.518222
O45   O     O_R   0.500000 0.939250 0.367980 -0.533335
O46   O     O_R   0.414510 0.853850 0.034610 -0.529015
O47   O     O_R   0.853850 0.585490 0.034610 -0.518222
O48   O     O_R   0.585490 0.146150 0.034610 -0.529015
O49   O     O_R   0.060750 0.500000 0.367980 -0.533335
O50   O     O_R   0.500000 0.060750 0.367980 -0.533335
O51   O     O_R   0.939250 0.500000 0.367980 -0.533335
O52   O     O_R   1.000000 0.439250 0.867980 -0.533335
Zn1   Zn    Zn3+2 0.586760 0.000000 0.549450 0.978110
Zn2   Zn    Zn3+2 0.913280 0.500000 0.450540 0.943026
Zn3   Zn    Zn3+2 0.500000 0.913280 0.450540 0.943025
Zn4   Zn    Zn3+2 0.086720 0.500000 0.450540 0.943026
Zn5   Zn    Zn3+2 1.000000 0.586720 0.950540 0.943026
Zn6   Zn    Zn3+2 0.413280 0.000000 0.950540 0.943026
Zn7   Zn    Zn3+2 1.000000 0.413280 0.950540 0.943026
Zn8   Zn    Zn3+2 0.586720 0.000000 0.950540 0.943026
Zn9   Zn    Zn3+2 0.000000 0.586760 0.549450 0.978110
Zn10  Zn    Zn3+2 0.413240 0.000000 0.549450 0.978110
Zn11  Zn    Zn3+2 1.000000 0.413240 0.549450 0.978110
Zn12  Zn    Zn3+2 0.086760 0.500000 0.049450 0.978111
Zn13  Zn    Zn3+2 0.500000 0.086760 0.049450 0.978111
Zn14  Zn    Zn3+2 0.913240 0.500000 0.049450 0.978111
Zn15  Zn    Zn3+2 0.500000 0.913240 0.049450 0.978111
Zn16  Zn    Zn3+2 0.500000 0.086720 0.450540 0.943027

loop_
_geom_bond_atom_site_label_1
_geom_bond_atom_site_label_2
_ccdc_geom_bond_type
C101  C107  S    
C13   O16   A    
C12   C79   S    
C53   C71   A    
C35   C53   A    
C104  H20   S    
C105  H4    S    
O17   Zn4   S    
C76   C79   A    
C96   H27   S    
C15   N7    T    
C20   O20   A    
C34   C52   A    
C21   O21   A    
C55   C102  S    
C33   C39   A    
C63   C81   A    
O34   Zn13  S    
O38   Zn10  S    
C42   C109  S    
C93   H9    S    
C5    C72   S    
C27   C60   S    
C28   O28   A    
C108  H25   S    
C2    O15   A    
C101  H32   S    
C86   C88   T    
C11   N4    T    
C65   C83   A    
O9    Zn12  S    
C7    N15   T    
C77   C83   A    
C68   C74   A    
C30   O46   A    
C96   C99   S    
C9    N2    T    
C32   C97   S    
C91   O13   A    
C2    O35   A    
C68   C112  S    
C31   C98   S    
C25   O51   A    
C58   O5    A    
O14   Zn16  S    
C69   O6    A    
O12   Zn9   S    
C99   H30   S    
C47   O2    A    
C44   C103  S    
C66   C72   A    
C38   C55   A    
O23   Zn12  S    
C94   H10   S    
O19   Zn4   S    
C18   O38   A    
C36   O3    A    
C24   C62   S    
C96   H13   S    
O21   Zn2   S    
O39   Zn9   S    
C9    C76   S    
C48   C65   A    
C15   C82   S    
C110  N1    T    
C1    O45   A    
C50   C67   A    
C97   H28   S    
O18   Zn16  S    
C27   O27   A    
C10   N3    T    
C51   C68   A    
O1    Zn16  S    
C101  H18   S    
O24   Zn6   S    
O45   Zn3   S    
O1    Zn3   S    
C93   H1    S    
O23   Zn5   S    
C29   O44   A    
C112  N10   T    
O44   Zn12  S    
C108  H7    S    
C14   N6    T    
C84   C90   T    
C80   O9    A    
C31   C49   A    
O12   Zn2   S    
O30   Zn6   S    
O23   Zn14  S    
C3    N11   T    
C6    N14   T    
C85   C92   T    
C18   C51   S    
C7    C74   S    
C13   C53   S    
O28   Zn8   S    
C36   C87   S    
C1    C85   S    
C40   C45   A    
C105  C108  S    
O2    Zn8   S    
C60   C77   A    
O49   Zn4   S    
C56   C74   A    
C41   C106  S    
C22   O42   A    
O15   Zn2   S    
O42   Zn12  S    
C62   C79   A    
C103  H2    S    
C41   C59   A    
O34   Zn6   S    
O13   Zn15  S    
C42   C60   A    
C91   C92   S    
O35   Zn9   S    
C100  H17   S    
C75   C81   A    
C42   C48   A    
C94   C97   S    
C44   C62   A    
O26   Zn8   S    
C45   C63   A    
C8    C75   S    
C31   C37   A    
C46   C64   A    
C109  H26   S    
C34   C38   A    
O34   Zn15  S    
C32   C35   A    
O7    Zn10  S    
C20   C49   S    
C95   H11   S    
C11   C78   S    
O48   Zn13  S    
C25   C84   S    
C104  H3    S    
C78   C82   A    
O47   Zn14  S    
C14   C81   S    
C39   C56   A    
C17   C56   S    
O11   Zn14  S    
C61   C78   A    
C39   C95   S    
O1    Zn10  S    
C26   O41   A    
C70   C73   A    
C95   H23   S    
C34   C99   S    
O16   Zn3   S    
C37   C93   S    
C16   N8    T    
C107  H6    S    
O40   Zn14  S    
C3    C70   S    
C66   C110  S    
C25   O49   A    
C58   O7    A    
C111  N9    T    
O31   Zn10  S    
C64   C82   A    
C45   C101  S    
C36   O52   A    
C40   C107  S    
C37   C54   A    
O3    Zn5   S    
C67   C111  S    
C98   H15   S    
C4    N12   T    
C29   C57   S    
C5    N13   T    
C19   C50   S    
C87   C89   T    
C98   H29   S    
C2    C54   S    
C28   O48   A    
C41   C44   A    
C29   O29   A    
C30   C61   S    
C102  O14   A    
C47   O4    A    
O8    Zn11  S    
C8    N16   T    
C102  O33   A    
C19   O19   A    
O43   Zn13  S    
C43   C61   A    
C6    C73   S    
C105  H21   S    
C17   O32   A    
O27   Zn5   S    
C28   C59   S    
O5    Zn1   S    
O41   Zn15  S    
O1    Zn1   S    
O23   Zn7   S    
C40   C57   A    
O25   Zn7   S    
C91   O10   A    
C1    O50   A    
C95   C100  S    
C26   C65   S    
O50   Zn16  S    
C12   N5    T    
O20   Zn3   S    
O32   Zn11  S    
C21   O37   A    
C97   H14   S    
O37   Zn11  S    
C100  H31   S    
C58   C88   S    
O34   Zn8   S    
O33   Zn1   S    
C99   H16   S    
C18   O18   A    
O4    Zn6   S    
C33   C51   A    
C69   C89   S    
C19   O39   A    
C13   O31   A    
C33   C100  S    
C57   C75   A    
O52   Zn7   S    
C47   C86   S    
C69   O8    A    
C23   O24   A    
C106  H5    S    
O12   Zn11  S    
O22   Zn5   S    
C4    C71   S    
O36   Zn1   S    
C26   O26   A    
C46   C105  S    
C104  C109  S    
C93   C98   S    
C30   O30   A    
C23   C63   S    
O6    Zn9   S    
C32   C50   A    
C103  C106  S    
C67   C71   A    
C43   C108  S    
C16   C83   S    
C80   C90   S    
C43   C46   A    
C52   C70   A    
C22   C64   S    
C55   C73   A    
C10   C77   S    
C106  H22   S    
O51   Zn2   S    
C54   C72   A    
C24   O40   A    
C27   O47   A    
C22   O22   A    
C49   C66   A    
O10   Zn13  S    
C38   C96   S    
O46   Zn15  S    
C23   O43   A    
C24   O25   A    
C17   O17   A    
C80   O11   A    
O12   Zn4   S    
C35   C94   S    
C103  H19   S    
C59   C76   A    
C20   O36   A    
C21   C52   S    
O29   Zn7   S    
C109  H8    S    
C94   H12   S    
C107  H24   S    
C48   C104  S    
