data_mof_unit_28356.cif
_audit_creation_date              2012-12-10T16:57:49-0500
_audit_creation_method            fapswitch 2.2
_symmetry_space_group_name_H-M    P1
_symmetry_Int_Tables_number       1
_space_group_crystal_system       triclinic
_cell_length_a                    7.742243
_cell_length_b                    8.579536
_cell_length_c                    19.059153
_cell_angle_alpha                 90.816873
_cell_angle_beta                  86.107412
_cell_angle_gamma                 93.606616
_cell_volume                      1260.51588331

loop_
_atom_site_label
_atom_site_type_symbol
_atom_type_description
_atom_site_fract_x
_atom_site_fract_y
_atom_site_fract_z
_atom_type_partial_charge
C1    C     C_R   0.545855 0.794836 0.498167 0.975182
C2    C     C_R   0.650662 0.510481 0.175500 -0.162581
C3    C     C_R   0.529164 0.599814 0.853693 0.016600
C4    C     C_R   0.524187 0.594795 0.146549 0.023062
C5    C     C_R   0.681702 0.573769 0.812599 -0.258169
C6    C     C_R   0.383314 0.644118 0.189313 -0.260180
C7    C     C_R   0.675667 0.534346 0.741612 0.530224
C8    C     C_R   0.367030 0.608492 0.260790 0.524194
C9    C     C_R   0.514320 0.526753 0.710671 -0.156457
C10   C     C_R   0.497408 0.526486 0.289722 -0.138862
C11   C     C_R   0.532967 0.620798 0.070986 0.316295
C12   C     C_R   0.454145 0.205165 0.501823 0.956206
C13   C     C_R   0.535136 0.623656 0.929452 0.316690
C14   C     C_3   0.883853 0.365589 0.712727 -0.310927
C15   C     C_3   0.077858 0.584604 0.291762 -0.277075
C16   C     C_2   0.570088 0.958212 0.497132 -0.375958
C17   C     C_2   0.429912 0.041780 0.502832 -0.367116
C18   C     C_R   0.503555 0.503513 0.634834 0.880805
C19   C     C_R   0.497989 0.503743 0.365335 0.895999
C20   C     C_R   0.362191 0.553490 0.752222 -0.274883
C21   C     C_R   0.637022 0.476324 0.246450 -0.290822
C22   C     C_R   0.369478 0.589646 0.823049 -0.161438
H1    H     H_    0.702491 0.009211 0.491715 0.179742
H2    H     H_    0.782660 0.273710 0.699595 0.163479
H3    H     H_    0.920395 0.352040 0.767665 0.156688
H4    H     H_    0.975708 0.625893 0.329959 0.211829
H5    H     H_    0.086676 0.457336 0.300536 0.145630
H6    H     H_    0.036338 0.605043 0.238110 0.155716
H7    H     H_    0.013883 0.382888 0.447329 0.186879
H8    H     H_    0.986119 0.617131 0.552662 0.217607
H9    H     H_    0.297510 0.990777 0.508246 0.183390
H10   H     H_    0.236972 0.548455 0.729922 0.203135
H11   H     H_    0.736875 0.411461 0.267644 0.169926
H12   H     H_    0.249482 0.607743 0.853834 0.166377
H13   H     H_    0.759405 0.469104 0.143287 0.162410
H14   H     H_    0.806443 0.582880 0.835379 0.162635
H15   H     H_    0.286659 0.711906 0.167588 0.164893
H16   H     H_    0.000749 0.347890 0.677230 0.200455
N1    N     N_R   0.681174 0.596507 0.961478 -0.179134
N2    N     N_R   0.388708 0.654028 0.039051 -0.175800
N3    N     N_R   0.680084 0.594953 0.031054 -0.176273
N4    N     N_R   0.389724 0.655244 0.969422 -0.175166
N5    N     N_2   0.950330 0.457950 0.481240 -0.176760
N6    N     N_2   0.049670 0.542050 0.518760 -0.160960
O1    O     O_R   0.389250 0.738570 0.504600 -0.603212
O2    O     O_3   0.235471 0.669347 0.303513 -0.597218
O3    O     O_R   0.610750 0.261430 0.495400 -0.614982
O4    O     O_R   0.678400 0.711620 0.492580 -0.632513
O5    O     O_R   0.321600 0.288380 0.507420 -0.636038
O6    O     O_R   0.355380 0.513500 0.607880 -0.626734
O7    O     O_R   0.644620 0.486500 0.392120 -0.639973
O8    O     O_R   0.644530 0.486550 0.595850 -0.570332
O9    O     O_R   0.355470 0.513450 0.404150 -0.578239
O10   O     O_3   0.829404 0.516591 0.701784 -0.609376
Zn1   Zn    Zn3+2 0.306930 0.517990 0.508030 0.967869
Zn2   Zn    Zn3+2 0.693070 0.482010 0.491970 0.953260

loop_
_geom_bond_atom_site_label_1
_geom_bond_atom_site_label_2
_ccdc_geom_bond_type
C2    H13   S    
C12   C17   S    
C2    C4    A    
N5    N6    D    
C1    O4    A    
O1    Zn1   S    
C14   H16   S    
C5    C7    A    
N5    Zn2   S    
C9    C20   A    
C15   H5    S    
O6    Zn1   S    
C3    C13   S    
C10   C19   S    
H8    N6    S    
C19   O9    A    
C2    C21   A    
N2    N4    A    
C12   O5    A    
C6    H15   S    
C18   O8    A    
N1    N3    A    
C1    C16   S    
H7    N5    S    
C4    C11   S    
N6    Zn1   S    
C1    O1    A    
C15   H6    S    
C12   O3    A    
C22   H12   S    
C4    C6    A    
C13   N4    A    
C14   O10   S    
C20   C22   A    
C11   N3    A    
C16   H1    S    
C7    C9    A    
O9    Zn1   S    
C14   H3    S    
C11   N2    A    
C17   H9    S    
C8    O2    S    
C13   N1    A    
C21   H11   S    
C5    H14   S    
C19   O7    A    
C9    C18   S    
C7    O10   S    
C18   O6    A    
C8    C10   A    
O7    Zn2   S    
C20   H10   S    
C14   H2    S    
O4    Zn2   S    
C16   C17   D    
C15   H4    S    
C6    C8    A    
C15   O2    S    
C3    C5    A    
O5    Zn1   S    
C10   C21   A    
O8    Zn2   S    
O3    Zn2   S    
C3    C22   A    
