data_mof_unit_61953.cif
_audit_creation_date              2012-12-10T18:01:58-0500
_audit_creation_method            fapswitch 2.2
_symmetry_space_group_name_H-M    P1
_symmetry_Int_Tables_number       1
_space_group_crystal_system       triclinic
_cell_length_a                    21.750052
_cell_length_b                    21.749955
_cell_length_c                    47.401715
_cell_angle_alpha                 90.001375
_cell_angle_beta                  90.000142
_cell_angle_gamma                 90.001144
_cell_volume                      22423.981008

loop_
_atom_site_label
_atom_site_type_symbol
_atom_type_description
_atom_site_fract_x
_atom_site_fract_y
_atom_site_fract_z
_atom_type_partial_charge
C1    C     C_R   0.000598 0.881535 0.999927 0.840508
C2    C     C_R   0.118465 0.000606 0.999927 0.840438
C3    C     C_R   0.999397 0.118465 0.999927 0.840369
C4    C     C_R   0.881536 0.999418 0.999927 0.840413
C5    C     C_R   0.500596 0.381536 0.499927 0.840438
C6    C     C_R   0.618464 0.500602 0.499927 0.840457
C7    C     C_R   0.499400 0.618465 0.499928 0.840427
C8    C     C_R   0.381535 0.499397 0.499927 0.840442
C9    C     C_R   0.685341 0.998072 0.998006 -0.182217
C10   C     C_R   0.001927 0.685339 0.998007 -0.182279
C11   C     C_R   0.314660 0.001922 0.998006 -0.182357
C12   C     C_R   0.998073 0.314661 0.998006 -0.182329
C13   C     C_R   0.185339 0.498086 0.497999 -0.182130
C14   C     C_R   0.501926 0.185341 0.498006 -0.182260
C15   C     C_R   0.814661 0.501913 0.497999 -0.182087
C16   C     C_R   0.498069 0.814659 0.498008 -0.182355
C17   C     C_R   0.719389 0.040755 0.013180 0.072982
C18   C     C_R   0.959287 0.719390 0.013207 0.072293
C19   C     C_R   0.280606 0.959293 0.013212 0.071600
C20   C     C_R   0.040696 0.280610 0.013216 0.072093
C21   C     C_R   0.219393 0.540754 0.513182 0.071995
C22   C     C_R   0.459256 0.219392 0.513189 0.072134
C23   C     C_R   0.780607 0.459234 0.513176 0.072123
C24   C     C_R   0.540712 0.780610 0.513207 0.071948
C25   C     C_3   0.715619 0.100787 0.028821 -0.135605
C26   C     C_3   0.899292 0.715637 0.028880 -0.135648
C27   C     C_3   0.284341 0.899302 0.028891 -0.135620
C28   C     C_3   0.100702 0.284356 0.028880 -0.135639
C29   C     C_3   0.215643 0.600671 0.528921 -0.135549
C30   C     C_3   0.399249 0.215642 0.528854 -0.135605
C31   C     C_3   0.784360 0.399319 0.528915 -0.135570
C32   C     C_3   0.600743 0.784354 0.528855 -0.135621
C33   C     C_3   0.787258 0.098244 0.029932 -0.350572
C34   C     C_3   0.901870 0.787275 0.029996 -0.350963
C35   C     C_3   0.212703 0.901907 0.030010 -0.351334
C36   C     C_3   0.098111 0.212718 0.029998 -0.351084
C37   C     C_3   0.287282 0.598091 0.530031 -0.351128
C38   C     C_3   0.401829 0.287281 0.529969 -0.351142
C39   C     C_3   0.712721 0.401895 0.530025 -0.351038
C40   C     C_3   0.598154 0.712717 0.529972 -0.351149
C41   C     C_R   0.032601 0.546187 0.100479 -0.049889
C42   C     C_R   0.453798 0.032585 0.100477 -0.049536
C43   C     C_R   0.967403 0.453802 0.100476 -0.049806
C44   C     C_R   0.546197 0.967412 0.100477 -0.050200
C45   C     C_R   0.532565 0.046209 0.600478 -0.049866
C46   C     C_R   0.953860 0.532671 0.600480 -0.049894
C47   C     C_R   0.467439 0.953773 0.600474 -0.049795
C48   C     C_R   0.046145 0.467336 0.600479 -0.049822
C49   C     C_R   0.500002 0.999999 0.945163 0.818170
C50   C     C_R   1.000000 0.500001 0.945163 0.818052
C51   C     C_R   0.999999 0.499999 0.445163 0.818044
C52   C     C_R   0.500000 0.000002 0.445163 0.818110
C53   C     C_R   0.618714 0.999863 0.998939 0.813060
C54   C     C_R   0.000137 0.618713 0.998939 0.813469
C55   C     C_R   0.381286 0.000135 0.998938 0.813932
C56   C     C_R   0.999864 0.381287 0.998938 0.813570
C57   C     C_R   0.118713 0.499865 0.498939 0.813815
C58   C     C_R   0.500137 0.118714 0.498939 0.813595
C59   C     C_R   0.881286 0.500134 0.498940 0.813734
C60   C     C_R   0.499863 0.881286 0.498938 0.813565
C61   C     C_R   0.500003 0.000001 0.054304 0.791254
C62   C     C_R   0.000000 0.500000 0.054304 0.791460
C63   C     C_R   1.000000 0.500001 0.554304 0.791927
C64   C     C_R   0.500000 1.000000 0.554303 0.791620
C65   C     C_R   0.947853 0.516884 0.189665 0.540141
C66   C     C_R   0.483127 0.947858 0.189665 0.540143
C67   C     C_R   0.052140 0.483097 0.189665 0.540145
C68   C     C_R   0.516875 0.052159 0.189666 0.540144
C69   C     C_R   0.447842 0.016844 0.689665 0.540142
C70   C     C_R   0.983046 0.447879 0.689666 0.540130
C71   C     C_R   0.552150 0.983122 0.689664 0.540149
C72   C     C_R   0.016960 0.552127 0.689668 0.540122
C73   C     C_R   0.053473 0.483932 0.219316 -0.057109
C74   C     C_R   0.516039 0.053492 0.219317 -0.057102
C75   C     C_R   0.946519 0.516048 0.219316 -0.057105
C76   C     C_R   0.483962 0.946525 0.219315 -0.057110
C77   C     C_R   0.553483 0.983957 0.719315 -0.057116
C78   C     C_R   0.016123 0.553462 0.719319 -0.057103
C79   C     C_R   0.446510 0.016008 0.719316 -0.057109
C80   C     C_R   0.983882 0.446543 0.719317 -0.057104
C81   C     C_R   0.500002 0.999991 0.853281 0.224649
C82   C     C_R   0.000000 0.500001 0.853282 0.224608
C83   C     C_R   0.999997 0.499994 0.353281 0.224623
C84   C     C_R   0.500000 0.000007 0.353281 0.224641
C85   C     C_R   0.999996 0.499990 0.234308 -0.004989
C86   C     C_R   0.500000 0.000008 0.234308 -0.004989
C87   C     C_R   0.499997 0.999983 0.734307 -0.004987
C88   C     C_R   0.000002 0.500002 0.734309 -0.004990
C89   C     C_R   0.107043 0.469055 0.234111 -0.159295
C90   C     C_R   0.530895 0.107069 0.234113 -0.159292
C91   C     C_R   0.892949 0.530925 0.234111 -0.159293
C92   C     C_R   0.469105 0.892948 0.234110 -0.159293
C93   C     C_R   0.607062 0.969112 0.734110 -0.159288
C94   C     C_R   0.031060 0.607016 0.734115 -0.159299
C95   C     C_R   0.392931 0.030853 0.734111 -0.159289
C96   C     C_R   0.968944 0.392989 0.734111 -0.159297
C97   C     C_R   0.608727 0.970483 0.763519 0.303203
C98   C     C_R   0.029686 0.608684 0.763524 0.303204
C99   C     C_R   0.391268 0.029484 0.763521 0.303202
C100  C     C_R   0.970317 0.391320 0.763521 0.303204
C101  C     C_R   0.108709 0.470426 0.263521 0.303200
C102  C     C_R   0.529524 0.108734 0.263522 0.303201
C103  C     C_R   0.891283 0.529554 0.263521 0.303201
C104  C     C_R   0.470476 0.891283 0.263519 0.303201
C105  C     C_R   0.555030 0.986260 0.779081 -0.089550
C106  C     C_R   0.013814 0.555012 0.779084 -0.089550
C107  C     C_R   0.444967 0.013709 0.779082 -0.089554
C108  C     C_R   0.986188 0.444991 0.779083 -0.089552
C109  C     C_R   0.055020 0.486235 0.279082 -0.089552
C110  C     C_R   0.513735 0.055038 0.279083 -0.089550
C111  C     C_R   0.944972 0.513746 0.279082 -0.089553
C112  C     C_R   0.486264 0.944978 0.279081 -0.089552
C113  C     C_R   0.499998 0.999984 0.764217 -0.084818
C114  C     C_R   0.000001 0.500002 0.764219 -0.084827
C115  C     C_R   0.999996 0.499990 0.264218 -0.084818
C116  C     C_R   0.500000 0.000008 0.264218 -0.084820
C117  C     C_R   0.553833 0.989035 0.808843 0.658675
C118  C     C_R   0.011030 0.553820 0.808845 0.658667
C119  C     C_R   0.446166 0.010939 0.808844 0.658678
C120  C     C_R   0.988970 0.446182 0.808844 0.658668
C121  C     C_R   0.053824 0.489011 0.308844 0.658671
C122  C     C_R   0.510961 0.053840 0.308845 0.658675
C123  C     C_R   0.946168 0.510972 0.308844 0.658672
C124  C     C_R   0.489039 0.946175 0.308843 0.658675
C125  C     C_R   0.497388 0.055709 0.868038 0.218615
C126  C     C_R   0.944281 0.497432 0.868040 0.218650
C127  C     C_R   0.502619 0.944276 0.868039 0.218603
C128  C     C_R   0.055720 0.502571 0.868040 0.218639
C129  C     C_R   0.997404 0.555713 0.368039 0.218627
C130  C     C_R   0.444283 0.997393 0.368039 0.218622
C131  C     C_R   0.002590 0.444277 0.368039 0.218635
C132  C     C_R   0.555717 0.002620 0.368039 0.218599
C133  C     C_R   0.494526 0.056134 0.897713 -0.121097
C134  C     C_R   0.943857 0.494563 0.897714 -0.121081
C135  C     C_R   0.505486 0.943857 0.897714 -0.121091
C136  C     C_R   0.056143 0.505441 0.897714 -0.121083
C137  C     C_R   0.994540 0.556138 0.397713 -0.121070
C138  C     C_R   0.443861 0.994527 0.397713 -0.121097
C139  C     C_R   0.005456 0.443856 0.397713 -0.121074
C140  C     C_R   0.556139 0.005487 0.397713 -0.121089
C141  C     C_R   0.500005 0.999997 0.913291 -0.174138
C142  C     C_R   0.000000 0.500002 0.913292 -0.174145
C143  C     C_R   0.999998 0.499998 0.413291 -0.174130
C144  C     C_R   0.500000 0.000005 0.413291 -0.174124
C145  C     C_R   0.028061 0.548855 0.130283 0.008877
C146  C     C_R   0.451132 0.028052 0.130281 0.008819
C147  C     C_R   0.971937 0.451132 0.130280 0.008859
C148  C     C_R   0.548868 0.971957 0.130282 0.008947
C149  C     C_R   0.528025 0.048871 0.630283 0.008863
C150  C     C_R   0.951184 0.528137 0.630284 0.008851
C151  C     C_R   0.471973 0.951106 0.630279 0.008859
C152  C     C_R   0.048822 0.471870 0.630284 0.008837
C153  C     C_R   0.000001 0.499997 0.085549 -0.186800
C154  C     C_R   0.500000 0.000001 0.085548 -0.186919
C155  C     C_R   0.500001 0.999994 0.585548 -0.186671
C156  C     C_R   0.000002 0.500003 0.585550 -0.186704
C157  C     C_R   0.999997 0.499993 0.145044 0.139459
C158  C     C_R   0.500002 0.000008 0.145043 0.139447
C159  C     C_R   0.499997 0.999987 0.645043 0.139469
C160  C     C_R   0.000003 0.500004 0.645046 0.139474
C161  C     C_R   0.781360 0.039014 0.014320 -0.040417
C162  C     C_R   0.961049 0.781360 0.014350 -0.040372
C163  C     C_R   0.218636 0.961071 0.014357 -0.040450
C164  C     C_R   0.038923 0.218640 0.014361 -0.040375
C165  C     C_R   0.281363 0.538992 0.514321 -0.040489
C166  C     C_R   0.461017 0.281363 0.514331 -0.040442
C167  C     C_R   0.718637 0.460993 0.514314 -0.040463
C168  C     C_R   0.538945 0.718640 0.514350 -0.040414
C169  C     C_R   0.815579 0.996210 0.999633 -0.111594
C170  C     C_R   0.003811 0.815577 0.999634 -0.111597
C171  C     C_R   0.184423 0.003821 0.999636 -0.111461
C172  C     C_R   0.996180 0.184424 0.999635 -0.111501
C173  C     C_R   0.315578 0.496198 0.499628 -0.111474
C174  C     C_R   0.503806 0.315579 0.499634 -0.111518
C175  C     C_R   0.684422 0.503799 0.499628 -0.111482
C176  C     C_R   0.496180 0.684422 0.499639 -0.111543
C177  C     C_R   0.783845 0.951300 0.983693 0.246844
C178  C     C_R   0.048681 0.783840 0.983673 0.246879
C179  C     C_R   0.216163 0.048677 0.983668 0.246903
C180  C     C_R   0.951328 0.216161 0.983664 0.246939
C181  C     C_R   0.283838 0.451333 0.483663 0.246930
C182  C     C_R   0.548700 0.283843 0.483687 0.246803
C183  C     C_R   0.716162 0.548668 0.483666 0.246910
C184  C     C_R   0.451300 0.716157 0.483685 0.246854
C185  C     C_R   0.718473 0.952252 0.982573 -0.122960
C186  C     C_R   0.047718 0.718468 0.982552 -0.122999
C187  C     C_R   0.281535 0.047707 0.982547 -0.123045
C188  C     C_R   0.952294 0.281533 0.982544 -0.122996
C189  C     C_R   0.218466 0.452299 0.482541 -0.123072
C190  C     C_R   0.547740 0.218471 0.482566 -0.123029
C191  C     C_R   0.781534 0.547703 0.482545 -0.123062
C192  C     C_R   0.452267 0.781529 0.482561 -0.123003
Cu1   Cu    Cu3+1 1.000000 1.000000 0.028100 1.111861
Cu2   Cu    Cu3+1 0.500000 0.500000 0.528100 1.111981
Cu3   Cu    Cu3+1 1.000000 1.000000 0.971820 1.179088
Cu4   Cu    Cu3+1 0.500000 0.500000 0.471820 1.179102
Cu5   Cu    Cu3+1 0.500040 0.061910 0.999920 1.073028
Cu6   Cu    Cu3+1 0.938090 0.500040 0.999920 1.073276
Cu7   Cu    Cu3+1 0.499960 0.938090 0.999920 1.073535
Cu8   Cu    Cu3+1 0.061910 0.499960 0.999920 1.073354
Cu9   Cu    Cu3+1 0.000040 0.561910 0.499920 1.073405
Cu10  Cu    Cu3+1 0.438090 0.000040 0.499920 1.073404
Cu11  Cu    Cu3+1 0.999960 0.438090 0.499920 1.073332
Cu12  Cu    Cu3+1 0.561910 0.999960 0.499920 1.073399
H1    H     H_    0.810616 0.134108 0.017073 0.203983
H2    H     H_    0.865981 0.810654 0.017160 0.204129
H3    H     H_    0.189305 0.866019 0.017179 0.204162
H4    H     H_    0.133986 0.189328 0.017157 0.204064
H5    H     H_    0.310663 0.634045 0.517233 0.204110
H6    H     H_    0.365950 0.310661 0.517127 0.204114
H7    H     H_    0.689342 0.365938 0.517227 0.204107
H8    H     H_    0.634014 0.689330 0.517121 0.204135
H9    H     H_    0.148443 0.456465 0.222788 0.221542
H10   H     H_    0.543470 0.148474 0.222790 0.221541
H11   H     H_    0.851549 0.543514 0.222788 0.221543
H12   H     H_    0.456531 0.851543 0.222786 0.221545
H13   H     H_    0.648469 0.956547 0.722787 0.221545
H14   H     H_    0.043699 0.648402 0.722792 0.221543
H15   H     H_    0.351524 0.043417 0.722788 0.221545
H16   H     H_    0.956305 0.351603 0.722788 0.221543
N1    N     N_R   0.999996 0.499991 0.175486 -0.493088
N2    N     N_R   0.500001 0.000009 0.175486 -0.493088
N3    N     N_R   0.499996 0.999984 0.675485 -0.493090
N4    N     N_R   0.000003 0.500003 0.675488 -0.493086
N5    N     N_R   0.500000 0.999988 0.822851 -0.455808
N6    N     N_R   0.000000 0.500001 0.822852 -0.455817
N7    N     N_R   0.999996 0.499992 0.322852 -0.455812
N8    N     N_R   0.500000 0.000007 0.322852 -0.455809
O1    O     O_R   0.000030 0.909910 0.023730 -0.573264
O2    O     O_R   0.090090 0.000030 0.023730 -0.573252
O3    O     O_R   0.999970 0.090090 0.023730 -0.573316
O4    O     O_R   0.909910 0.999970 0.023730 -0.573369
O5    O     O_R   0.500030 0.409910 0.523730 -0.573289
O6    O     O_R   0.590090 0.500030 0.523730 -0.573296
O7    O     O_R   0.499970 0.590090 0.523730 -0.573273
O8    O     O_R   0.409910 0.499970 0.523730 -0.573295
O9    O     O_R   0.000060 0.909970 0.976200 -0.535411
O10   O     O_R   0.090030 0.000060 0.976200 -0.535428
O11   O     O_R   0.999940 0.090030 0.976200 -0.535443
O12   O     O_R   0.909970 0.999940 0.976200 -0.535426
O13   O     O_R   0.500060 0.409970 0.476200 -0.535434
O14   O     O_R   0.590030 0.500060 0.476200 -0.535421
O15   O     O_R   0.499940 0.590030 0.476200 -0.535433
O16   O     O_R   0.409970 0.499940 0.476200 -0.535425
O17   O     O_R   0.500060 0.052300 0.958860 -0.571888
O18   O     O_R   0.947700 0.500060 0.958860 -0.571948
O19   O     O_R   0.499940 0.947700 0.958860 -0.571964
O20   O     O_R   0.052300 0.499940 0.958860 -0.571946
O21   O     O_R   0.000060 0.552300 0.458860 -0.571979
O22   O     O_R   0.447700 0.000060 0.458860 -0.571969
O23   O     O_R   0.999940 0.447700 0.458860 -0.571983
O24   O     O_R   0.552300 0.999940 0.458860 -0.571949
O25   O     O_R   0.590210 0.052300 0.999920 -0.550825
O26   O     O_R   0.947700 0.590210 0.999920 -0.550507
O27   O     O_R   0.409790 0.947700 0.999920 -0.550149
O28   O     O_R   0.052300 0.409790 0.999920 -0.550401
O29   O     O_R   0.090210 0.552300 0.499920 -0.550358
O30   O     O_R   0.447700 0.090210 0.499920 -0.550346
O31   O     O_R   0.909790 0.447700 0.499920 -0.550440
O32   O     O_R   0.552300 0.909790 0.499920 -0.550339
O33   O     O_R   0.590210 0.947930 0.999950 -0.616083
O34   O     O_R   0.052070 0.590210 0.999950 -0.616118
O35   O     O_R   0.409790 0.052070 0.999950 -0.616131
O36   O     O_R   0.947930 0.409790 0.999950 -0.616116
O37   O     O_R   0.090210 0.447930 0.499950 -0.616183
O38   O     O_R   0.552070 0.090210 0.499950 -0.616181
O39   O     O_R   0.909790 0.552070 0.499950 -0.616170
O40   O     O_R   0.447930 0.909790 0.499950 -0.616167
O41   O     O_R   0.500010 0.052300 0.040980 -0.563906
O42   O     O_R   0.947700 0.500010 0.040980 -0.563438
O43   O     O_R   0.499990 0.947700 0.040980 -0.562904
O44   O     O_R   0.052300 0.499990 0.040980 -0.563294
O45   O     O_R   0.000010 0.552300 0.540980 -0.563301
O46   O     O_R   0.447700 0.000010 0.540980 -0.563290
O47   O     O_R   0.999990 0.447700 0.540980 -0.563399
O48   O     O_R   0.552300 0.999990 0.540980 -0.563233
O49   O     O_2   0.897395 0.533995 0.175077 -0.496565
O50   O     O_2   0.466034 0.897393 0.175075 -0.496543
O51   O     O_2   0.102598 0.465986 0.175076 -0.496556
O52   O     O_2   0.533968 0.102624 0.175078 -0.496583
O53   O     O_2   0.397374 0.033923 0.675076 -0.496551
O54   O     O_2   0.965871 0.397442 0.675077 -0.496565
O55   O     O_2   0.602618 0.966043 0.675075 -0.496538
O56   O     O_2   0.034135 0.602564 0.675080 -0.496566
O57   O     O_2   0.605616 0.981079 0.823986 -0.424137
O58   O     O_2   0.019052 0.605594 0.823989 -0.424113
O59   O     O_2   0.394384 0.018896 0.823987 -0.424120
O60   O     O_2   0.980947 0.394409 0.823986 -0.424105
O61   O     O_2   0.105603 0.481029 0.323987 -0.424118
O62   O     O_2   0.518924 0.105622 0.323989 -0.424131
O63   O     O_2   0.894389 0.518955 0.323987 -0.424118
O64   O     O_2   0.481075 0.894393 0.323985 -0.424127
C193  C     C_2   0.049598 0.603442 0.146526 0.525091
H17   H     H_    0.065032 0.598650 0.168155 0.074836
O65   O     O_2   0.047389 0.655026 0.136413 -0.476790
C194  C     C_2   0.396538 0.049575 0.146523 0.524958
H18   H     H_    0.401326 0.065017 0.168151 0.074917
O66   O     O_2   0.344955 0.047344 0.136409 -0.477116
C195  C     C_2   0.950397 0.396543 0.146520 0.525047
H19   H     H_    0.934954 0.401336 0.168148 0.074863
O67   O     O_2   0.952613 0.344959 0.136406 -0.476876
C196  C     C_2   0.603464 0.950439 0.146522 0.525220
H20   H     H_    0.598681 0.935011 0.168152 0.074758
O68   O     O_2   0.655045 0.952659 0.136406 -0.476451
C197  C     C_2   0.549523 0.103473 0.646527 0.525079
H21   H     H_    0.564965 0.098688 0.668154 0.074852
O69   O     O_2   0.547270 0.155057 0.636415 -0.476872
C198  C     C_2   0.896628 0.549756 0.646526 0.525007
H22   H     H_    0.901439 0.565169 0.668157 0.074886
O70   O     O_2   0.845043 0.547640 0.636409 -0.476922
C199  C     C_2   0.450471 0.896502 0.646518 0.525052
H23   H     H_    0.435022 0.901284 0.668145 0.074873
O71   O     O_2   0.452727 0.844919 0.636404 -0.476931
C200  C     C_2   0.103379 0.450251 0.646525 0.524976
H24   H     H_    0.098569 0.434844 0.668157 0.074902
O72   O     O_2   0.154962 0.452359 0.636406 -0.476998
Br1   Br    Br    0.686581 0.947742 0.779852 -0.266813
Br2   Br    Br    0.052564 0.686498 0.779859 -0.266796
Br3   Br    Br    0.313415 0.052224 0.779854 -0.266797
Br4   Br    Br    0.947438 0.313506 0.779853 -0.266792
Br5   Br    Br    0.186549 0.447638 0.279854 -0.266804
Br6   Br    Br    0.552281 0.186583 0.279856 -0.266812
Br7   Br    Br    0.813443 0.552341 0.279854 -0.266798
Br8   Br    Br    0.447718 0.813433 0.279851 -0.266804
Br9   Br    Br    0.496089 0.131784 0.846939 -0.372321
Br10  Br    Br    0.868200 0.496207 0.846943 -0.372300
Br11  Br    Br    0.503917 0.868196 0.846942 -0.372337
Br12  Br    Br    0.131800 0.503796 0.846943 -0.372313
Br13  Br    Br    0.996139 0.631791 0.346941 -0.372320
Br14  Br    Br    0.368205 0.996101 0.346942 -0.372330
Br15  Br    Br    0.003854 0.368197 0.346942 -0.372315
Br16  Br    Br    0.631794 0.003916 0.346941 -0.372342
C201  C     C_2   0.484314 0.116375 0.911408 0.534550
H25   H     H_    0.517405 0.153192 0.908564 0.096583
O73   O     O_2   0.437191 0.126227 0.924640 -0.489081
C202  C     C_2   0.883611 0.484386 0.911409 0.534546
H26   H     H_    0.846821 0.517512 0.908575 0.096544
O74   O     O_2   0.873723 0.437256 0.924631 -0.489029
C203  C     C_2   0.515711 0.883620 0.911410 0.534500
H27   H     H_    0.482633 0.846793 0.908563 0.096570
O75   O     O_2   0.562831 0.873784 0.924646 -0.488992
C204  C     C_2   0.116389 0.515623 0.911410 0.534536
H28   H     H_    0.153183 0.482505 0.908571 0.096553
O76   O     O_2   0.126270 0.562750 0.924636 -0.489013
C205  C     C_2   0.984346 0.616382 0.411409 0.534515
H29   H     H_    0.017453 0.653187 0.408568 0.096545
O77   O     O_2   0.937220 0.626250 0.424638 -0.489031
C206  C     C_2   0.383622 0.984312 0.411409 0.534525
H30   H     H_    0.346807 0.017404 0.408569 0.096566
O78   O     O_2   0.373770 0.937184 0.424638 -0.489069
C207  C     C_2   0.015649 0.383613 0.411409 0.534520
H31   H     H_    0.982538 0.346811 0.408571 0.096542
O79   O     O_2   0.062777 0.373744 0.424635 -0.489048
C208  C     C_2   0.616378 0.015710 0.411410 0.534509
H32   H     H_    0.653203 0.982630 0.408561 0.096577
O80   O     O_2   0.626217 0.062831 0.424647 -0.489026
Br17  Br    Br    0.829328 0.886413 0.965135 -0.424699
Br18  Br    Br    0.113547 0.829318 0.965096 -0.424510
Br19  Br    Br    0.170691 0.113535 0.965084 -0.424505
Br20  Br    Br    0.886491 0.170684 0.965064 -0.424492
Br21  Br    Br    0.329311 0.386463 0.465087 -0.424559
Br22  Br    Br    0.613589 0.329324 0.465129 -0.424642
Br23  Br    Br    0.670689 0.613538 0.465090 -0.424569
Br24  Br    Br    0.386421 0.670675 0.465119 -0.424569
C209  C     C_2   0.686242 0.907894 0.963985 0.508969
H33   H     H_    0.649812 0.878911 0.972070 0.115446
O81   O     O_2   0.700380 0.903480 0.939143 -0.420172
C210  C     C_2   0.092030 0.686230 0.963944 0.508737
H34   H     H_    0.121004 0.649777 0.972012 0.115539
O82   O     O_2   0.096416 0.700385 0.939103 -0.420179
C211  C     C_2   0.313776 0.092005 0.963932 0.508721
H35   H     H_    0.350233 0.120983 0.971996 0.115573
O83   O     O_2   0.299617 0.096374 0.939091 -0.420137
C212  C     C_2   0.908004 0.313774 0.963926 0.508663
H36   H     H_    0.879026 0.350232 0.971988 0.115574
O84   O     O_2   0.903643 0.299618 0.939084 -0.420183
C213  C     C_2   0.186226 0.407984 0.463935 0.508692
H37   H     H_    0.149766 0.379018 0.472002 0.115550
O85   O     O_2   0.200387 0.403585 0.439096 -0.420138
C214  C     C_2   0.592082 0.186237 0.463971 0.508850
H38   H     H_    0.621060 0.149797 0.472050 0.115471
O86   O     O_2   0.596492 0.200385 0.439130 -0.420142
C215  C     C_2   0.813773 0.592021 0.463940 0.508749
H39   H     H_    0.850222 0.620999 0.472010 0.115535
O87   O     O_2   0.799623 0.596408 0.439098 -0.420145
C216  C     C_2   0.407958 0.813761 0.463951 0.508748
H40   H     H_    0.378994 0.850226 0.472014 0.115539
O88   O     O_2   0.403566 0.799588 0.439112 -0.420159
C217  C     C_2   0.692213 0.152005 0.010132 0.417216
H41   H     H_    0.711348 0.157958 0.989146 0.107569
O89   O     O_2   0.651920 0.187022 0.018134 -0.500160
C218  C     C_2   0.848001 0.692267 0.010224 0.418227
H42   H     H_    0.842011 0.711392 0.989237 0.107300
O90   O     O_2   0.812966 0.652014 0.018251 -0.499804
C219  C     C_2   0.307679 0.847982 0.010244 0.419195
H43   H     H_    0.288566 0.841997 0.989255 0.106999
O91   O     O_2   0.347890 0.812913 0.018284 -0.499471
C220  C     C_2   0.151989 0.307709 0.010219 0.418497
H44   H     H_    0.157956 0.288588 0.989229 0.107189
O92   O     O_2   0.187050 0.347942 0.018245 -0.499704
C221  C     C_2   0.192265 0.652058 0.510324 0.418653
H45   H     H_    0.211399 0.658176 0.489347 0.107124
O93   O     O_2   0.151995 0.687032 0.518390 -0.499608
C222  C     C_2   0.347968 0.192272 0.510193 0.418471
H46   H     H_    0.341966 0.211417 0.489212 0.107211
O94   O     O_2   0.312953 0.151993 0.518210 -0.499709
C223  C     C_2   0.807740 0.347934 0.510316 0.418433
H47   H     H_    0.788605 0.341816 0.489338 0.107199
O95   O     O_2   0.848014 0.312962 0.518380 -0.499683
C224  C     C_2   0.652006 0.807707 0.510178 0.418690
H48   H     H_    0.657936 0.788597 0.489184 0.107157
O96   O     O_2   0.687090 0.847928 0.518198 -0.499656
C225  C     C_2   0.683327 0.097122 0.057086 0.478609
H49   H     H_    0.688568 0.134499 0.072066 0.114130
O97   O     O_2   0.651169 0.053189 0.063284 -0.579743
C226  C     C_2   0.903024 0.683333 0.057139 0.479188
H50   H     H_    0.865988 0.689052 0.072249 0.113553
O98   O     O_2   0.946593 0.650571 0.063171 -0.579724
C227  C     C_2   0.316660 0.903052 0.057145 0.479751
H51   H     H_    0.310474 0.866316 0.072369 0.112928
O99   O     O_2   0.350016 0.946257 0.063032 -0.579516
C228  C     C_2   0.096988 0.316671 0.057137 0.479375
H52   H     H_    0.133946 0.310810 0.072276 0.113343
O100  O     O_2   0.053534 0.349619 0.063131 -0.579628
C229  C     C_2   0.183343 0.596783 0.557176 0.479377
H53   H     H_    0.189283 0.633601 0.572381 0.113272
O101  O     O_2   0.150309 0.553352 0.563095 -0.579843
C230  C     C_2   0.402968 0.183340 0.557113 0.479372
H54   H     H_    0.366007 0.189197 0.572251 0.113320
O102  O     O_2   0.446430 0.150404 0.563110 -0.579636
C231  C     C_2   0.816658 0.403203 0.557171 0.479235
H55   H     H_    0.810815 0.366316 0.572350 0.113395
O103  O     O_2   0.849572 0.446716 0.563122 -0.579842
C232  C     C_2   0.597067 0.816667 0.557113 0.479470
H56   H     H_    0.633994 0.810733 0.572258 0.113269
O104  O     O_2   0.553690 0.849713 0.563099 -0.579574
C233  C     C_2   0.816001 0.088983 0.058516 0.473415
H57   H     H_    0.800450 0.052122 0.072228 0.113143
O105  O     O_2   0.857474 0.122674 0.066367 -0.496033
C234  C     C_2   0.911233 0.816011 0.058577 0.473093
H58   H     H_    0.948098 0.800414 0.072270 0.112574
O106  O     O_2   0.877624 0.857530 0.066443 -0.495713
C235  C     C_2   0.183977 0.911301 0.058590 0.472603
H59   H     H_    0.199594 0.948168 0.072278 0.112065
O107  O     O_2   0.142442 0.877717 0.066461 -0.495663
C236  C     C_2   0.088761 0.183990 0.058581 0.472909
H60   H     H_    0.051909 0.199598 0.072279 0.112449
O108  O     O_2   0.122366 0.142464 0.066443 -0.495868
C237  C     C_2   0.316022 0.588583 0.558601 0.472824
H61   H     H_    0.300436 0.551638 0.572253 0.112344
O109  O     O_2   0.357532 0.622163 0.566506 -0.495704
C238  C     C_2   0.411175 0.316021 0.558550 0.472851
H62   H     H_    0.448025 0.300418 0.572250 0.112436
O110  O     O_2   0.377570 0.357551 0.566408 -0.495870
C239  C     C_2   0.683982 0.411405 0.558595 0.472920
H63   H     H_    0.699569 0.448351 0.572247 0.112458
O111  O     O_2   0.642471 0.377827 0.566499 -0.495733
C240  C     C_2   0.588843 0.683984 0.558558 0.472789
H64   H     H_    0.552016 0.699594 0.572269 0.112341
O112  O     O_2   0.622450 0.642451 0.566407 -0.495835
C241  C     C_2   0.071618 0.590992 0.084774 0.546151
H65   H     H_    0.058461 0.606648 0.063920 0.090467
O113  O     O_2   0.120414 0.608873 0.094520 -0.479872
C242  C     C_2   0.408972 0.071570 0.084768 0.545441
H66   H     H_    0.393311 0.058387 0.063918 0.090491
O114  O     O_2   0.391077 0.120366 0.094509 -0.479919
C243  C     C_2   0.928397 0.408992 0.084767 0.545965
H67   H     H_    0.941568 0.393333 0.063914 0.090459
O115  O     O_2   0.879598 0.391108 0.094508 -0.479877
C244  C     C_2   0.591000 0.928395 0.084771 0.546801
H68   H     H_    0.606640 0.941543 0.063913 0.090419
O116  O     O_2   0.608896 0.879610 0.094521 -0.479854
C245  C     C_2   0.571548 0.091044 0.584773 0.545928
H69   H     H_    0.558382 0.106683 0.563917 0.090380
O117  O     O_2   0.620327 0.108969 0.594520 -0.479862
C246  C     C_2   0.909111 0.571752 0.584776 0.546043
H70   H     H_    0.893404 0.558599 0.563929 0.090566
O118  O     O_2   0.891334 0.620592 0.594516 -0.479831
C247  C     C_2   0.428472 0.908932 0.584763 0.545817
H71   H     H_    0.441656 0.893290 0.563909 0.090335
O119  O     O_2   0.379688 0.891005 0.594503 -0.479865
C248  C     C_2   0.090896 0.428259 0.584774 0.545903
H72   H     H_    0.106607 0.441418 0.563929 0.090566
O120  O     O_2   0.108669 0.379416 0.594511 -0.479838

loop_
_geom_bond_atom_site_label_1
_geom_bond_atom_site_label_2
_ccdc_geom_bond_type
Cu2   Cu4   S    
C31   C223  S    
C229  H53   S    
C108  C120  A    
Cu3   O10   S    
C66   N2    A    
Cu8   O20   S    
C79   C87   A    
C233  H57   S    
C30   C230  S    
C52   C144  S    
C170  C178  A    
C4    O4    A    
C175  C183  A    
C112  C124  A    
C33   C233  S    
C95   C99   A    
C123  N7    A    
C8    O16   A    
C78   C88   A    
C72   N4    A    
C30   C38   S    
C187  C211  S    
C5    C174  S    
Cu5   Cu7   S    
C39   C239  S    
C107  C113  A    
C91   H11   S    
C124  N8    A    
C242  H66   S    
C237  O109  D    
C95   H15   S    
C72   O56   S    
Cu1   O1    S    
C2    C171  S    
C97   C105  A    
C149  C197  S    
C225  O97   D    
C106  C118  A    
C106  C114  A    
Cu1   O2    S    
Cu2   O6    S    
C50   O20   A    
C65   N1    A    
C210  H34   S    
C57   O29   A    
C38   C238  S    
C166  C174  A    
C182  C190  A    
C189  C213  S    
C29   C229  S    
C146  C194  S    
C204  H28   S    
C32   C224  S    
C20   C28   S    
C27   C35   S    
C200  H24   S    
C201  H25   S    
C21   C29   S    
C35   C163  S    
C23   C31   S    
C33   C161  S    
C24   C32   S    
C83   C131  A    
C131  Br15  S    
C66   C76   A    
C12   C20   A    
C97   Br1   S    
C54   O26   A    
C13   C21   A    
C99   Br3   S    
Cu10  Cu12  S    
C62   O42   A    
C23   C167  A    
C63   O47   A    
C194  H18   S    
C160  N4    S    
C101  Br5   S    
C248  O120  D    
Cu11  O31   S    
C29   C221  S    
C217  H41   S    
Cu5   O41   S    
C215  H39   S    
C130  C138  A    
C110  C116  A    
C90   H10   S    
Cu7   O43   S    
Cu8   O44   S    
C15   C191  A    
C236  O108  D    
C89   C101  A    
C68   N2    A    
C91   C103  A    
C202  H26   S    
C124  O64   S    
C121  N7    A    
C34   C234  S    
C68   O52   S    
C51   C143  S    
C145  C157  A    
C134  C202  S    
C98   C106  A    
C59   O39   A    
Cu4   O13   S    
C17   C25   S    
C226  H50   S    
C60   O32   A    
C44   C154  A    
C80   C88   A    
C209  H33   S    
C109  C121  A    
C10   C18   A    
C84   C130  A    
C206  H30   S    
C12   C56   S    
C71   N3    A    
C55   O27   A    
C46   C246  S    
C235  O107  D    
C92   C104  A    
C178  C186  A    
C129  C137  A    
C126  C134  A    
C239  O111  D    
Cu6   Cu8   S    
Cu9   O39   S    
Cu1   O4    S    
C50   O18   A    
C200  O72   D    
Cu9   O45   S    
C214  H38   S    
Cu11  O47   S    
C37   H5    S    
C151  C199  S    
C40   C240  S    
C46   C150  A    
Cu12  O32   S    
C227  H51   S    
C122  O62   S    
Cu7   O27   S    
C174  C182  A    
C221  H45   S    
C21   C165  A    
C231  O103  D    
C241  H65   S    
C118  N6    A    
C82   N6    S    
C33   H1    S    
C58   O30   A    
C102  Br6   S    
Cu3   O11   S    
C42   C154  A    
C78   C94   A    
C83   C129  A    
C136  C204  S    
C25   C225  S    
C28   C220  S    
C68   C74   A    
C181  Br21  S    
C53   O33   A    
C41   C145  A    
C93   H13   S    
C16   C60   S    
Cu5   O17   S    
C67   N1    A    
C212  H36   S    
C90   C102  A    
C72   C78   A    
C139  C143  A    
C63   O45   A    
C148  C196  S    
C197  O69   D    
C135  C203  S    
C30   C222  S    
C75   C91   A    
C161  C169  A    
Cu6   O26   S    
C6    O6    A    
C157  N1    S    
Cu9   Cu11  S    
C171  C179  A    
C169  C177  A    
C198  O70   D    
C41   C153  A    
C56   O36   A    
C196  O68   D    
C100  C108  A    
C87   C113  A    
C240  H64   S    
Cu4   O15   S    
C125  Br9   S    
Cu5   O25   S    
C222  H46   S    
C3    O3    A    
C104  C112  A    
C244  H68   S    
C184  Br24  S    
C37   C165  S    
C1    O9    A    
C217  O89   D    
C84   C132  A    
C69   N3    A    
C151  C159  A    
C188  C212  S    
C193  H17   S    
C195  O67   D    
C140  C208  S    
C231  H55   S    
C122  N8    A    
C7    C176  S    
C138  C206  S    
C19   C163  A    
C38   H6    S    
C52   O24   A    
C82   C128  A    
C224  H48   S    
C17   C161  A    
Cu8   O28   S    
Cu11  O23   S    
C186  C210  S    
C147  C195  S    
C248  H72   S    
Cu9   O21   S    
C56   O28   A    
C228  H52   S    
C220  O92   D    
C69   C79   A    
C182  Br22  S    
C117  O57   S    
C93   C97   A    
C71   C77   A    
C163  C171  A    
C230  H54   S    
C119  O59   S    
C9    C17   A    
C168  C176  A    
C22   C30   S    
C81   C125  A    
Cu3   O9    S    
C238  H62   S    
C34   C162  S    
C26   C226  S    
C146  C158  A    
C245  O117  D    
C46   C156  A    
C62   C153  S    
C28   C228  S    
C98   Br2   S    
C71   O55   S    
C14   C22   A    
C199  O71   D    
C104  Br8   S    
C126  Br10  S    
C138  C144  A    
Cu10  O40   S    
C74   C90   A    
C96   C100  A    
C194  O66   D    
C10   C186  A    
C223  O95   D    
Cu9   O29   S    
C213  O85   D    
C164  C172  A    
C2    O2    A    
C14   C190  A    
C135  C141  A    
C77   C87   A    
C150  C198  S    
C237  H61   S    
C3    O11   A    
C6    O14   A    
C190  C214  S    
C67   O51   S    
C49   O17   A    
C50   C142  S    
C25   C33   S    
C147  C157  A    
C225  H49   S    
C120  N6    A    
C52   O22   A    
C247  H71   S    
C18   C26   S    
C112  C116  A    
Cu2   O7    S    
C59   O31   A    
C61   C154  S    
C210  O82   D    
C232  H56   S    
C64   C155  S    
C11   C19   A    
C150  C160  A    
C167  C175  A    
C227  O99   D    
C127  C135  A    
C63   C156  S    
C128  C136  A    
C204  O76   D    
C3    C172  S    
C179  C187  A    
C6    C175  S    
C94   C98   A    
C101  C109  A    
C211  H35   S    
C20   C164  A    
C1    C170  S    
C177  C185  A    
C234  H58   S    
C103  C111  A    
C108  C114  A    
C82   C126  A    
C136  C142  A    
C180  C188  A    
C181  C189  A    
Cu10  O46   S    
C207  H31   S    
C192  C216  S    
C49   C141  S    
C70   N4    A    
C184  C192  A    
C67   C73   A    
C205  O77   D    
C123  O63   S    
C172  C180  A    
C201  O73   D    
C48   C156  A    
C173  C181  A    
C239  H63   S    
C81   C127  A    
C41   C241  S    
C229  O101  D    
C105  C117  A    
C53   O25   A    
C60   O40   A    
C107  C119  A    
C246  H70   S    
C233  O105  D    
C177  Br17  S    
C14   C58   S    
C7    O7    A    
C26   C218  S    
C179  Br19  S    
C85   C115  A    
C202  O74   D    
C176  C184  A    
C64   O46   A    
C111  C123  A    
C34   H2    S    
Cu4   O14   S    
C226  O98   D    
C195  H19   S    
C79   C95   A    
C134  C142  A    
Cu8   O34   S    
C203  H27   S    
C130  Br14  S    
C206  O78   D    
C4    O12   A    
C49   O19   A    
C103  Br7   S    
C36   C236  S    
C8    O8    A    
C35   C235  S    
C47   C151  A    
C48   C152  A    
C65   O49   S    
C55   O35   A    
C102  C110  A    
C9    C53   S    
Cu1   O3    S    
Cu2   O5    S    
C42   C146  A    
C76   C86   A    
C11   C55   S    
C214  O86   D    
C137  C205  S    
C38   C166  S    
C246  O118  D    
C27   C227  S    
C15   C59   S    
C120  O60   S    
C140  C144  A    
C183  Br23  S    
C218  H42   S    
C219  H43   S    
C207  O79   D    
C132  C140  A    
C99   C107  A    
C40   H8    S    
C133  C141  A    
C209  O81   D    
C216  H40   S    
C73   C89   A    
Cu5   O35   S    
C70   O54   S    
C110  C122  A    
Cu6   O36   S    
C18   C162  A    
C32   C232  S    
C31   C231  S    
Cu6   O18   S    
C77   C93   A    
C92   H12   S    
C88   C114  A    
C212  O84   D    
C118  O58   S    
C13   C57   S    
C28   C36   S    
C197  H21   S    
C29   C37   S    
C36   C164  S    
C43   C153  A    
C61   O43   A    
C27   C219  S    
C127  Br11  S    
C37   C237  S    
C199  H23   S    
C152  C160  A    
C236  H60   S    
C96   H16   S    
C48   C248  S    
C89   H9    S    
C216  O88   D    
C129  Br13  S    
C13   C189  A    
C83   N7    S    
C64   O48   A    
C117  N5    A    
C81   N5    S    
Cu4   O16   S    
C11   C187  A    
C152  C200  S    
C24   C168  A    
C222  O94   D    
C9    C185  A    
Cu10  O30   S    
C36   H4    S    
C244  O116  D    
C132  Br16  S    
C139  C207  S    
C165  C173  A    
C12   C188  A    
C94   H14   S    
C45   C245  S    
C86   C116  A    
C47   C247  S    
C16   C192  A    
C26   C34   S    
C191  C215  S    
C31   C39   S    
C211  O83   D    
C162  C170  A    
C105  C113  A    
C223  H47   S    
C128  Br12  S    
C45   C155  A    
C22   C166  A    
C80   C96   A    
C19   C27   S    
C224  O96   D    
C44   C244  S    
Cu7   O19   S    
C15   C23   A    
C137  C143  A    
C57   O37   A    
C16   C24   A    
C5    O5    A    
C228  O100  D    
C240  O112  D    
C51   O21   A    
C221  O93   D    
C230  O102  D    
C241  O113  D    
C69   O53   S    
Cu6   O42   S    
C4    C169  S    
C54   O34   A    
Cu3   O12   S    
C131  C139  A    
C238  O110  D    
Cu11  O37   S    
C43   C243  S    
C8    C173  S    
C2    O10   A    
Cu1   Cu3   S    
C245  H69   S    
C215  O87   D    
C243  H67   S    
C58   O38   A    
C178  Br18  S    
C39   H7    S    
C70   C80   A    
C148  C158  A    
C74   C86   A    
C149  C159  A    
C218  O90   D    
Cu12  O48   S    
C213  H37   S    
C100  Br4   S    
C76   C92   A    
C242  O114  D    
C203  O75   D    
C208  H32   S    
C208  O80   D    
C84   N8    S    
C51   O23   A    
C198  H22   S    
C119  N5    A    
C75   C85   A    
C73   C85   A    
C125  C133  A    
C196  H20   S    
C185  C209  S    
C243  O115  D    
C180  Br20  S    
Cu2   O8    S    
C183  C191  A    
Cu7   O33   S    
C232  O104  D    
C247  O119  D    
C42   C242  S    
Cu12  O38   S    
C65   C75   A    
C121  O61   S    
C61   O41   A    
C235  H59   S    
C193  O65   D    
C145  C193  S    
C219  O91   D    
C47   C155  A    
C159  N3    S    
C44   C148  A    
C234  O106  D    
C66   O50   S    
C45   C149  A    
C32   C40   S    
C39   C167  S    
C10   C54   S    
C40   C168  S    
C43   C147  A    
C109  C115  A    
C133  C201  S    
Cu12  O24   S    
C1    O1    A    
C35   H3    S    
C158  N2    S    
C7    O15   A    
C25   C217  S    
Cu10  O22   S    
C220  H44   S    
C111  C115  A    
C5    O13   A    
C205  H29   S    
C62   O44   A    
