data_mof_unit_24571.cif
_audit_creation_date              2012-10-26T21:24:50-0400
_audit_creation_method            fapswitch 2.2
_symmetry_space_group_name_H-M    P1
_symmetry_Int_Tables_number       1
_space_group_crystal_system       triclinic
_cell_length_a                    9.89615
_cell_length_b                    11.121071
_cell_length_c                    16.245471
_cell_angle_alpha                 89.973825
_cell_angle_beta                  72.825403
_cell_angle_gamma                 91.107124
_cell_volume                      1707.82972739

loop_
_atom_site_label
_atom_site_type_symbol
_atom_type_description
_atom_site_fract_x
_atom_site_fract_y
_atom_site_fract_z
_atom_type_partial_charge
C1    C     C_R   0.996970 0.263090 0.502554 0.529195
C2    C     C_R   0.251035 0.489536 0.052829 0.090708
C3    C     C_R   0.348639 0.488068 0.101313 -0.011181
C4    C     C_R   0.915932 0.504895 0.670215 0.538347
C5    C     C_R   0.106073 0.481962 0.092459 0.222406
C6    C     C_R   0.050273 0.487687 0.182705 -0.118414
C7    C     C_R   0.290980 0.471739 0.193200 -0.145001
C8    C     C_R   0.113818 0.062948 0.492613 0.020712
C9    C     C_R   0.992458 0.129633 0.502625 -0.000716
C10   C     C_R   0.867198 0.061421 0.508979 -0.156657
C11   C     C_R   0.869346 0.933213 0.506378 -0.155225
C12   C     C_R   0.683320 0.509090 0.912082 0.027046
C13   C     C_R   0.997020 0.869638 0.496957 0.006970
C14   C     C_R   0.117120 0.941092 0.487635 0.006765
C15   C     C_3   0.270794 0.937985 0.480964 -0.251935
C16   C     C_R   0.000478 0.736350 0.498629 0.540456
C17   C     C_3   0.261218 0.074512 0.497734 -0.117680
C18   C     C_R   0.597099 0.566134 0.445063 0.160887
C19   C     C_R   0.545583 0.433154 0.559214 -0.024816
C20   C     C_R   0.396296 0.438198 0.561017 -0.029795
C21   C     C_R   0.460093 0.565936 0.444681 0.162807
C22   C     C_3   0.489254 0.656415 0.368175 -0.270996
C23   C     C_R   0.788335 0.497775 0.954980 0.078312
C24   C     C_3   0.647470 0.653704 0.368797 -0.272676
C25   C     C_R   0.084567 0.493572 0.329900 0.541872
C26   C     C_R   0.866582 0.507892 0.766539 0.004795
C27   C     C_R   0.141801 0.484491 0.234123 -0.033811
C28   C     C_R   0.926970 0.491171 0.897189 -0.112941
C29   C     C_R   0.965872 0.491212 0.808629 -0.170302
C30   C     C_R   0.724371 0.524793 0.818236 -0.129523
C31   C     C_3   0.254027 0.107764 0.591209 -0.237725
C32   C     C_3   0.400051 0.142043 0.598218 -0.296506
C33   C     C_3   0.383272 0.193026 0.689615 -0.420562
C34   C     C_R   0.539815 0.496918 0.962192 0.031975
C35   C     C_R   0.499163 0.496858 0.055206 0.031152
C36   C     C_R   0.609005 0.511598 0.098719 -0.144380
C37   C     C_R   0.752056 0.495829 0.051429 -0.106134
C38   C     C_R   0.437009 0.476662 0.918929 -0.162233
C39   C     C_R   0.296050 0.488610 0.964357 -0.111138
Cu1   Cu    Cu3+1 0.140670 0.499980 0.500000 0.949430
Cu2   Cu    Cu3+1 0.859330 0.500020 0.500000 0.952069
H1    H     H_    0.837352 0.493717 0.092597 0.176857
H2    H     H_    0.358305 0.432419 0.232131 0.129384
H3    H     H_    0.440141 0.747676 0.392359 0.121207
H4    H     H_    0.721096 0.608284 0.309781 0.132721
H5    H     H_    0.683248 0.743877 0.389588 0.131774
H6    H     H_    0.935193 0.491164 0.212076 0.116015
H7    H     H_    0.229315 0.502774 0.928199 0.156325
H8    H     H_    0.017246 0.479177 0.908447 0.184036
H9    H     H_    0.077691 0.480439 0.773370 0.122280
H10   H     H_    0.648879 0.560419 0.784292 0.117043
H11   H     H_    0.584952 0.550269 0.166092 0.097375
H12   H     H_    0.767370 0.106502 0.517107 0.130186
H13   H     H_    0.465093 0.444413 0.849996 0.101765
H14   H     H_    0.962286 0.398131 0.056893 0.304296
H15   H     H_    0.276818 0.243580 0.722505 0.127519
H16   H     H_    0.389986 0.117530 0.735193 0.158907
H17   H     H_    0.474774 0.266835 0.681557 0.113952
H18   H     H_    0.476272 0.065372 0.582192 0.150932
H19   H     H_    0.444294 0.213685 0.549967 0.156925
H20   H     H_    0.182208 0.187161 0.612149 0.166867
H21   H     H_    0.208231 0.031751 0.636888 0.152532
H22   H     H_    0.771100 0.884235 0.512190 0.132081
H23   H     H_    0.296412 0.880744 0.531381 0.142394
H24   H     H_    0.330286 0.913360 0.411795 0.112671
H25   H     H_    0.332906 0.130921 0.444876 0.146298
H26   H     H_    0.578943 0.378209 0.607059 0.110540
H27   H     H_    0.317308 0.388078 0.610192 0.122563
H28   H     H_    0.470534 0.621876 0.305413 0.129434
N1    N     N_R   0.648210 0.500930 0.499430 -0.240624
N2    N     N_R   0.352300 0.500890 0.499430 -0.241725
O1    O     O_R   0.118810 0.319640 0.500000 -0.512552
O2    O     O_R   0.881230 0.319680 0.499990 -0.509620
O3    O     O_R   0.055580 0.499970 0.629840 -0.516871
O4    O     O_R   0.818000 0.500010 0.629830 -0.515119
O5    O     O_R   0.118770 0.680320 0.500010 -0.499948
O6    O     O_R   0.881190 0.680360 0.500000 -0.510777
O7    O     O_R   0.182000 0.499990 0.370170 -0.506751
O8    O     O_R   0.944420 0.500030 0.370160 -0.506250
O9    O     O_3   0.016453 0.472653 0.042001 -0.800202

loop_
_geom_bond_atom_site_label_1
_geom_bond_atom_site_label_2
_ccdc_geom_bond_type
C18   N1    A    
C30   H10   S    
C33   H17   S    
Cu1   N2    S    
C18   C21   A    
C31   H20   S    
C19   C20   A    
C12   C23   A    
C17   H25   S    
C21   N2    A    
C18   C24   S    
C24   H4    S    
C28   C29   A    
C34   C35   A    
C3    C7    A    
Cu2   O6    S    
C38   C39   A    
C15   H24   S    
C7    C27   A    
C16   O6    A    
C37   H1    S    
C10   H12   S    
C4    O4    A    
C2    C39   A    
C22   H3    S    
C31   C32   S    
C8    C9    A    
C8    C14   A    
C15   H23   S    
C20   N2    A    
C19   H26   S    
C7    H2    S    
C9    C10   A    
C22   H28   S    
C4    O3    A    
C36   H11   S    
C33   H15   S    
C16   O5    A    
C25   O8    A    
C13   C14   A    
C31   H21   S    
C29   H9    S    
C1    O1    A    
C6    H6    S    
C25   O7    A    
C1    C9    S    
C23   C37   A    
Cu1   O5    S    
C35   C36   A    
Cu2   O4    S    
C28   H8    S    
C6    C27   A    
C38   H13   S    
C3    C35   A    
C23   C28   A    
C5    O9    S    
Cu1   Cu2   S    
C26   C30   A    
C17   C31   S    
Cu1   O7    S    
C2    C5    A    
C32   H19   S    
C12   C34   A    
C15   C17   S    
C36   C37   A    
C33   H16   S    
Cu1   O1    S    
C12   C30   A    
C34   C38   A    
C20   H27   S    
Cu2   O8    S    
C4    C26   S    
C25   C27   S    
C11   H22   S    
C8    C17   S    
C24   H5    S    
C32   C33   S    
C2    C3    A    
C1    O2    A    
H14   O9    S    
C11   C13   A    
C5    C6    A    
Cu1   O3    S    
C22   C24   S    
C10   C11   A    
Cu2   O2    S    
C26   C29   A    
C13   C16   S    
C14   C15   S    
C39   H7    S    
C19   N1    A    
C32   H18   S    
C21   C22   S    
Cu2   N1    S    
