data_mof_unit_20611.cif
_audit_creation_date              2012-12-10T18:48:41-0500
_audit_creation_method            fapswitch 2.2
_symmetry_space_group_name_H-M    P1
_symmetry_Int_Tables_number       1
_space_group_crystal_system       triclinic
_cell_length_a                    14.745664
_cell_length_b                    15.150286
_cell_length_c                    9.765213
_cell_angle_alpha                 89.592502
_cell_angle_beta                  88.767577
_cell_angle_gamma                 89.388445
_cell_volume                      2180.87803254

loop_
_atom_site_label
_atom_site_type_symbol
_atom_type_description
_atom_site_fract_x
_atom_site_fract_y
_atom_site_fract_z
_atom_type_partial_charge
C1    C     C_R   0.114455 0.372114 0.499791 0.920917
C2    C     C_R   0.957015 0.435127 0.929887 -0.105150
C3    C     C_R   0.956327 0.435635 0.073895 -0.092448
C4    C     C_R   0.043574 0.564665 0.925873 -0.089124
C5    C     C_R   0.464907 0.070098 0.072424 -0.102497
C6    C     C_R   0.534503 0.929618 0.927578 -0.085348
C7    C     C_R   0.534901 0.929810 0.071787 -0.102461
C8    C     C_R   0.463538 0.069443 0.928338 -0.107544
C9    C     C_R   0.738786 0.331271 0.382340 0.134535
C10   C     C_R   0.174785 0.758538 0.568369 0.103713
C11   C     C_R   0.274794 0.662130 0.426159 0.109283
C12   C     C_R   0.876853 0.620933 0.500899 0.870695
C13   C     C_R   0.746360 0.318086 0.628769 0.138408
C14   C     C_R   0.173684 0.238547 0.629138 0.122715
C15   C     C_R   0.791365 0.737071 0.373601 0.113273
C16   C     C_R   0.797217 0.744699 0.627745 0.145689
C17   C     C_R   0.183222 0.239522 0.374854 0.092262
C18   C     C_R   0.341010 0.728171 0.425404 0.115946
C19   C     C_R   0.710936 0.233072 0.625691 0.120892
C20   C     C_R   0.700403 0.247023 0.373149 0.144694
C21   C     C_R   0.250190 0.805235 0.603478 0.076182
C22   C     C_R   0.760649 0.830437 0.619941 0.124619
C23   C     C_R   0.866180 0.398433 0.501722 0.866250
C24   C     C_R   0.231622 0.159370 0.382683 0.124195
C25   C     C_R   0.230648 0.163241 0.628855 0.148102
C26   C     C_R   0.756714 0.823122 0.372412 0.136916
C27   C     C_R   0.190580 0.681607 0.492809 -0.133825
C28   C     C_R   0.778595 0.354312 0.505552 -0.225652
C29   C     C_R   0.816258 0.698697 0.501911 -0.210340
C30   C     C_R   0.160410 0.284571 0.500909 -0.214678
C31   C     C_R   0.683022 0.198390 0.497558 -0.211546
C32   C     C_R   0.324975 0.801870 0.511037 -0.154709
C33   C     C_R   0.275254 0.140739 0.505218 -0.185232
C34   C     C_R   0.121866 0.617936 0.497953 0.947611
C35   C     C_R   0.723419 0.857593 0.495919 -0.230951
C36   C     C_3   0.732571 0.400047 0.267811 -0.381412
C37   C     C_3   0.634061 0.424076 0.237204 -0.928092
C38   C     C_3   0.079372 0.791753 0.607168 -0.434813
C39   C     C_3   0.024846 0.813533 0.479597 -0.879931
C40   C     C_3   0.294287 0.570894 0.364662 -0.415725
C41   C     C_3   0.318708 0.504128 0.476174 -0.890761
C42   C     C_3   0.740220 0.373554 0.758430 -0.368664
C43   C     C_3   0.643000 0.406389 0.784407 -0.898548
C44   C     C_3   0.131115 0.268481 0.766547 -0.348650
C45   C     C_R   0.634843 0.901206 0.498517 0.864946
C46   C     C_3   0.193177 0.331788 0.841192 -0.835478
C47   C     C_3   0.780096 0.682121 0.244530 -0.341690
C48   C     C_3   0.858699 0.690741 0.140437 -0.809971
C49   C     C_3   0.804119 0.700948 0.769250 -0.355104
C50   C     C_3   0.737821 0.624515 0.785197 -0.870431
C51   C     C_3   0.160629 0.274110 0.232191 -0.354862
C52   C     C_3   0.062991 0.252487 0.195621 -0.840958
C53   C     C_3   0.431065 0.716466 0.347070 -0.376211
C54   C     C_3   0.420429 0.734578 0.193965 -0.870094
C55   C     C_3   0.725047 0.174691 0.751490 -0.352715
C56   C     C_R   0.365400 0.099670 0.501729 0.904036
C57   C     C_3   0.648513 0.182322 0.858936 -0.800427
C58   C     C_3   0.691772 0.206442 0.231154 -0.361835
C59   C     C_3   0.760342 0.131065 0.210660 -0.871319
C60   C     C_3   0.256574 0.839586 0.749322 -0.385805
C61   C     C_3   0.323269 0.784169 0.832589 -0.831179
C62   C     C_3   0.763123 0.895381 0.738604 -0.369323
C63   C     C_3   0.860302 0.916446 0.778104 -0.944337
C64   C     C_3   0.228033 0.088460 0.271425 -0.392705
C65   C     C_3   0.187824 0.002884 0.328656 -0.857248
C66   C     C_3   0.231134 0.099281 0.750361 -0.393255
C67   C     C_R   0.383090 0.876508 0.502552 0.880894
C68   C     C_3   0.145256 0.043186 0.752631 -0.947862
C69   C     C_3   0.763030 0.881176 0.244513 -0.358354
C70   C     C_3   0.859930 0.914180 0.222431 -0.910447
C71   C     C_R   0.622538 0.121211 0.498687 0.878484
C72   C     C_R   0.044346 0.564146 0.070053 -0.107219
H1    H     H_    0.079369 0.615608 0.123058 0.132433
H2    H     H_    0.632461 0.477205 0.158302 0.247673
H3    H     H_    0.596981 0.366528 0.197951 0.259601
H4    H     H_    0.764767 0.462385 0.298261 0.212694
H5    H     H_    0.768931 0.378346 0.173434 0.190454
H6    H     H_    0.061780 0.861807 0.413861 0.260021
H7    H     H_    0.012142 0.753615 0.418894 0.263047
H8    H     H_    0.958363 0.843001 0.510238 0.263995
H9    H     H_    0.042524 0.743153 0.672375 0.221293
H10   H     H_    0.081304 0.853837 0.666203 0.205956
H11   H     H_    0.263149 0.498745 0.554103 0.258267
H12   H     H_    0.923951 0.382508 0.876994 0.118250
H13   H     H_    0.330420 0.438139 0.429808 0.244829
H14   H     H_    0.381600 0.524516 0.527391 0.257851
H15   H     H_    0.236210 0.546594 0.306433 0.223994
H16   H     H_    0.350052 0.570923 0.287405 0.213816
H17   H     H_    0.623010 0.452882 0.701604 0.257093
H18   H     H_    0.594130 0.351377 0.787408 0.271952
H19   H     H_    0.638615 0.441623 0.883698 0.249899
H20   H     H_    0.765398 0.336830 0.848635 0.191354
H21   H     H_    0.781619 0.433660 0.750563 0.225204
H22   H     H_    0.217211 0.385997 0.773138 0.271891
H23   H     H_    0.922139 0.383673 0.129560 0.129946
H24   H     H_    0.156110 0.361020 0.930307 0.248427
H25   H     H_    0.253551 0.295448 0.879011 0.226590
H26   H     H_    0.061456 0.294999 0.755238 0.216461
H27   H     H_    0.116524 0.213491 0.837933 0.194112
H28   H     H_    0.924876 0.695626 0.191483 0.269790
H29   H     H_    0.860100 0.632334 0.072475 0.245206
H30   H     H_    0.849846 0.749846 0.074720 0.233438
H31   H     H_    0.769718 0.611900 0.271681 0.196678
H32   H     H_    0.715751 0.700555 0.193848 0.171283
H33   H     H_    0.743525 0.578560 0.697721 0.260216
H34   H     H_    0.077895 0.616719 0.869902 0.132589
H35   H     H_    0.751439 0.587520 0.881284 0.248342
H36   H     H_    0.667120 0.650559 0.790356 0.245737
H37   H     H_    0.874570 0.681253 0.793079 0.221827
H38   H     H_    0.786194 0.745958 0.853855 0.196303
H39   H     H_    0.013904 0.285607 0.266076 0.285643
H40   H     H_    0.050166 0.273923 0.088909 0.231410
H41   H     H_    0.050715 0.180499 0.202889 0.242693
H42   H     H_    0.175955 0.344939 0.218363 0.220400
H43   H     H_    0.207028 0.245274 0.153100 0.169814
H44   H     H_    0.369353 0.690743 0.149070 0.245831
H45   H     H_    0.438199 0.126749 0.127164 0.123486
H46   H     H_    0.398502 0.803951 0.176663 0.280585
H47   H     H_    0.486414 0.723359 0.139627 0.233279
H48   H     H_    0.484230 0.760396 0.385846 0.217083
H49   H     H_    0.459950 0.649496 0.364232 0.193234
H50   H     H_    0.581780 0.191847 0.810707 0.271220
H51   H     H_    0.647125 0.121569 0.922941 0.245752
H52   H     H_    0.659378 0.238802 0.927349 0.232939
H53   H     H_    0.734714 0.105202 0.720606 0.195018
H54   H     H_    0.790392 0.190541 0.799943 0.172723
H55   H     H_    0.758595 0.084388 0.298395 0.260501
H56   H     H_    0.561030 0.872973 0.872698 0.127998
H57   H     H_    0.745565 0.094609 0.115705 0.249596
H58   H     H_    0.829988 0.158073 0.201280 0.247993
H59   H     H_    0.621498 0.186489 0.210087 0.226244
H60   H     H_    0.706598 0.253661 0.147735 0.194441
H61   H     H_    0.299297 0.715026 0.841098 0.245787
H62   H     H_    0.392242 0.783850 0.784990 0.273380
H63   H     H_    0.327586 0.811845 0.937173 0.241307
H64   H     H_    0.275877 0.909310 0.750302 0.232140
H65   H     H_    0.190893 0.835909 0.806264 0.189529
H66   H     H_    0.897693 0.945751 0.689217 0.266334
H67   H     H_    0.562730 0.873803 0.126313 0.133657
H68   H     H_    0.858878 0.965158 0.862553 0.251528
H69   H     H_    0.897305 0.856615 0.813164 0.260498
H70   H     H_    0.731966 0.959160 0.708910 0.213003
H71   H     H_    0.723062 0.871835 0.828656 0.191977
H72   H     H_    0.229724 0.975432 0.411993 0.250250
H73   H     H_    0.117987 0.015511 0.369368 0.255926
H74   H     H_    0.184849 0.953012 0.246103 0.244638
H75   H     H_    0.184943 0.107313 0.184734 0.208176
H76   H     H_    0.295454 0.074737 0.224697 0.224299
H77   H     H_    0.145515 0.000165 0.661050 0.265012
H78   H     H_    0.434816 0.125129 0.873991 0.128549
H79   H     H_    0.143411 0.001154 0.846224 0.248987
H80   H     H_    0.082397 0.083907 0.751256 0.264087
H81   H     H_    0.288324 0.052460 0.746669 0.225365
H82   H     H_    0.239351 0.134169 0.848690 0.195795
H83   H     H_    0.878432 0.957921 0.308080 0.258012
H84   H     H_    0.909646 0.858894 0.217658 0.276146
H85   H     H_    0.864755 0.952431 0.125231 0.251159
H86   H     H_    0.739531 0.846635 0.152436 0.194139
H87   H     H_    0.719882 0.940946 0.253354 0.223426
H88   H     H_    0.598790 0.448512 0.331456 0.265815
N1    N     N_R   1.000000 0.500000 0.857200 -0.068267
N2    N     N_R   0.000000 0.500000 0.142800 -0.066889
N3    N     N_R   0.500000 0.000000 0.857200 -0.069589
N4    N     N_R   0.500000 1.000000 0.142800 -0.070097
O1    O     O_R   0.091610 0.408380 0.614620 -0.604074
O2    O     O_R   0.408390 0.091620 0.385380 -0.621567
O3    O     O_R   0.408390 0.091620 0.614620 -0.636665
O4    O     O_R   0.591610 0.908380 0.385380 -0.634180
O5    O     O_R   0.408390 0.908380 0.385380 -0.606867
O6    O     O_R   0.591610 0.091620 0.614620 -0.606063
O7    O     O_R   0.591610 0.091620 0.385380 -0.611713
O8    O     O_R   0.408390 0.908380 0.614620 -0.622279
O9    O     O_R   0.908390 0.591620 0.385380 -0.612008
O10   O     O_R   0.908390 0.591620 0.614620 -0.612872
O11   O     O_R   0.091610 0.408380 0.385380 -0.605223
O12   O     O_R   0.908390 0.408380 0.385380 -0.634849
O13   O     O_R   0.091610 0.591620 0.614620 -0.631702
O14   O     O_R   0.091610 0.591620 0.385380 -0.641010
O15   O     O_R   0.908390 0.408380 0.614620 -0.638304
O16   O     O_R   0.591610 0.908380 0.614620 -0.625440
Zn1   Zn    Zn3+2 0.000000 0.500000 0.653120 0.912059
Zn2   Zn    Zn3+2 1.000000 0.500000 0.346880 0.909472
Zn3   Zn    Zn3+2 0.500000 0.000000 0.653120 0.908988
Zn4   Zn    Zn3+2 0.500000 0.000000 0.346880 0.915496

loop_
_geom_bond_atom_site_label_1
_geom_bond_atom_site_label_2
_ccdc_geom_bond_type
C10   C27   A    
C66   C68   S    
C37   H2    S    
C11   C18   A    
O6    Zn3   S    
C42   H21   S    
C63   H68   S    
C14   C44   S    
C2    H12   S    
C15   C47   S    
C62   H71   S    
C19   C31   A    
C17   C51   S    
C53   H48   S    
C61   H61   S    
C59   H58   S    
C53   C54   S    
C67   O5    A    
O12   Zn2   S    
C22   C35   A    
C43   H17   S    
C70   H84   S    
C37   H88   S    
C49   H37   S    
C36   C37   S    
C14   C30   A    
N2    Zn2   S    
C36   H5    S    
C38   C39   S    
C12   C29   S    
C44   H27   S    
C22   C62   S    
C43   H18   S    
C52   H40   S    
C59   H55   S    
C41   H11   S    
C2    N1    A    
C68   H77   S    
C36   H4    S    
C3    N2    A    
C57   H50   S    
C44   H26   S    
O3    Zn3   S    
C55   H53   S    
C58   H60   S    
O4    Zn4   S    
C54   H44   S    
C9    C36   S    
C40   H15   S    
C13   C28   A    
C11   C27   A    
N4    Zn4   S    
C60   H64   S    
C23   O15   A    
C18   C53   S    
O16   Zn3   S    
C60   H65   S    
C33   C56   S    
C31   C71   S    
C37   H3    S    
C10   C21   A    
C54   H47   S    
C38   H10   S    
C50   H36   S    
C17   C30   A    
C11   C40   S    
C62   H70   S    
O10   Zn1   S    
C13   C42   S    
C44   C46   S    
C61   H62   S    
C15   C29   A    
C27   C34   S    
C48   H28   S    
C21   C32   A    
C17   C24   A    
C47   H31   S    
C13   C19   A    
N3    Zn3   S    
C51   C52   S    
C51   H42   S    
C39   H6    S    
O7    Zn4   S    
O2    Zn4   S    
C16   C49   S    
C21   C60   S    
C66   H82   S    
C65   H72   S    
C15   C26   A    
C23   O12   A    
C52   H39   S    
C16   C29   A    
C52   H41   S    
C4    H34   S    
C43   H19   S    
C70   H83   S    
C5    H45   S    
C60   C61   S    
C39   H7    S    
C8    H78   S    
C5    N4    A    
O5    Zn4   S    
C62   C63   S    
C68   H80   S    
C57   H51   S    
C9    C20   A    
C47   C48   S    
C46   H22   S    
C55   H54   S    
C1    O1    A    
C58   H59   S    
C48   H30   S    
C69   H86   S    
C63   H69   S    
C71   O6    A    
C23   C28   S    
O14   Zn2   S    
O11   Zn2   S    
C40   C41   S    
C46   H25   S    
O9    Zn2   S    
C32   C67   S    
C38   H9    S    
C50   H35   S    
C63   H66   S    
C71   O7    A    
C34   O14   A    
C18   C32   A    
C42   C43   S    
C65   H73   S    
C35   C45   S    
C54   H46   S    
C4    C72   A    
C61   H63   S    
C12   O10   A    
C19   C55   S    
C1    O11   A    
C16   C22   A    
C47   H32   S    
C59   H57   S    
C25   C66   S    
C72   H1    S    
C50   H33   S    
C8    N3    A    
C5    C8    A    
C6    C7    A    
C67   O8    A    
C66   H81   S    
C41   H13   S    
C7    N4    A    
C24   C33   A    
C10   C38   S    
C70   H85   S    
O1    Zn1   S    
C39   H8    S    
C40   H16   S    
C55   C57   S    
C2    C3    A    
C58   C59   S    
C6    H56   S    
C64   H75   S    
C68   H79   S    
C53   H49   S    
C64   C65   S    
C57   H52   S    
C7    H67   S    
O8    Zn3   S    
O13   Zn1   S    
C48   H29   S    
C56   O3    A    
C1    C30   S    
C69   H87   S    
C42   H20   S    
C45   O16   A    
C14   C25   A    
N1    Zn1   S    
C69   C70   S    
C45   O4    A    
C51   H43   S    
C41   H14   S    
C26   C35   A    
C46   H24   S    
C6    N3    A    
C24   C64   S    
C49   C50   S    
C56   O2    A    
C26   C69   S    
C72   N2    A    
C4    N1    A    
C12   O9    A    
C34   O13   A    
C3    H23   S    
C65   H74   S    
C20   C58   S    
C64   H76   S    
C9    C28   A    
C25   C33   A    
C49   H38   S    
O15   Zn1   S    
C20   C31   A    
