data_mof_unit_65252.cif
_audit_creation_date              2012-12-10T17:07:31-0500
_audit_creation_method            fapswitch 2.2
_symmetry_space_group_name_H-M    P1
_symmetry_Int_Tables_number       1
_space_group_crystal_system       triclinic
_cell_length_a                    30.673724
_cell_length_b                    30.562072
_cell_length_c                    21.116305
_cell_angle_alpha                 89.997434
_cell_angle_beta                  43.538129
_cell_angle_gamma                 90.000615
_cell_volume                      13635.8991865

loop_
_atom_site_label
_atom_site_type_symbol
_atom_type_description
_atom_site_fract_x
_atom_site_fract_y
_atom_site_fract_z
_atom_type_partial_charge
C1    C     C_R   0.309896 0.810012 0.499951 0.858900
C2    C     C_R   0.631812 0.128723 0.420421 0.025918
C3    C     C_R   0.276285 0.176387 0.664816 -0.212511
C4    C     C_R   0.775770 0.324051 0.665099 -0.185751
C5    C     C_R   0.224225 0.675953 0.334904 -0.185753
C6    C     C_R   0.223710 0.323609 0.335186 -0.212604
C7    C     C_R   0.776289 0.676391 0.664814 -0.212640
C8    C     C_R   0.265779 0.824500 0.740549 -0.236346
C9    C     C_R   0.734609 0.175173 0.259168 -0.217338
C10   C     C_R   0.733514 0.823992 0.259942 -0.158181
C11   C     C_R   0.266343 0.175916 0.740160 -0.157815
C12   C     C_R   0.765382 0.324834 0.740839 -0.217396
C13   C     C_R   0.631397 0.871032 0.420751 0.046787
C14   C     C_R   0.234609 0.675173 0.259168 -0.217635
C15   C     C_R   0.233649 0.324078 0.259845 -0.158056
C16   C     C_R   0.766349 0.675922 0.740156 -0.158094
C17   C     C_R   0.309382 0.844710 0.734491 0.160926
C18   C     C_R   0.691116 0.154883 0.264849 0.171298
C19   C     C_R   0.689960 0.844027 0.266025 0.155444
C20   C     C_R   0.309881 0.155887 0.734117 0.155591
C21   C     C_R   0.808875 0.345123 0.735158 0.171335
C22   C     C_R   0.191117 0.654883 0.264849 0.171644
C23   C     C_R   0.190112 0.344108 0.265889 0.155473
C24   C     C_R   0.368559 0.128949 0.579300 0.047106
C25   C     C_R   0.809886 0.655891 0.734112 0.155483
C26   C     C_R   0.361903 0.866770 0.653744 0.127168
C27   C     C_R   0.638303 0.133087 0.346092 0.107105
C28   C     C_R   0.637450 0.866387 0.346862 0.072392
C29   C     C_R   0.362439 0.133564 0.653259 0.072812
C30   C     C_R   0.861692 0.366916 0.653913 0.107074
C31   C     C_R   0.138304 0.633087 0.346091 0.107046
C32   C     C_R   0.137557 0.366434 0.346745 0.072659
C33   C     C_R   0.862442 0.633566 0.653257 0.072665
C34   C     C_R   0.868185 0.371278 0.579581 0.025873
C35   C     C_R   0.131813 0.628723 0.420420 0.025857
C36   C     C_R   0.131439 0.371050 0.420701 0.047038
C37   C     C_R   0.868560 0.628950 0.579300 0.047033
C38   C     C_R   0.328074 0.845890 0.583040 0.058027
C39   C     C_R   0.672018 0.154019 0.416904 0.058135
C40   C     C_R   0.671691 0.845736 0.417101 0.057974
C41   C     C_R   0.690099 0.189988 0.500058 0.859226
C42   C     C_R   0.328268 0.154238 0.582931 0.058141
C43   C     C_R   0.827979 0.345983 0.583097 0.058138
C44   C     C_R   0.172018 0.654019 0.416904 0.058124
C45   C     C_R   0.171730 0.345761 0.417070 0.058112
C46   C     C_R   0.828270 0.654239 0.582930 0.058091
C47   C     C_R   0.341020 0.842738 0.504035 -0.117734
C48   C     C_R   0.658963 0.157261 0.495998 -0.117459
C49   C     C_R   0.659009 0.842748 0.495901 -0.117859
C50   C     C_R   0.340997 0.157254 0.504094 -0.117665
C51   C     C_R   0.841038 0.342739 0.504002 -0.117442
C52   C     C_R   0.690119 0.810015 0.500016 0.861435
C53   C     C_R   0.158963 0.657261 0.495997 -0.117502
C54   C     C_R   0.159003 0.342746 0.495905 -0.117714
C55   C     C_R   0.840997 0.657254 0.504095 -0.117728
C56   C     C_R   0.389471 0.866883 0.424461 0.068747
C57   C     C_R   0.610405 0.133199 0.575651 0.068623
C58   C     C_R   0.610809 0.867074 0.575303 0.067987
C59   C     C_R   0.389249 0.132964 0.424659 0.068576
C60   C     C_R   0.889599 0.366798 0.424346 0.068657
C61   C     C_R   0.110404 0.633199 0.575651 0.068668
C62   C     C_R   0.110754 0.367037 0.575338 0.068591
C63   C     C_R   0.309884 0.189985 0.499980 0.861368
C64   C     C_R   0.889246 0.632963 0.424662 0.068579
C65   C     C_R   0.424023 0.895399 0.424483 -0.161396
C66   C     C_R   0.575862 0.104677 0.575621 -0.162057
C67   C     C_R   0.576238 0.895582 0.575310 -0.161230
C68   C     C_R   0.423825 0.104464 0.424655 -0.160606
C69   C     C_R   0.924141 0.395320 0.424377 -0.162237
C70   C     C_R   0.075862 0.604677 0.575621 -0.162252
C71   C     C_R   0.076178 0.395538 0.575343 -0.160797
C72   C     C_R   0.923822 0.604462 0.424657 -0.160928
C73   C     C_R   0.412838 0.899002 0.501355 -0.179751
C74   C     C_R   0.809901 0.310012 0.499943 0.859235
C75   C     C_R   0.587171 0.100997 0.498648 -0.179644
C76   C     C_R   0.587132 0.898997 0.498672 -0.180127
C77   C     C_R   0.412879 0.101017 0.501336 -0.179914
C78   C     C_R   0.912829 0.399003 0.501352 -0.179705
C79   C     C_R   0.087171 0.600997 0.498648 -0.179699
C80   C     C_R   0.087121 0.398983 0.498664 -0.180023
C81   C     C_R   0.912878 0.601016 0.501336 -0.179985
C82   C     C_R   0.943336 0.564556 0.500371 0.904270
C83   C     C_R   0.056664 0.435444 0.499630 0.904258
C84   C     C_R   0.056743 0.564505 0.499623 0.902137
C85   C     C_R   0.190099 0.689988 0.500057 0.859414
C86   C     C_R   0.943256 0.435495 0.500377 0.902131
C87   C     C_R   0.443336 0.064556 0.500370 0.903867
C88   C     C_R   0.556679 0.935455 0.499630 0.903965
C89   C     C_R   0.556743 0.064505 0.499623 0.901576
C90   C     C_R   0.443271 0.935487 0.500378 0.901616
C91   C     C_R   0.335796 0.750092 0.328494 0.858659
C92   C     C_R   0.664203 0.249908 0.671506 0.858417
C93   C     C_R   0.664202 0.750090 0.671507 0.858670
C94   C     C_R   0.335798 0.249910 0.328493 0.858599
C95   C     C_R   0.835797 0.250092 0.328494 0.858430
C96   C     C_R   0.190116 0.310015 0.500019 0.861382
C97   C     C_R   0.164203 0.749907 0.671506 0.858504
C98   C     C_R   0.164202 0.250090 0.671507 0.858618
C99   C     C_R   0.835798 0.749910 0.328493 0.858761
C100  C     C_1   0.386534 0.750101 0.226886 -0.209508
C101  C     C_1   0.613466 0.249899 0.773114 -0.209360
C102  C     C_1   0.613459 0.750099 0.773114 -0.209896
C103  C     C_1   0.386541 0.249901 0.226886 -0.209456
C104  C     C_1   0.886534 0.250101 0.226886 -0.209330
C105  C     C_1   0.113465 0.749898 0.773114 -0.209612
C106  C     C_1   0.113459 0.250099 0.773114 -0.209453
C107  C     C_R   0.809884 0.689985 0.499981 0.861523
C108  C     C_1   0.886541 0.749901 0.226886 -0.209575
C109  C     C_1   0.428834 0.750091 0.142246 0.001094
C110  C     C_1   0.571165 0.249909 0.857754 0.001222
C111  C     C_1   0.571155 0.750090 0.857755 0.001172
C112  C     C_1   0.428845 0.249910 0.142245 0.001565
C113  C     C_1   0.928834 0.250091 0.142246 0.001249
C114  C     C_1   0.071165 0.749907 0.857754 0.001072
C115  C     C_1   0.071155 0.250090 0.857755 0.001577
C116  C     C_1   0.928845 0.749910 0.142245 0.001468
C117  C     C_1   0.478816 0.750081 0.042323 0.004638
C118  C     C_R   0.368320 0.871199 0.579484 0.019797
C119  C     C_1   0.521183 0.249919 0.957677 0.004863
C120  C     C_1   0.521171 0.750081 0.957677 0.004939
C121  C     C_1   0.478829 0.249919 0.042323 0.005261
C122  C     C_1   0.978816 0.250081 0.042323 0.004886
C123  C     C_1   0.021183 0.749918 0.957677 0.004692
C124  C     C_1   0.021171 0.250081 0.957677 0.005281
C125  C     C_1   0.978829 0.749918 0.042323 0.005113
C126  C     C_R   0.275938 0.823849 0.665012 -0.179178
C127  C     C_R   0.724224 0.175953 0.334904 -0.185679
C128  C     C_R   0.723629 0.823551 0.335236 -0.212626
H1    H     H_    0.242219 0.806185 0.671669 0.142262
H2    H     H_    0.775348 0.192145 0.197143 0.148384
H3    H     H_    0.773823 0.806838 0.197797 0.161412
H4    H     H_    0.225998 0.193043 0.802321 0.161418
H5    H     H_    0.724641 0.307864 0.802865 0.148370
H6    H     H_    0.275348 0.692146 0.197143 0.148101
H7    H     H_    0.273992 0.306950 0.197686 0.161410
H8    H     H_    0.726007 0.693050 0.802315 0.161392
H9    H     H_    0.459002 0.915711 0.364222 0.178006
H10   H     H_    0.540794 0.084425 0.635949 0.178265
H11   H     H_    0.541465 0.916028 0.635408 0.180028
H12   H     H_    0.757911 0.193619 0.328320 0.142172
H13   H     H_    0.458641 0.084046 0.364524 0.179413
H14   H     H_    0.959212 0.415571 0.364046 0.178058
H15   H     H_    0.040794 0.584425 0.635949 0.178072
H16   H     H_    0.041364 0.415957 0.635472 0.179363
H17   H     H_    0.958637 0.584043 0.364527 0.179294
H18   H     H_    0.415673 0.830571 0.320886 0.180257
H19   H     H_    0.364030 0.871589 0.358943 0.205240
H20   H     H_    0.584134 0.169619 0.679164 0.180384
H21   H     H_    0.635680 0.128580 0.641398 0.205028
H22   H     H_    0.584779 0.830992 0.678996 0.180911
H23   H     H_    0.757427 0.805929 0.328457 0.143501
H24   H     H_    0.636647 0.871962 0.640275 0.204994
H25   H     H_    0.415304 0.169085 0.320987 0.181429
H26   H     H_    0.363483 0.128100 0.359589 0.204793
H27   H     H_    0.915871 0.330375 0.320834 0.180397
H28   H     H_    0.864328 0.371415 0.358592 0.204916
H29   H     H_    0.084134 0.669620 0.679164 0.180395
H30   H     H_    0.135680 0.628580 0.641398 0.204839
H31   H     H_    0.084701 0.330918 0.679010 0.181460
H32   H     H_    0.136523 0.371903 0.640404 0.204643
H33   H     H_    0.915301 0.669082 0.320988 0.181356
H34   H     H_    0.242495 0.194005 0.671572 0.143384
H35   H     H_    0.863478 0.628098 0.359594 0.204666
H36   H     H_    0.257896 0.855078 0.867807 0.179515
H37   H     H_    0.300963 0.808485 0.822895 0.190129
H38   H     H_    0.707617 0.126180 0.163184 0.175965
H39   H     H_    0.737884 0.176751 0.136426 0.178092
H40   H     H_    0.700447 0.871656 0.168676 0.184356
H41   H     H_    0.659345 0.824053 0.212179 0.207857
H42   H     H_    0.299351 0.128218 0.831481 0.184840
H43   H     H_    0.340392 0.175847 0.788116 0.208021
H44   H     H_    0.792378 0.373829 0.836817 0.175842
H45   H     H_    0.742083 0.306385 0.671683 0.142153
H46   H     H_    0.762099 0.323262 0.863590 0.178064
H47   H     H_    0.207619 0.626181 0.163182 0.175505
H48   H     H_    0.237883 0.676753 0.136427 0.177078
H49   H     H_    0.200644 0.371776 0.168521 0.184097
H50   H     H_    0.159597 0.324150 0.211893 0.208136
H51   H     H_    0.799350 0.628223 0.831484 0.184139
H52   H     H_    0.840402 0.675847 0.788109 0.208097
H53   H     H_    0.455664 0.877491 0.576494 0.151833
H54   H     H_    0.401778 0.906811 0.677862 0.225835
H55   H     H_    0.597743 0.093300 0.322756 0.216806
H56   H     H_    0.257911 0.693619 0.328320 0.142152
H57   H     H_    0.544344 0.122831 0.423837 0.156498
H58   H     H_    0.543577 0.877093 0.424746 0.163948
H59   H     H_    0.597199 0.906643 0.323590 0.218237
H60   H     H_    0.402645 0.093309 0.676610 0.218278
H61   H     H_    0.456298 0.122860 0.575469 0.164104
H62   H     H_    0.955651 0.377170 0.576169 0.156549
H63   H     H_    0.902253 0.406701 0.677250 0.216768
H64   H     H_    0.097744 0.593300 0.322754 0.216712
H65   H     H_    0.044345 0.622830 0.423835 0.156557
H66   H     H_    0.043698 0.377140 0.424536 0.164293
H67   H     H_    0.257501 0.305991 0.328430 0.143378
H68   H     H_    0.097351 0.406690 0.323394 0.217982
H69   H     H_    0.902646 0.593309 0.676609 0.218004
H70   H     H_    0.956300 0.622859 0.575467 0.164276
H71   H     H_    0.742499 0.694009 0.671570 0.143409
H72   H     H_    0.225344 0.807455 0.802772 0.152477
N1    N     N_3   0.404191 0.863146 0.342844 -0.456933
N2    N     N_3   0.698401 0.157739 0.189622 -0.435579
N3    N     N_3   0.698637 0.840163 0.189837 -0.461194
N4    N     N_3   0.301139 0.159720 0.810369 -0.460976
N5    N     N_3   0.801587 0.342269 0.810388 -0.435573
N6    N     N_3   0.198401 0.657739 0.189622 -0.436243
N7    N     N_3   0.198852 0.340275 0.189638 -0.461188
N8    N     N_3   0.801146 0.659724 0.810364 -0.461245
N9    N     N_3   0.411716 0.877157 0.644949 -0.431146
N10   N     N_3   0.588222 0.122990 0.355309 -0.432337
N11   N     N_3   0.587425 0.876918 0.356193 -0.469077
N12   N     N_3   0.595577 0.137023 0.657348 -0.456741
N13   N     N_3   0.412432 0.123037 0.644003 -0.468656
N14   N     N_3   0.911773 0.377011 0.644697 -0.432302
N15   N     N_3   0.088223 0.622989 0.355307 -0.432443
N16   N     N_3   0.087564 0.376963 0.356002 -0.468631
N17   N     N_3   0.912434 0.623036 0.644001 -0.468642
N18   N     N_3   0.596350 0.863522 0.656726 -0.455052
N19   N     N_3   0.403754 0.136547 0.343201 -0.455134
N20   N     N_3   0.904429 0.362972 0.342646 -0.457000
N21   N     N_3   0.095577 0.637024 0.657348 -0.457046
N22   N     N_3   0.096251 0.363456 0.656795 -0.455269
N23   N     N_3   0.903750 0.636544 0.343204 -0.455441
N24   N     N_3   0.301833 0.841628 0.809706 -0.447403
O1    O     O_R   0.321660 0.769950 0.500020 -0.606331
O2    O     O_R   0.730050 0.178330 0.500000 -0.618842
O3    O     O_R   0.730050 0.821670 0.500000 -0.619053
O4    O     O_R   0.269950 0.178330 0.500000 -0.619180
O5    O     O_R   0.769950 0.321670 0.500000 -0.618965
O6    O     O_R   0.230050 0.678330 0.500000 -0.618940
O7    O     O_R   0.230050 0.321670 0.500000 -0.619342
O8    O     O_R   0.769950 0.678330 0.500000 -0.619320
O9    O     O_R   0.339000 0.724150 0.373720 -0.594625
O10   O     O_R   0.661000 0.275850 0.626280 -0.594630
O11   O     O_R   0.661000 0.724150 0.626280 -0.594837
O12   O     O_R   0.678340 0.230050 0.499980 -0.605386
O13   O     O_R   0.339000 0.275850 0.373720 -0.594434
O14   O     O_R   0.839000 0.224150 0.373720 -0.594486
O15   O     O_R   0.161000 0.775850 0.626280 -0.594259
O16   O     O_R   0.161000 0.224150 0.626280 -0.594303
O17   O     O_R   0.839000 0.775850 0.373720 -0.594260
O18   O     O_R   0.287290 0.775870 0.373700 -0.600981
O19   O     O_R   0.712710 0.224130 0.626300 -0.601022
O20   O     O_R   0.712710 0.775870 0.626300 -0.601249
O21   O     O_R   0.287290 0.224130 0.373700 -0.601362
O22   O     O_R   0.787290 0.275870 0.373700 -0.601123
O23   O     O_R   0.678340 0.769950 0.499980 -0.605623
O24   O     O_R   0.212710 0.724130 0.626300 -0.601762
O25   O     O_R   0.212710 0.275870 0.626300 -0.601499
O26   O     O_R   0.787290 0.724130 0.373700 -0.601531
O27   O     O_R   0.989830 0.545820 0.428700 -0.633973
O28   O     O_R   0.010170 0.454180 0.571300 -0.633925
O29   O     O_R   0.010170 0.545820 0.571300 -0.633517
O30   O     O_R   0.989830 0.454180 0.428700 -0.633538
O31   O     O_R   0.489830 0.045820 0.428700 -0.634127
O32   O     O_R   0.510170 0.954180 0.571300 -0.633574
O33   O     O_R   0.510170 0.045820 0.571300 -0.633451
O34   O     O_R   0.321660 0.230050 0.500020 -0.605027
O35   O     O_R   0.489830 0.954180 0.428700 -0.633782
O36   O     O_R   0.918540 0.545810 0.571290 -0.619542
O37   O     O_R   0.081460 0.454190 0.428710 -0.619564
O38   O     O_R   0.081460 0.545810 0.428710 -0.622503
O39   O     O_R   0.918540 0.454190 0.571290 -0.622482
O40   O     O_R   0.418540 0.045810 0.571290 -0.619090
O41   O     O_R   0.581460 0.954190 0.428710 -0.619677
O42   O     O_R   0.581460 0.045810 0.428710 -0.622621
O43   O     O_R   0.418540 0.954190 0.571290 -0.621275
O44   O     O_R   0.821660 0.269950 0.500020 -0.605304
O45   O     O_R   0.178340 0.730050 0.499980 -0.605297
O46   O     O_R   0.178340 0.269950 0.499980 -0.604923
O47   O     O_R   0.821660 0.730050 0.500020 -0.604929
O48   O     O_R   0.269950 0.821670 0.500000 -0.618516
Zn1   Zn    Zn3+2 0.284530 0.715470 0.500010 0.964579
Zn2   Zn    Zn3+2 0.952400 0.500000 0.595210 0.920618
Zn3   Zn    Zn3+2 0.547600 1.000000 0.404790 0.920796
Zn4   Zn    Zn3+2 0.452400 0.000000 0.595210 0.926009
Zn5   Zn    Zn3+2 0.715470 0.284530 0.499990 0.966228
Zn6   Zn    Zn3+2 0.715470 0.715470 0.499990 0.965003
Zn7   Zn    Zn3+2 0.284530 0.284530 0.500010 0.966186
Zn8   Zn    Zn3+2 0.784530 0.215470 0.500010 0.966697
Zn9   Zn    Zn3+2 0.215470 0.784530 0.499990 0.966805
Zn10  Zn    Zn3+2 0.215470 0.215470 0.499990 0.966717
Zn11  Zn    Zn3+2 0.784530 0.784530 0.500010 0.966668
Zn12  Zn    Zn3+2 0.047600 0.500000 0.404790 0.920432

loop_
_geom_bond_atom_site_label_1
_geom_bond_atom_site_label_2
_ccdc_geom_bond_type
C61   C70   A    
H32   N22   S    
C3    C42   A    
C16   C25   A    
C6    C45   A    
C83   O28   A    
C93   C102  S    
C24   C42   A    
C35   C79   A    
C123  C125  T    
C51   C74   S    
C57   C66   A    
C92   O10   A    
C64   C72   A    
C37   C81   A    
C11   H4    S    
C97   O24   A    
C81   C82   S    
C102  C111  T    
C109  C117  S    
C48   C57   A    
C88   O32   A    
C1    O48   A    
C9    H2    S    
C93   O11   A    
C28   N11   S    
C99   C108  S    
O15   Zn9   S    
C70   H15   S    
O40   Zn4   S    
C96   O46   A    
C17   C26   A    
C32   C36   A    
C84   O29   A    
H44   N5    S    
O13   Zn7   S    
C73   C90   S    
H18   N1    S    
O14   Zn8   S    
O29   Zn2   S    
C74   O5    A    
C95   O22   A    
H66   N16   S    
C79   C84   S    
H68   N16   S    
C92   O19   A    
H69   N17   S    
C88   O41   A    
C96   O7    A    
C98   O16   A    
C21   N5    S    
C72   H17   S    
C40   C128  A    
O48   Zn9   S    
C65   C73   A    
C22   N6    S    
H53   N9    S    
C89   O42   A    
H38   N2    S    
H39   N2    S    
O8    Zn6   S    
H43   N4    S    
C24   C29   A    
C6    H67   S    
C13   C40   A    
C94   O13   A    
C3    H34   S    
C6    C15   A    
C10   H3    S    
C74   O44   A    
C2    C39   A    
O41   Zn3   S    
O38   Zn12  S    
C113  C122  S    
C116  C125  S    
C15   H7    S    
O33   Zn4   S    
C60   N20   S    
H24   N18   S    
C46   C55   A    
H46   N5    S    
H21   N12   S    
C13   C28   A    
O35   Zn3   S    
C2    C27   A    
C115  C124  S    
C91   C100  S    
C4    C12   A    
C25   N8    S    
C67   H11   S    
C76   C88   S    
C5    H56   S    
H42   N4    S    
C72   C81   A    
C37   C46   A    
C50   C59   A    
O36   Zn2   S    
C78   C86   S    
C15   C23   A    
C57   N12   S    
C100  C109  T    
O10   Zn5   S    
O16   Zn10  S    
H58   N11   S    
C55   C64   A    
C52   O3    A    
H29   N21   S    
C50   C63   S    
C84   O38   A    
C69   C78   A    
C53   C61   A    
C30   N14   S    
O17   Zn11  S    
C99   O26   A    
C10   C128  A    
C90   O35   A    
C44   C53   A    
C71   C80   A    
C38   C126  A    
H65   N15   S    
C20   C29   A    
C119  C121  T    
C71   H16   S    
C97   O15   A    
C11   C20   A    
H31   N22   S    
C39   C127  A    
C22   C31   A    
C30   C34   A    
C82   O36   A    
O12   Zn5   S    
C7    C46   A    
C105  C114  T    
C68   H13   S    
C24   C77   A    
C89   O33   A    
C20   N4    S    
H28   N20   S    
C36   C80   A    
C63   O34   A    
C83   O37   A    
C1    C47   S    
C56   N1    S    
C54   C62   A    
C126  H1    S    
C69   H14   S    
C107  O47   A    
C12   C21   A    
C27   N10   S    
C33   C37   A    
C49   C58   A    
H49   N7    S    
C64   N23   S    
C55   C107  S    
C103  C112  T    
H55   N10   S    
C95   O14   A    
C38   C118  A    
C99   O17   A    
O22   Zn5   S    
O7    Zn7   S    
H52   N8    S    
C35   C44   A    
O4    Zn10  S    
C59   C68   A    
H41   N3    S    
O37   Zn12  S    
H36   N24   S    
C128  H23   S    
O47   Zn11  S    
C66   H10   S    
C91   O18   A    
H19   N1    S    
C10   C19   A    
O5    Zn5   S    
C49   C52   S    
O9    Zn1   S    
H50   N7    S    
C19   N3    S    
H22   N18   S    
C36   C45   A    
C18   N2    S    
O2    Zn8   S    
O45   Zn9   S    
O46   Zn10  S    
C19   C28   A    
H62   N14   S    
C5    C14   A    
H61   N13   S    
C92   C101  S    
C42   C50   A    
C114  C123  S    
C8    C126  A    
C7    C16   A    
C41   O12   A    
C5    C44   A    
H59   N11   S    
C45   C54   A    
H30   N21   S    
C33   N17   S    
C12   H5    S    
O6    Zn1   S    
C31   C35   A    
C8    H72   S    
H70   N17   S    
C51   C60   A    
C127  H12   S    
H54   N9    S    
C122  C124  T    
C16   H8    S    
C52   O23   A    
O26   Zn6   S    
C86   O39   A    
O21   Zn10  S    
C4    H45   S    
C95   C104  S    
C87   O40   A    
C80   C83   S    
C1    O1    A    
C68   C77   A    
C9    C127  A    
C91   O9    A    
C41   O2    A    
O20   Zn11  S    
C73   C118  A    
H64   N15   S    
C112  C121  S    
C23   N7    S    
C70   C79   A    
O11   Zn6   S    
O1    Zn1   S    
C85   O6    A    
C26   C118  A    
C101  C110  T    
C29   N13   S    
C39   C48   A    
C93   O20   A    
O3    Zn11  S    
C110  C119  S    
C94   C103  S    
C98   O25   A    
H60   N13   S    
H27   N20   S    
C63   O4    A    
C111  C120  S    
C4    C43   A    
H35   N23   S    
C86   O30   A    
C13   C76   A    
C14   H6    S    
C21   C30   A    
O44   Zn8   S    
C8    C17   A    
C98   C106  S    
H40   N3    S    
C38   C47   A    
C106  C115  T    
C18   C27   A    
C23   C32   A    
C108  C116  T    
O23   Zn6   S    
H20   N12   S    
C90   O43   A    
H51   N8    S    
C97   C105  S    
C58   C67   A    
H63   N14   S    
C17   N24   S    
C59   N19   S    
C34   C78   A    
O43   Zn4   S    
C58   N18   S    
C14   C22   A    
C40   C49   A    
O19   Zn8   S    
C60   C69   A    
C43   C51   A    
C66   C75   A    
H33   N23   S    
C54   C96   S    
C87   O31   A    
C65   H9    S    
C41   C48   S    
C117  C120  T    
C62   C71   A    
C26   N9    S    
C85   O45   A    
O27   Zn12  S    
C62   N22   S    
O18   Zn9   S    
C7    H71   S    
C94   O21   A    
C61   N21   S    
C82   O27   A    
H25   N19   S    
H48   N6    S    
C3    C11   A    
C75   C89   S    
C104  C113  T    
C32   N16   S    
O25   Zn7   S    
C9    C18   A    
O24   Zn1   S    
O39   Zn2   S    
C31   N15   S    
C77   C87   S    
O42   Zn3   S    
O31   Zn3   S    
O34   Zn7   S    
H57   N10   S    
O32   Zn4   S    
C53   C85   S    
C67   C76   A    
H47   N6    S    
H26   N19   S    
C107  O8    A    
O28   Zn2   S    
C34   C43   A    
C2    C75   A    
C56   C65   A    
H37   N24   S    
C25   C33   A    
C47   C56   A    
O30   Zn12  S    
