data_mof_unit_55963.cif
_audit_creation_date              2013-03-05T15:55:04-0500
_audit_creation_method            fapswitch 2.2
_symmetry_space_group_name_H-M    P1
_symmetry_Int_Tables_number       1
_space_group_crystal_system       triclinic
_cell_length_a                    14.785111
_cell_length_b                    14.882619
_cell_length_c                    14.913438
_cell_angle_alpha                 109.611808
_cell_angle_beta                  109.792139
_cell_angle_gamma                 109.034811
_cell_volume                      2525.28122039

loop_
_atom_site_label
_atom_site_type_symbol
_atom_site_description
_atom_site_fract_x
_atom_site_fract_y
_atom_site_fract_z
_atom_type_partial_charge
C1    C     C_R   0.185388 0.279536 0.254095 -0.134953
H1    H     H_    0.123878 0.303776 0.250862 0.120529
N1    N     N_R   0.291070 0.347930 0.293870 -0.045304
C2    C     C_R   0.525700 0.432804 0.746574 -0.025218
N2    N     N_R   0.554050 0.497220 0.706150 -0.043607
C3    C     C_R   0.504982 0.200628 0.408312 -0.053836
N3    N     N_R   0.497240 0.291100 0.443210 -0.054326
C4    C     C_R   0.290981 0.597909 0.589625 -0.137844
H2    H     H_    0.324382 0.658761 0.673829 0.101944
N4    N     N_R   0.347890 0.554050 0.556810 -0.045096
C5    C     C_R   0.595199 0.290007 0.590741 -0.147538
H3    H     H_    0.656429 0.322263 0.674873 0.131106
N5    N     N_R   0.554050 0.347900 0.556830 -0.050862
C6    C     C_R   0.199732 0.505128 0.407515 -0.099272
N6    N     N_R   0.291070 0.497250 0.443190 -0.048556
C7    C     C_R   0.436753 0.528808 0.752546 -0.092033
H4    H     H_    0.384530 0.562266 0.765233 0.105937
N7    N     N_R   0.497240 0.554030 0.706140 -0.047341
C8    C     C_R   0.275338 0.184743 0.249319 -0.123097
N8    N     N_R   0.347890 0.291110 0.293870 -0.045281
C9    C     C_R   0.171968 0.175768 0.224376 0.073352
C10   C     C_R   0.453493 0.451960 0.778592 0.047733
C11   C     C_R   0.565378 0.196512 0.498789 0.096164
C12   C     C_R   0.197983 0.570982 0.497320 0.090609
C13   C     C_R   0.478223 0.721042 0.407960 -0.128015
H5    H     H_    0.454490 0.695923 0.323407 0.121135
N9    N     N_R   0.445950 0.652100 0.443170 -0.045464
C14   C     C_R   0.815474 0.567028 0.593102 -0.106276
H6    H     H_    0.878189 0.617308 0.678834 0.124942
N10   N     N_R   0.708930 0.502750 0.556810 -0.048679
C15   C     C_R   0.493805 0.401283 0.195865 -0.160525
H7    H     H_    0.512731 0.336421 0.168278 0.128536
N11   N     N_R   0.502760 0.445970 0.293860 -0.044910
C16   C     C_R   0.706686 0.799246 0.803262 -0.154092
H8    H     H_    0.669625 0.846274 0.830646 0.117603
N12   N     N_R   0.652110 0.708890 0.706130 -0.045153
C17   C     C_R   0.801319 0.710500 0.805406 -0.097301
H9    H     H_    0.854695 0.679593 0.835221 0.125386
N13   N     N_R   0.708930 0.652070 0.706130 -0.049348
C18   C     C_R   0.403406 0.494037 0.194351 -0.137075
H10   H     H_    0.342362 0.517548 0.165168 0.100570
N14   N     N_R   0.445950 0.502780 0.293850 -0.043348
C19   C     C_R   0.565971 0.814976 0.591752 -0.126043
H11   H     H_    0.618939 0.878948 0.677061 0.097530
N15   N     N_R   0.502760 0.708900 0.556790 -0.042076
C20   C     C_R   0.723421 0.477731 0.409178 -0.062750
N16   N     N_R   0.652110 0.445950 0.443190 -0.050130
Ni1   Ni    Ni4+2 0.369690 0.500010 0.369700 0.208812
Ni2   Ni    Ni4+2 0.630310 0.499990 0.630300 0.256562
Ni3   Ni    Ni4+2 0.500000 0.369720 0.369720 0.237802
Ni4   Ni    Ni4+2 0.500000 0.630280 0.630280 0.221836
C21   C     C_R   0.552779 0.824957 0.499188 0.070582
C22   C     C_R   0.827203 0.556933 0.502025 0.048580
C23   C     C_R   0.432892 0.430681 0.131313 0.088717
C24   C     C_R   0.801431 0.803587 0.867984 0.077499
C25   C     C_R   0.097027 0.618313 0.191467 -0.208613
H12   H     H_    0.158254 0.684026 0.192877 0.201717
C26   C     C_R   0.099461 0.633623 0.289947 -0.225394
H13   H     H_    0.161840 0.711143 0.364983 0.175859
C27   C     C_R   0.021425 0.550906 0.292067 -0.069998
C28   C     C_R   0.940082 0.450183 0.192812 0.292662
C29   C     C_R   0.937888 0.436603 0.093926 -0.303013
H14   H     H_    0.876059 0.359787 0.018101 0.204875
C30   C     C_R   0.015749 0.520083 0.092259 0.397797
C31   C     C_R   0.929463 0.572724 0.401740 -0.131887
H15   H     H_    0.854233 0.537912 0.325534 0.128843
C32   C     C_R   0.931180 0.608373 0.502129 0.021360
C33   C     C_R   0.034793 0.676667 0.600461 0.045363
C34   C     C_R   0.126485 0.671744 0.597163 -0.228518
H16   H     H_    0.204129 0.715273 0.673354 0.130378
C35   C     C_R   0.117254 0.609656 0.496451 0.044181
C36   C     C_R   0.023161 0.575736 0.397810 0.133951
C37   C     C_R   0.000206 0.823893 0.698064 -0.138008
H17   H     H_    0.948220 0.813177 0.619503 0.123814
C38   C     C_R   0.017926 0.904492 0.794362 -0.097196
H18   H     H_    0.979243 0.954550 0.789740 0.118357
C39   C     C_R   0.086358 0.921238 0.896674 -0.133804
C40   C     C_R   0.135589 0.856106 0.902810 -0.044590
H19   H     H_    0.187822 0.868638 0.982066 0.202103
C41   C     C_R   0.118090 0.775235 0.806764 -0.129664
H20   H     H_    0.156699 0.725377 0.813271 0.147642
C42   C     C_R   0.050554 0.758684 0.703256 0.077252
C43   C     C_R   0.463589 0.357043 0.886609 -0.027395
C44   C     C_R   0.413219 0.406539 0.838466 0.081454
C45   C     C_R   0.335303 0.425451 0.863566 -0.139409
H21   H     H_    0.289310 0.457401 0.823578 0.135397
C46   C     C_R   0.329019 0.419193 0.953063 -0.172363
H22   H     H_    0.279273 0.447680 0.979911 0.145315
C47   C     C_R   0.399603 0.392469 0.015822 0.080069
C48   C     C_R   0.453858 0.346570 0.971564 0.091198
C49   C     C_3   0.567524 0.360796 0.025319 -0.542093
C50   C     C_3   0.580043 0.375540 0.934038 0.199504
H23   H     H_    0.564107 0.283784 0.021444 0.215878
H24   H     H_    0.589322 0.310055 0.880939 0.084230
C51   C     C_R   0.562592 0.929036 0.398423 0.075581
C52   C     C_R   0.599930 0.926883 0.497107 0.090366
C53   C     C_R   0.666602 0.028673 0.596047 -0.186791
H25   H     H_    0.706201 0.033766 0.674657 0.127524
C54   C     C_R   0.667307 0.123004 0.596023 -0.131722
H26   H     H_    0.708154 0.196660 0.674700 0.152255
C55   C     C_R   0.601751 0.115777 0.496998 0.062923
C56   C     C_R   0.561816 0.021455 0.398338 -0.001386
C57   C     C_3   0.458649 0.953388 0.285966 0.542012
C58   C     C_3   0.460453 0.852518 0.286909 -0.622116
H27   H     H_    0.478015 0.806964 0.224982 0.219763
C59   C     C_R   0.967386 0.077530 0.117206 0.199134
C60   C     C_R   0.065477 0.076144 0.167641 -0.006112
C61   C     C_R   0.058932 0.973681 0.143778 -0.187213
C62   C     C_R   0.964770 0.877839 0.050761 -0.146991
H28   H     H_    0.966921 0.801762 0.024668 0.171430
C63   C     C_R   0.877279 0.885691 0.984154 0.015754
C64   C     C_R   0.874240 0.983255 0.027021 0.183299
C65   C     C_3   0.842049 0.044411 0.972086 -0.509012
C66   C     C_3   0.944304 0.147441 0.070131 -0.497111
H29   H     H_    0.764353 0.042961 0.965557 0.229763
H30   H     H_    0.925339 0.205292 0.119413 0.247626
H31   H     H_    0.701154 0.447504 0.323945 0.113204
N17   N     N_R   0.012308 0.505065 0.990352 0.243015
O1    O     O_R   0.084734 0.582113 0.988847 -0.396261
O2    O     O_R   0.936057 0.414684 0.897902 -0.410067
H32   H     H_    0.553148 0.374761 0.750006 0.093638
N18   N     N_R   0.861846 0.360486 0.191294 0.223179
O3    O     O_R   0.889638 0.343871 0.274413 -0.403242
O4    O     O_R   0.767258 0.287144 0.101622 -0.418178
H33   H     H_    0.101274 0.984806 0.971128 0.131676
H34   H     H_    0.484714 0.152841 0.324856 0.122890
H35   H     H_    0.625562 0.435378 0.108307 0.221439
N19   N     N_R   0.665399 0.487285 0.975529 0.252890
O5    O     O_R   0.748190 0.501675 0.958181 -0.398658
O6    O     O_R   0.662042 0.572742 0.033266 -0.379901
N20   N     N_R   0.358934 0.955075 0.283092 0.199656
O7    O     O_R   0.271500 0.911289 0.188252 -0.434185
O8    O     O_R   0.347310 0.972708 0.369096 -0.436524
N21   N     N_R   0.476720 0.968520 0.199853 0.224164
O9    O     O_R   0.565816 0.051809 0.225388 -0.398025
O10   O     O_R   0.405975 0.895222 0.096565 -0.371773
H36   H     H_    0.387602 0.800609 0.288069 0.206970
H37   H     H_    0.130472 0.968832 0.187401 0.210561
H38   H     H_    0.845816 0.023396 0.894934 0.189088
H39   H     H_    0.006093 0.184598 0.048367 0.191739
H40   H     H_    0.148727 0.477617 0.322280 0.102667
H41   H     H_    0.295678 0.119866 0.237471 0.145696

loop_
_geom_bond_atom_site_label_1
_geom_bond_atom_site_label_2
_geom_bond_distance
_ccdc_geom_bond_type
N9    Ni1   1.851765 S    
C46   H22   1.081617 S    
C1    C9    1.379088 A    
C55   C56   1.403058 A    
C37   H17   1.083348 S    
C3    N3    1.329424 A    
C51   C52   1.401693 A    
C19   H11   1.078964 S    
N19   O5    1.300716 A    
C53   H25   1.081427 S    
C48   C49   1.501138 S    
C59   C64   1.375711 A    
C39   C40   1.397311 A    
C61   C62   1.402012 A    
C43   C50   1.508641 S    
C29   H14   1.082487 S    
C49   H35   1.112406 S    
C59   C66   1.500536 S    
C43   C44   1.401249 A    
N11   N14   1.372431 A    
C14   H6    1.075518 S    
C8    C9    1.393020 A    
C57   N21   1.469226 S    
C1    H1    1.074955 S    
N4    N6    1.379404 A    
C62   C63   1.407125 A    
C40   C41   1.398516 A    
C19   C21   1.392818 A    
C59   C60   1.400246 A    
C27   C36   1.483017 S    
C26   C27   1.404293 A    
N1    Ni1   1.851554 S    
C30   N17   1.440309 S    
C58   H36   1.111810 S    
C16   H8    1.080144 S    
C6    C12   1.383398 A    
C34   C35   1.405573 A    
N17   O1    1.301790 A    
C64   C65   1.498385 S    
C29   C30   1.405917 A    
C33   C34   1.397537 A    
C8    N8    1.342283 A    
C4    H2    1.079755 S    
C31   C32   1.398520 A    
N8    Ni3   1.838117 S    
C60   C61   1.406243 A    
C15   N11   1.324660 A    
C66   H39   1.112444 S    
C51   C56   1.379645 A    
N9    N15   1.379405 A    
C18   N14   1.341405 A    
C6    H40   1.073398 S    
C16   C24   1.371708 A    
C37   C38   1.397774 A    
N2    Ni2   1.848591 S    
C56   C57   1.510856 S    
N6    Ni1   1.848215 S    
N4    Ni4   1.837922 S    
C50   N19   1.467188 S    
C50   H24   1.112850 S    
C58   H27   1.112159 S    
C53   C54   1.400650 A    
N7    Ni4   1.852631 S    
N16   Ni3   1.837922 S    
N17   O2    1.301724 A    
C45   C46   1.400193 A    
C17   N13   1.343663 A    
C32   C33   1.411668 A    
N10   N16   1.379404 A    
C44   C45   1.406848 A    
C3    H34   1.076510 S    
C23   C47   1.455339 S    
C41   C42   1.407503 A    
C49   C50   1.510047 S    
C40   H19   1.080809 S    
C7    H4    1.080004 S    
N21   O10   1.301321 A    
N2    N7    1.372433 A    
C13   H5    1.072973 S    
C45   H21   1.082036 S    
N12   N13   1.372673 A    
C20   H31   1.078255 S    
C28   N18   1.440609 S    
C1    N1    1.326268 A    
C10   C44   1.453121 S    
C38   H18   1.082859 S    
C17   H9    1.080973 S    
C49   H23   1.111439 S    
C2    C10   1.378912 A    
C54   H26   1.080739 S    
N3    N5    1.379404 A    
C14   C22   1.391778 A    
C52   C53   1.408618 A    
C65   H38   1.112655 S    
N1    N8    1.372675 A    
N14   Ni1   1.848591 S    
C38   C39   1.395963 A    
C9    C60   1.458136 S    
N12   Ni4   1.838116 S    
N5    Ni2   1.851765 S    
C4    N4    1.340219 A    
C18   H10   1.081036 S    
N13   Ni2   1.851554 S    
N10   Ni2   1.848218 S    
C8    H41   1.079254 S    
C18   C23   1.383318 A    
C46   C47   1.407999 A    
C26   H13   1.083618 S    
C25   H12   1.082672 S    
N18   O4    1.301336 A    
N20   O7    1.299941 A    
C37   C42   1.408754 A    
C39   H33   1.081425 S    
C51   C58   1.499742 S    
C65   C66   1.503527 S    
C43   C48   1.375354 A    
C20   N16   1.338126 A    
C7    C10   1.392102 A    
C63   C64   1.399260 A    
C24   C63   1.456555 S    
C15   H7    1.080257 S    
N3    Ni3   1.852544 S    
C41   H20   1.083043 S    
N20   O8    1.302406 A    
N19   O6    1.302453 A    
C66   H30   1.110095 S    
C5    H3    1.080387 S    
N21   O9    1.301967 A    
C13   N9    1.329729 A    
C31   C36   1.393127 A    
C33   C42   1.486876 S    
C14   N10   1.334771 A    
N11   Ni3   1.852630 S    
C13   C21   1.384841 A    
C35   C36   1.418351 A    
C19   N15   1.338878 A    
C62   H28   1.081891 S    
C61   H37   1.078212 S    
C5    N5    1.339522 A    
C25   C30   1.402980 A    
C11   C55   1.464006 S    
C3    C11   1.377317 A    
C20   C22   1.395309 A    
C5    C11   1.385819 A    
C4    C12   1.390894 A    
C25   C26   1.394422 A    
C2    H32   1.076009 S    
C21   C52   1.464407 S    
C16   N12   1.323168 A    
C15   C23   1.371819 A    
C28   C29   1.407108 A    
C22   C32   1.476251 S    
C34   H16   1.079834 S    
C17   C24   1.385557 A    
C2    N2    1.324837 A    
C7    N7    1.339483 A    
C31   H15   1.081661 S    
C57   C58   1.514787 S    
N18   O3    1.301405 A    
N15   Ni4   1.852543 S    
C6    N6    1.333828 A    
C27   C28   1.418972 A    
C47   C48   1.399662 A    
C57   N20   1.469048 S    
C54   C55   1.409947 A    
C12   C35   1.482821 S    
C65   H29   1.111860 S    
