data_mof_unit_33457.cif
_audit_creation_date              2012-12-10T19:27:35-0500
_audit_creation_method            fapswitch 2.2
_symmetry_space_group_name_H-M    P1
_symmetry_Int_Tables_number       1
_space_group_crystal_system       triclinic
_cell_length_a                    23.458921
_cell_length_b                    10.488222
_cell_length_c                    9.741079
_cell_angle_alpha                 89.699864
_cell_angle_beta                  90.029677
_cell_angle_gamma                 90.146562
_cell_volume                      2396.67714683

loop_
_atom_site_label
_atom_site_type_symbol
_atom_type_description
_atom_site_fract_x
_atom_site_fract_y
_atom_site_fract_z
_atom_type_partial_charge
C1    C     C_R   0.499711 0.257485 0.500444 0.854743
C2    C     C_R   0.705198 0.530495 0.620499 0.124866
C3    C     C_R   0.236817 0.433565 0.605216 0.204347
C4    C     C_R   0.765174 0.524271 0.615103 0.201136
C5    C     C_R   0.208774 0.486293 0.490515 0.260373
C6    C     C_R   0.791998 0.498233 0.489327 0.268604
C7    C     C_3   0.498623 0.039752 0.631158 -0.143887
C8    C     C_3   0.500311 0.960567 0.369019 -0.141099
C9    C     C_3   0.546031 0.957954 0.566590 -0.178329
C10   C     C_3   0.452908 0.042459 0.433629 -0.184978
C11   C     C_3   0.499629 0.877744 0.498697 0.033291
C12   C     C_R   0.499908 0.742591 0.499592 0.855164
C13   C     C_3   0.499379 0.122475 0.501491 0.030030
C14   C     C_3   0.452197 0.956900 0.563122 -0.178356
C15   C     C_3   0.546749 0.043339 0.437082 -0.172375
C16   C     C_R   0.389518 0.497005 0.499945 0.898355
C17   C     C_R   0.610700 0.501893 0.500229 0.893081
C18   C     C_3   0.500475 0.384905 0.049206 -0.091151
C19   C     C_3   0.499577 0.615126 0.950775 -0.077127
C20   C     C_3   0.544787 0.443592 0.951600 -0.063157
C21   C     C_3   0.455251 0.556467 0.048377 -0.069159
C22   C     C_3   0.455666 0.441388 0.951740 -0.075757
C23   C     C_R   0.239571 0.537724 0.380980 -0.153337
C24   C     C_3   0.544380 0.558638 0.048319 -0.077858
C25   C     C_R   0.881612 0.609051 0.488803 0.558901
C26   C     C_R   0.119023 0.376318 0.472261 0.560484
C27   C     C_R   0.879693 0.382125 0.468314 0.496305
C28   C     C_R   0.120862 0.603296 0.493171 0.494944
C29   C     C_R   0.939598 0.376475 0.471608 -0.050479
C30   C     C_R   0.060966 0.608563 0.493853 -0.050666
C31   C     C_R   0.970288 0.492703 0.480792 -0.062655
C32   C     C_R   0.030313 0.492454 0.482143 -0.064376
C33   C     C_R   0.941018 0.609480 0.488947 -0.034384
C34   C     C_R   0.760254 0.476032 0.371033 -0.156003
C35   C     C_R   0.059592 0.375811 0.471877 -0.036416
C36   C     C_R   0.969759 0.259613 0.466709 0.222895
C37   C     C_R   0.030731 0.724945 0.505382 0.223205
C38   C     C_R   0.029240 0.260971 0.463922 -0.240328
C39   C     C_R   0.971324 0.724002 0.499956 -0.242946
C40   C     C_3   0.928751 0.093383 0.606075 -0.689714
C41   C     C_3   0.069168 0.874753 0.667156 -0.683084
C42   C     C_3   0.345066 0.242601 0.689429 -0.769683
C43   C     C_3   0.661712 0.694079 0.759091 -0.753568
C44   C     C_3   0.185257 0.471200 0.815592 -0.800082
C45   C     C_R   0.298410 0.540211 0.385379 -0.279819
C46   C     C_3   0.816817 0.435288 0.807671 -0.800318
C47   C     C_R   0.701422 0.478444 0.376253 -0.279358
C48   C     C_R   0.327416 0.489350 0.498674 -0.099913
C49   C     C_R   0.673233 0.504509 0.499953 -0.106975
C50   C     C_R   0.296889 0.431625 0.607873 0.123269
H1    H     H_    0.582458 0.396241 0.905677 0.128484
H2    H     H_    0.677983 0.458782 0.282851 0.178228
H3    H     H_    0.583962 0.919827 0.620822 0.131511
H4    H     H_    0.415057 0.081937 0.379909 0.137737
H5    H     H_    0.960275 0.071235 0.409433 0.208630
H6    H     H_    0.969006 0.071965 0.661547 0.205625
H7    H     H_    0.902738 0.005085 0.599713 0.254583
H8    H     H_    0.904195 0.165182 0.664914 0.252901
H9    H     H_    0.040599 0.918255 0.471827 0.208260
H10   H     H_    0.028015 0.885560 0.722268 0.204754
H11   H     H_    0.093231 0.965851 0.673511 0.245579
H12   H     H_    0.417598 0.603929 0.094253 0.117240
H13   H     H_    0.094625 0.798904 0.718185 0.255865
H14   H     H_    0.217580 0.577420 0.292852 0.160977
H15   H     H_    0.781459 0.456482 0.274683 0.157237
H16   H     H_    0.308083 0.380543 0.813381 0.220676
H17   H     H_    0.370846 0.206012 0.776675 0.226689
H18   H     H_    0.371949 0.240442 0.595649 0.239343
H19   H     H_    0.307581 0.179105 0.675010 0.237975
H20   H     H_    0.695732 0.524399 0.833428 0.218845
H21   H     H_    0.636109 0.707089 0.853805 0.226318
H22   H     H_    0.635609 0.725221 0.670022 0.240970
H23   H     H_    0.500832 0.287942 0.095454 0.126204
H24   H     H_    0.700524 0.754646 0.765402 0.229166
H25   H     H_    0.220581 0.298134 0.757448 0.240175
H26   H     H_    0.157694 0.422490 0.892332 0.247188
H27   H     H_    0.160065 0.548369 0.766369 0.258721
H28   H     H_    0.222508 0.513450 0.869394 0.230213
H29   H     H_    0.784109 0.618890 0.796990 0.238428
H30   H     H_    0.845352 0.462842 0.893573 0.245233
H31   H     H_    0.840611 0.369925 0.739441 0.260827
H32   H     H_    0.779119 0.384567 0.850423 0.230957
H33   H     H_    0.497852 0.076100 0.738004 0.139168
H34   H     H_    0.499292 0.712063 0.904457 0.123296
H35   H     H_    0.501014 0.924318 0.262134 0.139120
H36   H     H_    0.413757 0.916969 0.614240 0.139817
H37   H     H_    0.585172 0.083418 0.386019 0.138832
H38   H     H_    0.418412 0.391908 0.906278 0.139194
H39   H     H_    0.581712 0.607912 0.094113 0.119125
H40   H     H_    0.051616 0.170809 0.459416 0.185601
H41   H     H_    0.948954 0.813825 0.507754 0.184168
H42   H     H_    0.321307 0.583519 0.300467 0.172334
N1    N     N_R   0.852610 0.496539 0.480837 -0.342185
N2    N     N_2   0.799207 0.548360 0.733494 -0.298484
N3    N     N_R   0.148035 0.488526 0.484849 -0.343100
N4    N     N_3   0.499960 0.500030 0.863290 -0.069276
N5    N     N_3   0.500040 0.499970 0.136710 -0.071426
N6    N     N_2   0.941094 0.139848 0.469099 -0.247997
N7    N     N_2   0.059147 0.843596 0.524608 -0.246447
N8    N     N_2   0.326632 0.371356 0.718088 -0.301426
N9    N     N_2   0.677202 0.561268 0.745938 -0.293456
N10   N     N_2   0.204035 0.380038 0.714431 -0.292212
O1    O     O_R   0.500000 0.313960 0.616610 -0.624211
O2    O     O_2   0.147866 0.265716 0.459876 -0.561984
O3    O     O_2   0.848318 0.275103 0.453383 -0.530362
O4    O     O_2   0.152170 0.711105 0.500931 -0.531494
O5    O     O_R   0.500000 0.686040 0.383390 -0.625535
O6    O     O_R   0.500030 0.313950 0.383350 -0.624937
O7    O     O_R   0.499970 0.686050 0.616650 -0.627591
O8    O     O_R   0.416140 0.499970 0.616650 -0.587664
O9    O     O_R   0.583860 0.500030 0.383350 -0.629386
O10   O     O_R   0.416170 0.499960 0.383400 -0.629698
O11   O     O_R   0.583830 0.500040 0.616600 -0.584645
O12   O     O_2   0.852753 0.720012 0.496866 -0.567301
Zn1   Zn    Zn3+2 0.499980 0.500010 0.655740 0.953619
Zn2   Zn    Zn3+2 0.500020 0.499990 0.344260 0.934345

loop_
_geom_bond_atom_site_label_1
_geom_bond_atom_site_label_2
_ccdc_geom_bond_type
C7    H33   S    
C25   N1    A    
C43   H22   S    
C23   C45   A    
C27   C29   A    
H9    N7    S    
O1    Zn1   S    
C41   H11   S    
C24   H39   S    
C16   C48   S    
H20   N9    S    
C17   O11   A    
C47   C49   A    
C29   C36   A    
C33   C39   A    
C28   N3    A    
C44   H27   S    
C19   C21   S    
C20   H1    S    
C40   N6    S    
C11   C14   S    
C27   O3    S    
C8    H35   S    
H16   N8    S    
C44   H26   S    
C45   H42   S    
C26   O2    S    
C46   H32   S    
C7    C14   S    
C20   C24   S    
C28   O4    S    
C40   H6    S    
C5    C23   A    
H25   N10   S    
C41   N7    S    
N4    Zn1   S    
O9    Zn2   S    
C18   N5    S    
C22   H38   S    
C1    O1    A    
C43   H24   S    
C48   C50   A    
C20   N4    S    
C21   C22   S    
C42   H18   S    
C17   O9    A    
C34   H15   S    
C39   H41   S    
C12   O7    A    
C5    N3    S    
C3    C50   A    
C40   H8    S    
C16   O8    A    
C24   N5    S    
C32   C35   A    
C35   C38   A    
C14   H36   S    
H29   N2    S    
C4    C6    A    
C10   C14   S    
C17   C49   S    
C44   N10   S    
C2    N9    S    
C42   H19   S    
C6    C34   A    
C30   C37   A    
C2    C4    A    
C44   H28   S    
C43   N9    S    
C2    C49   A    
C42   N8    S    
C46   H31   S    
C21   N5    S    
C31   C32   A    
C46   N2    S    
C6    N1    S    
C31   C33   A    
N5    Zn2   S    
C9    C11   S    
C21   H12   S    
C4    N2    S    
C3    N10   S    
C8    C10   S    
C23   H14   S    
C8    C15   S    
C13   C15   S    
C42   H17   S    
C27   N1    A    
C9    H3    S    
C41   H13   S    
C19   H34   S    
O10   Zn2   S    
C16   O10   A    
C15   H37   S    
C45   C48   A    
C26   N3    A    
C7    C9    S    
C43   H21   S    
C40   H7    S    
C18   C22   S    
C22   N4    S    
C41   H10   S    
C3    C5    A    
C10   C13   S    
C12   O5    A    
C11   C12   S    
C47   H2    S    
C18   H23   S    
C38   H40   S    
C50   N8    S    
O6    Zn2   S    
C28   C30   A    
C19   C24   S    
C9    C15   S    
C29   C31   A    
C25   O12   S    
C30   C32   A    
C37   N7    S    
C8    C11   S    
H5    N6    S    
C36   C38   A    
C18   C20   S    
C10   H4    S    
O5    Zn2   S    
O7    Zn1   S    
C1    O6    A    
C26   C35   A    
C7    C13   S    
C1    C13   S    
C37   C39   A    
C36   N6    S    
C34   C47   A    
C46   H30   S    
O8    Zn1   S    
C19   N4    S    
C25   C33   A    
O11   Zn1   S    
