data_mof_unit_43839.cif
_audit_creation_date              2012-12-11T21:20:30-0500
_audit_creation_method            fapswitch 2.2
_symmetry_space_group_name_H-M    P1
_symmetry_Int_Tables_number       1
_space_group_crystal_system       triclinic
_cell_length_a                    8.330247
_cell_length_b                    18.731726
_cell_length_c                    19.066226
_cell_angle_alpha                 104.045159
_cell_angle_beta                  92.558988
_cell_angle_gamma                 91.414361
_cell_volume                      2881.33582565

loop_
_atom_site_label
_atom_site_type_symbol
_atom_type_description
_atom_site_fract_x
_atom_site_fract_y
_atom_site_fract_z
_atom_type_partial_charge
Ba1   Ba    Ba6+2 0.155460 0.532000 0.467920 1.681660
Ba2   Ba    Ba6+2 0.654730 0.467990 0.532020 1.677735
C1    C     C_3   0.357338 0.681274 0.224260 -0.246527
C2    C     C_R   0.076082 0.912155 0.580865 -0.092644
C3    C     C_R   0.205134 0.056565 0.571835 -0.099220
C4    C     C_3   0.901833 0.719735 0.280280 0.454945
C5    C     C_R   0.049725 0.029922 0.543293 0.028681
C6    C     C_R   0.262094 0.126440 0.570819 -0.110599
C7    C     C_R   0.167208 0.173833 0.541714 -0.027327
C8    C     C_R   0.014496 0.147592 0.508486 -0.011590
C9    C     C_R   0.955068 0.075291 0.508983 -0.000404
C10   C     C_R   0.221848 0.246353 0.543779 -0.035348
C11   C     C_R   0.122005 0.292984 0.516028 -0.293375
C12   C     C_3   0.438660 0.724891 0.295889 0.498816
C13   C     C_R   0.976886 0.266982 0.477825 0.073741
C14   C     C_R   0.924322 0.192581 0.472397 -0.081237
C15   C     C_R   0.835138 0.933194 0.513588 0.030485
C16   C     C_3   0.957817 0.776681 0.240618 -0.316127
C17   C     C_R   0.776808 0.860532 0.512926 0.032839
C18   C     C_R   0.874031 0.812990 0.542758 -0.033280
C19   C     C_R   0.018606 0.841642 0.579926 -0.046455
C20   C     C_R   0.789434 0.160335 0.428859 0.013680
C21   C     C_R   0.730670 0.089455 0.427544 0.128561
C22   C     C_R   0.803475 0.048400 0.473911 -0.010648
C23   C     C_3   0.444260 0.704612 0.646779 0.366226
C24   C     C_R   0.737666 0.979894 0.482738 0.018611
C25   C     C_R   0.574197 0.957983 0.466126 -0.110292
C26   C     C_R   0.620965 0.835587 0.482603 -0.029757
C27   C     C_R   0.517999 0.886787 0.464023 -0.103254
C28   C     C_3   0.865285 0.346105 0.295677 0.397414
C29   C     C_R   0.572697 0.760719 0.473294 -0.031056
C30   C     C_R   0.675291 0.713472 0.498390 -0.267405
C31   C     C_R   0.822659 0.738568 0.534972 -0.009242
C32   C     C_R   0.352659 0.540593 0.812468 -0.140247
C33   C     C_R   0.314117 0.534312 0.738503 0.019304
C34   C     C_3   0.397848 0.784585 0.669763 -0.366408
C35   C     C_R   0.174761 0.435312 0.806468 -0.117280
C36   C     C_R   0.101594 0.447360 0.743125 -0.007870
C37   C     C_R   0.634561 0.561149 0.192857 -0.220514
C38   C     C_R   0.700219 0.559506 0.260869 -0.010891
C39   C     C_R   0.456225 0.459062 0.196902 -0.198987
C40   C     C_3   0.962335 0.320554 0.228702 -0.295370
C41   C     C_R   0.487187 0.474349 0.272604 0.050554
C42   C     C_R   0.290742 0.487118 0.847698 0.050030
C43   C     C_R   0.178885 0.492509 0.706578 -0.221409
C44   C     C_R   0.518941 0.506983 0.155803 0.011140
C45   C     C_3   0.894486 0.276405 0.681378 0.375814
C46   C     C_R   0.615680 0.523047 0.303650 0.208903
C47   C     C_R   0.083082 0.442949 0.958840 -0.022475
C48   C     C_R   0.987826 0.420693 0.008004 -0.086449
C49   C     C_R   0.034125 0.441077 0.080479 -0.073802
C50   C     C_R   0.181887 0.477084 0.102193 -0.076764
C51   C     C_R   0.298843 0.481366 0.051988 0.019095
C52   C     C_3   0.860899 0.693524 0.705525 0.407174
C53   C     C_R   0.244827 0.469159 0.977273 0.063177
C54   C     C_R   0.462373 0.501458 0.076282 0.012143
C55   C     C_R   0.568814 0.514874 0.023322 0.005120
C56   C     C_3   0.859634 0.203395 0.701590 -0.092693
C57   C     C_R   0.513874 0.504248 0.949125 0.010950
C58   C     C_R   0.349999 0.485154 0.925086 0.016058
C59   C     C_R   0.731967 0.538583 0.041085 -0.151881
C60   C     C_R   0.826677 0.564200 0.992811 0.398027
C61   C     C_R   0.776908 0.546656 0.920503 -0.042095
C62   C     C_R   0.629295 0.510271 0.898901 -0.146597
C63   C     C_3   0.826352 0.775344 0.730145 -0.357933
C64   C     C_3   0.313658 0.305607 0.367238 0.373152
C65   C     C_3   0.301584 0.221024 0.346029 0.095372
C66   C     C_3   0.410509 0.300644 0.714440 0.818506
C67   C     C_3   0.384174 0.249660 0.764357 -0.245995
C68   C     C_R   0.989618 0.958513 0.545413 0.011565
H1    H     H_    0.535059 0.690664 0.311478 -0.085107
H2    H     H_    0.405793 0.322956 0.412387 0.052499
H3    H     H_    0.309927 0.627360 0.230435 0.112625
H4    H     H_    0.290408 0.201965 0.396492 0.052078
H5    H     H_    0.443115 0.671708 0.180471 0.040642
H6    H     H_    0.562302 0.702640 0.623009 -0.113243
H7    H     H_    0.358273 0.675026 0.603982 0.102441
H8    H     H_    0.488777 0.817081 0.709893 0.104158
H9    H     H_    0.390571 0.808580 0.621919 0.070937
H10   H     H_    0.279701 0.788069 0.694862 0.121051
H11   H     H_    0.257340 0.712117 0.207171 0.131967
H12   H     H_    0.920318 0.264576 0.197651 0.101080
H13   H     H_    0.871003 0.821560 0.246623 0.078188
H14   H     H_    0.844381 0.271642 0.625326 0.041701
H15   H     H_    0.026839 0.285171 0.682720 -0.100666
H16   H     H_    0.922184 0.158860 0.664601 0.065445
H17   H     H_    0.728924 0.189081 0.694259 0.132693
H18   H     H_    0.289725 0.315947 0.696925 -0.195951
H19   H     H_    0.317534 0.278127 0.811696 0.057289
H20   H     H_    0.501543 0.233053 0.784149 0.111187
H21   H     H_    0.313454 0.199535 0.734715 0.032645
H22   H     H_    0.164026 0.348839 0.519177 0.068913
H23   H     H_    0.948853 0.359079 0.193398 0.077096
H24   H     H_    0.382413 0.142295 0.593367 0.099951
H25   H     H_    0.089622 0.809892 0.608878 0.092140
H26   H     H_    0.729944 0.188776 0.392744 0.141688
H27   H     H_    0.393165 0.872453 0.447423 0.113233
H28   H     H_    0.637329 0.656398 0.491268 0.115276
H29   H     H_    0.288566 0.024362 0.594668 0.068939
H30   H     H_    0.188850 0.928651 0.610900 0.060999
H31   H     H_    0.779029 0.701217 0.257752 -0.045167
H32   H     H_    0.486031 0.995781 0.456199 0.082797
H33   H     H_    0.438288 0.583660 0.840061 0.074097
H34   H     H_    0.090905 0.319127 0.244150 0.135969
H35   H     H_    0.137244 0.386622 0.823122 0.046309
H36   H     H_    0.677876 0.604276 0.169328 0.066504
H37   H     H_    0.375447 0.412978 0.171753 0.076700
H38   H     H_    0.131939 0.496109 0.653720 0.074872
H39   H     H_    0.018666 0.443879 0.909559 0.062979
H40   H     H_    0.867773 0.397495 0.991258 0.073751
H41   H     H_    0.949154 0.434669 0.119726 0.092827
H42   H     H_    0.077344 0.801281 0.263316 0.139574
H43   H     H_    0.203384 0.502231 0.158634 0.122677
H44   H     H_    0.794344 0.533763 0.089712 0.069608
H45   H     H_    0.754980 0.662629 0.676133 0.080400
H46   H     H_    0.856532 0.557749 0.880772 0.115389
H47   H     H_    0.603523 0.488320 0.842357 0.171804
H48   H     H_    0.965741 0.750394 0.182077 0.092977
H49   H     H_    0.915287 0.400781 0.326278 0.082876
H50   H     H_    0.002828 0.689677 0.795378 0.177723
H51   H     H_    0.916071 0.608617 0.751284 0.183314
H52   H     H_    0.179426 0.199120 0.246096 0.185997
H53   H     H_    0.137554 0.138988 0.295945 0.170896
H54   H     H_    0.459690 0.206774 0.263407 0.197449
H55   H     H_    0.431915 0.133201 0.296775 0.182196
H56   H     H_    0.936627 0.807265 0.756032 0.111817
H57   H     H_    0.591284 0.815088 0.329647 0.163352
H58   H     H_    0.577126 0.783116 0.240111 0.139983
H59   H     H_    0.847352 0.244702 0.811378 0.214196
H60   H     H_    0.034551 0.224304 0.784239 0.174297
H61   H     H_    0.494216 0.399470 0.722873 0.309415
H62   H     H_    0.840180 0.718156 0.382236 0.141511
H63   H     H_    0.013939 0.764747 0.380005 0.236332
H64   H     H_    0.629870 0.001373 0.349907 0.188802
H65   H     H_    0.498662 0.069201 0.387306 0.174505
H66   H     H_    0.709493 0.486520 0.380058 0.295848
H67   H     H_    0.730946 0.783529 0.769888 0.118325
H68   H     H_    0.992630 0.607559 0.066708 0.300593
H69   H     H_    0.656756 0.303130 0.238549 0.183841
H70   H     H_    0.638886 0.359046 0.319654 0.168678
H71   H     H_    0.785049 0.796815 0.683418 0.046412
H72   H     H_    0.196486 0.327234 0.385996 -0.032576
N1    N     N_3   0.895352 0.664785 0.769142 -0.486198
N2    N     N_3   0.158062 0.194913 0.298589 -0.493660
N3    N     N_3   0.447222 0.190499 0.311652 -0.487380
N4    N     N_3   0.509349 0.793903 0.286114 -0.490332
N5    N     N_3   0.913919 0.206251 0.776239 -0.495757
N6    N     N_3   0.896611 0.754970 0.357345 -0.513182
N7    N     N_3   0.614442 0.057718 0.369935 -0.516063
N8    N     N_3   0.700119 0.353122 0.272542 -0.551100
O1    O     O_2   0.114280 0.679350 0.549180 -0.455223
O2    O     O_2   0.781358 0.476607 0.752202 -0.494226
O3    O     O_3   0.822886 0.334386 0.729682 -0.553753
O4    O     O_3   0.866400 0.589600 0.543550 -0.457178
O5    O     O_3   0.444420 0.455520 0.411210 -0.460503
O6    O     O_2   0.612810 0.550740 0.677950 -0.456780
O7    O     O_3   0.448900 0.674373 0.707405 -0.643552
O8    O     O_2   0.548127 0.245007 0.519965 -0.490593
O9    O     O_3   0.500969 0.263847 0.656787 -0.618703
O10   O     O_3   0.362150 0.623490 0.415650 -0.439623
O11   O     O_2   0.243164 0.752495 0.477471 -0.494266
O12   O     O_3   0.355707 0.332012 0.307470 -0.666658
O13   O     O_3   0.994524 0.683866 0.662584 -0.632843
O14   O     O_3   0.319441 0.741556 0.346903 -0.575011
O15   O     O_2   0.197490 0.449210 0.322030 -0.473470
O16   O     O_3   0.950520 0.583920 0.376610 -0.412269
O17   O     O_2   0.012545 0.517281 0.247330 -0.513947
O18   O     O_3   0.496818 0.363782 0.753657 -0.712770
O19   O     O_3   0.664434 0.533639 0.375176 -0.708419
O20   O     O_3   0.975822 0.598464 0.013387 -0.734444
O21   O     O_3   0.008308 0.660983 0.268549 -0.585884
O22   O     O_2   0.696020 0.320600 0.450800 -0.469506
O23   O     O_3   0.943900 0.410390 0.456390 -0.506574
O24   O     O_3   0.448150 0.376500 0.584290 -0.478140
O25   O     O_3   0.869650 0.292614 0.335946 -0.627814
O26   O     O_3   0.365880 0.544470 0.588730 -0.480349
O27   O     O_3   0.859790 0.416060 0.623340 -0.466120
P1    P     P_3+3 0.941030 0.670050 0.569830 0.985346
P2    P     P_3+3 0.370400 0.428500 0.331430 0.977668
P3    P     P_3+3 0.914801 0.582656 0.286155 0.970869
P4    P     P_3+3 0.869270 0.329940 0.430110 0.965740
P5    P     P_3+3 0.893597 0.417313 0.713569 0.971917
P6    P     P_3+3 0.378357 0.719642 0.428418 0.966083
P7    P     P_3+3 0.434169 0.577795 0.680163 0.952613
P8    P     P_3+3 0.428223 0.282089 0.575666 0.932276

loop_
_geom_bond_atom_site_label_1
_geom_bond_atom_site_label_2
_ccdc_geom_bond_type
C37   H36   S    
O8    P8    D    
Ba1   O26   S    
Ba2   O5    S    
C25   C27   A    
C40   H23   S    
C12   H1    S    
H51   N1    S    
C17   C18   A    
C40   H12   S    
H52   N2    S    
C56   H17   S    
C5    C68   A    
C2    C68   A    
O6    P7    D    
O3    P5    S    
C52   C63   S    
C50   H43   S    
C5    C9    A    
C41   P2    S    
C57   C62   A    
C60   C61   A    
C23   H7    S    
C15   C24   A    
C45   H15   S    
C26   C27   A    
C16   H42   S    
C32   C33   A    
Ba2   O23   S    
C67   H19   S    
C28   N8    S    
H68   O20   S    
C28   H49   S    
C13   C14   A    
C9    C22   A    
C48   H40   S    
C4    N6    S    
C54   C55   A    
C64   O12   S    
O26   P7    S    
Ba1   Ba2   S    
C4    H31   S    
Ba1   O5    S    
C36   C43   A    
Ba2   O26   S    
C38   P3    S    
O22   P4    D    
C64   H2    S    
C3    H29   S    
C66   C67   S    
H53   N2    S    
C65   N3    S    
C14   C20   A    
C39   C44   A    
O7    P7    S    
C52   O13   S    
C66   O9    S    
C1    H5    S    
C7    C8    A    
C16   H48   S    
O10   P6    S    
C43   H38   S    
O25   P4    S    
C63   H67   S    
C52   N1    S    
C21   N7    S    
O23   P4    S    
C15   C68   A    
Ba2   O4    S    
C53   C58   A    
C39   C41   A    
H69   N8    S    
C59   C60   A    
H50   N1    S    
C4    C16   S    
C65   N2    S    
C56   H16   S    
O5    P2    S    
C16   H13   S    
C4    O21   S    
C51   C53   A    
C60   O20   S    
C49   C50   A    
H62   N6    S    
C64   C65   S    
C34   H10   S    
C37   C38   A    
C3    C5    A    
C56   N5    S    
C6    C7    A    
O1    P1    D    
C45   O3    S    
C33   P7    S    
H65   N7    S    
H64   N7    S    
C62   H47   S    
C46   O19   S    
Ba2   P4    S    
O11   P6    D    
H66   O19   S    
C26   C29   A    
C35   H35   S    
C35   C36   A    
C63   H71   S    
Ba1   P1    S    
C29   C30   A    
C11   C13   A    
Ba1   O15   S    
C21   C22   A    
Ba1   O23   S    
C52   H45   S    
O13   P1    S    
C48   C49   A    
C24   C25   A    
C32   C42   A    
H63   N6    S    
C45   H14   S    
C18   C19   A    
C17   C26   A    
O12   P2    S    
C1    C12   S    
C37   C44   A    
C18   C31   A    
C66   O18   S    
Ba2   O27   S    
H61   O18   S    
O4    P1    S    
C11   H22   S    
C23   O7    S    
O15   P2    D    
O21   P3    S    
O16   P3    S    
C61   H46   S    
O2    P5    D    
C67   H20   S    
C33   C43   A    
C6    H24   S    
H70   N8    S    
C28   O25   S    
C50   C51   A    
C47   H39   S    
H57   N4    S    
C41   C46   A    
C51   C54   A    
C38   C46   A    
C49   H41   S    
C39   H37   S    
C29   P6    S    
H60   N5    S    
C20   H26   S    
Ba1   O10   S    
C1    H11   S    
C22   C24   A    
C34   H9    S    
C40   H34   S    
C3    C6    A    
C55   C59   A    
C64   H72   S    
C19   H25   S    
H54   N3    S    
C12   N4    S    
C25   H32   S    
C32   H33   S    
C36   P5    S    
C27   H27   S    
C23   H6    S    
C30   C31   A    
O9    P8    S    
C35   C42   A    
C2    H30   S    
O24   P8    S    
O14   P6    S    
C47   C53   A    
C63   H56   S    
C45   C56   S    
C2    C19   A    
Ba1   P2    S    
H58   N4    S    
C8    C14   A    
Ba1   O16   S    
C42   C58   S    
C66   H18   S    
C10   P8    S    
C13   P4    S    
C15   C17   A    
C30   H28   S    
Ba1   O1    S    
C65   H4    S    
C12   O14   S    
Ba1   O4    S    
C1    H3    S    
C7    C10   A    
O17   P3    D    
H59   N5    S    
C55   C57   A    
C8    C9    A    
C23   C34   S    
C61   C62   A    
C57   C58   A    
C10   C11   A    
C47   C48   A    
C31   P1    S    
C44   C54   S    
C59   H44   S    
C20   C21   A    
C28   C40   S    
C34   H8    S    
C67   H21   S    
H55   N3    S    
Ba2   O24   S    
Ba2   O6    S    
O27   P5    S    
Ba2   O22   S    
