data_mof_unit_10277.cif
_audit_creation_date              2012-12-10T16:52:41-0500
_audit_creation_method            fapswitch 2.2
_symmetry_space_group_name_H-M    P1
_symmetry_Int_Tables_number       1
_space_group_crystal_system       triclinic
_cell_length_a                    7.826925
_cell_length_b                    8.568873
_cell_length_c                    13.757131
_cell_angle_alpha                 93.13639
_cell_angle_beta                  93.571799
_cell_angle_gamma                 94.171086
_cell_volume                      916.802764186

loop_
_atom_site_label
_atom_site_type_symbol
_atom_type_description
_atom_site_fract_x
_atom_site_fract_y
_atom_site_fract_z
_atom_type_partial_charge
C1    C     C_R   0.045142 0.794692 0.497444 0.951553
C2    C     C_R   0.935584 0.485852 0.318015 0.857384
C3    C     C_R   0.092257 0.505574 0.788536 -0.105495
C4    C     C_R   0.895814 0.444092 0.215222 -0.185679
C5    C     C_R   0.019592 0.595345 0.949631 -0.189419
C6    C     C_R   0.886994 0.238430 0.087333 -0.186451
C7    C     C_R   0.978558 0.574915 0.849716 -0.285168
C8    C     C_R   0.966572 0.313862 0.172089 -0.235012
C9    C     C_R   0.239554 0.442052 0.828566 0.351311
C10   C     C_R   0.752072 0.505292 0.170299 0.355087
C11   C     C_R   0.272943 0.449187 0.930676 -0.021164
C12   C     C_R   0.954778 0.205277 0.502280 0.966395
C13   C     C_R   0.654005 0.412873 0.096761 0.041297
C14   C     C_R   0.170756 0.540191 0.989687 0.133403
C15   C     C_R   0.728450 0.284192 0.050764 0.105003
C16   C     C_R   0.415548 0.381812 0.974662 0.033105
C17   C     C_R   0.486080 0.446926 0.065702 0.082073
C18   C     C_R   0.382940 0.537160 0.124077 -0.129784
C19   C     C_R   0.487973 0.250801 0.931603 -0.209384
C20   C     C_R   0.224603 0.579241 0.087067 -0.223980
C21   C     C_R   0.641716 0.201340 0.970199 -0.208871
C22   C     C_2   0.068593 0.958380 0.495842 -0.374304
C23   C     C_2   0.931210 0.041551 0.503464 -0.373691
C24   C     C_R   0.063580 0.507930 0.682498 0.912746
H1    H     H_    0.148117 0.648504 0.133376 0.147031
H2    H     H_    0.801787 0.990056 0.510707 0.182138
H3    H     H_    0.487057 0.374726 0.427593 0.187552
H4    H     H_    0.512933 0.625295 0.572385 0.191969
H5    H     H_    0.806224 0.713715 0.234388 0.326649
H6    H     H_    0.472104 0.435685 0.790676 0.334721
H7    H     H_    0.694592 0.100521 0.935669 0.150850
H8    H     H_    0.078229 0.266303 0.206368 0.173832
H9    H     H_    0.863811 0.622933 0.819620 0.176626
H10   H     H_    0.936605 0.659207 0.994952 0.161313
H11   H     H_    0.943609 0.138672 0.054026 0.149945
H12   H     H_    0.419074 0.569785 0.199954 0.206188
H13   H     H_    0.424236 0.183446 0.869185 0.202679
H14   H     H_    0.198003 0.009873 0.488554 0.184114
N1    N     N_2   0.440860 0.456490 0.474790 -0.160339
N2    N     N_2   0.559140 0.543510 0.525210 -0.158293
O1    O     O_R   0.891570 0.738930 0.506190 -0.611104
O2    O     O_3   0.356963 0.387988 0.766437 -0.766462
O3    O     O_R   0.108430 0.261070 0.493810 -0.605778
O4    O     O_R   0.174650 0.711050 0.490030 -0.629870
O5    O     O_R   0.825350 0.288950 0.509970 -0.623864
O6    O     O_R   0.909850 0.521900 0.644940 -0.630525
O7    O     O_R   0.090150 0.478100 0.355060 -0.622711
O8    O     O_R   0.192930 0.494020 0.628780 -0.553956
O9    O     O_R   0.807070 0.505980 0.371220 -0.596403
O10   O     O_3   0.708146 0.654827 0.196286 -0.792247
Zn1   Zn    Zn3+2 0.810990 0.518620 0.510790 0.953128
Zn2   Zn    Zn3+2 0.189010 0.481380 0.489210 0.961861

loop_
_geom_bond_atom_site_label_1
_geom_bond_atom_site_label_2
_ccdc_geom_bond_type
C2    C4    S    
O7    Zn2   S    
C3    C9    A    
C2    O9    A    
C2    O7    A    
N2    Zn1   S    
C9    C11   A    
C11   C16   A    
C1    O4    A    
C18   C20   A    
C13   C17   A    
C4    C8    A    
C24   O6    A    
C5    H10   S    
O4    Zn2   S    
N1    Zn2   S    
C5    C14   A    
C1    C22   S    
C10   O10   S    
C21   H7    S    
C12   C23   S    
C3    C24   S    
C16   C17   A    
C8    H8    S    
C16   C19   A    
C9    O2    S    
C1    O1    A    
C19   C21   A    
C17   C18   A    
C12   O3    A    
C3    C7    A    
H5    O10   S    
C13   C15   A    
C11   C14   A    
O3    Zn2   S    
C20   H1    S    
H4    N2    S    
C4    C10   A    
C24   O8    A    
C14   C20   A    
C15   C21   A    
C6    H11   S    
C23   H2    S    
N1    N2    D    
C5    C7    A    
C7    H9    S    
O5    Zn1   S    
C22   C23   D    
H6    O2    S    
C6    C8    A    
C19   H13   S    
C6    C15   A    
O8    Zn2   S    
C18   H12   S    
O6    Zn1   S    
O1    Zn1   S    
H3    N1    S    
C12   O5    A    
O9    Zn1   S    
C10   C13   A    
C22   H14   S    
