data_mof_unit_20090.cif
_audit_creation_date              2012-12-10T19:50:55-0500
_audit_creation_method            fapswitch 2.2
_symmetry_space_group_name_H-M    P1
_symmetry_Int_Tables_number       1
_space_group_crystal_system       triclinic
_cell_length_a                    23.528304
_cell_length_b                    10.832648
_cell_length_c                    22.164196
_cell_angle_alpha                 90.006423
_cell_angle_beta                  89.913163
_cell_angle_gamma                 89.855537
_cell_volume                      5649.049158

loop_
_atom_site_label
_atom_site_type_symbol
_atom_type_description
_atom_site_fract_x
_atom_site_fract_y
_atom_site_fract_z
_atom_type_partial_charge
C1    C     C_R   0.498448 0.261880 0.499917 0.804627
C2    C     C_R   0.702041 0.511423 0.445475 -0.192306
C3    C     C_R   0.238685 0.488551 0.554400 -0.086898
C4    C     C_R   0.761298 0.511339 0.445540 -0.083467
C5    C     C_R   0.208945 0.501199 0.500055 0.348405
C6    C     C_R   0.791055 0.498786 0.499879 0.346447
C7    C     C_R   0.366350 0.248124 0.362575 -0.122524
C8    C     C_R   0.633288 0.751880 0.638075 -0.120636
C9    C     C_R   0.393974 0.189469 0.410496 -0.094431
C10   C     C_R   0.605567 0.809471 0.589908 -0.091079
C11   C     C_R   0.443969 0.121394 0.400114 0.102631
C12   C     C_R   0.501574 0.738128 0.500091 0.804029
C13   C     C_R   0.555929 0.878879 0.600133 0.098739
C14   C     C_R   0.465473 0.111671 0.341146 -0.138147
C15   C     C_R   0.534945 0.891108 0.659215 -0.141563
C16   C     C_R   0.390687 0.500279 0.500044 0.802616
C17   C     C_R   0.609313 0.499710 0.499953 0.802451
C18   C     C_R   0.437792 0.170945 0.293421 -0.112577
C19   C     C_R   0.562756 0.833029 0.707204 -0.101886
C20   C     C_R   0.388390 0.239420 0.304154 -0.100229
C21   C     C_R   0.611760 0.763131 0.696610 -0.110466
C22   C     C_R   0.477729 0.933496 0.451574 -0.217536
C23   C     C_R   0.238852 0.514173 0.445762 -0.100411
C24   C     C_R   0.522305 0.066560 0.548455 -0.217239
C25   C     C_R   0.502773 0.871857 0.500272 -0.078130
C26   C     C_R   0.497271 0.128164 0.499762 -0.078164
C27   C     C_R   0.525906 0.938713 0.549113 0.009847
C28   C     C_R   0.474095 0.061331 0.450970 0.007983
C29   C     C_R   0.458653 0.439337 0.871813 0.621718
C30   C     C_R   0.541667 0.560902 0.128124 0.634740
C31   C     C_R   0.542601 0.562343 0.872180 0.601231
C32   C     C_R   0.457505 0.438546 0.127740 0.561307
C33   C     C_R   0.543258 0.563052 0.936010 -0.020485
C34   C     C_R   0.761165 0.485894 0.554188 -0.099889
C35   C     C_R   0.456856 0.437852 0.063914 -0.008063
C36   C     C_R   0.500211 0.500519 0.967859 -0.010734
C37   C     C_R   0.499942 0.500262 0.032072 -0.001490
C38   C     C_R   0.457505 0.438006 0.935628 -0.038964
C39   C     C_R   0.542712 0.562560 0.064304 -0.032327
C40   C     C_R   0.880189 0.596366 0.525547 0.538803
C41   C     C_R   0.119813 0.403645 0.474360 0.538130
C42   C     C_R   0.585722 0.625016 0.968737 -0.141097
C43   C     C_R   0.414401 0.375857 0.031188 -0.153220
C44   C     C_R   0.585440 0.624814 0.031964 -0.132703
C45   C     C_R   0.298096 0.514346 0.445746 -0.238660
C46   C     C_R   0.414756 0.375820 0.967964 -0.138803
C47   C     C_R   0.536712 0.417940 0.257244 0.280106
C48   C     C_R   0.466100 0.587404 0.742770 0.351231
C49   C     C_R   0.535844 0.422316 0.320820 -0.008579
C50   C     C_R   0.466653 0.582757 0.679189 -0.025475
C51   C     C_R   0.463865 0.575078 0.319864 0.039783
C52   C     C_R   0.533730 0.419749 0.680115 0.040890
C53   C     C_R   0.463245 0.574614 0.256537 -0.292670
C54   C     C_R   0.534355 0.419998 0.743442 -0.303528
C55   C     C_R   0.500023 0.496417 0.224293 0.249811
C56   C     C_R   0.701921 0.485720 0.554226 -0.237776
C57   C     C_R   0.500234 0.503659 0.775655 0.252218
C58   C     C_R   0.880749 0.402197 0.474297 0.540751
C59   C     C_R   0.119252 0.597809 0.525614 0.539620
C60   C     C_R   0.940372 0.400626 0.473698 -0.017425
C61   C     C_R   0.059630 0.599388 0.526206 -0.016943
C62   C     C_R   0.970007 0.499826 0.499943 -0.016516
C63   C     C_R   0.029994 0.500191 0.499957 -0.016437
C64   C     C_R   0.939800 0.598660 0.526177 -0.014670
C65   C     C_R   0.060202 0.401357 0.473724 -0.014881
C66   C     C_R   0.970922 0.302463 0.447712 -0.152213
C67   C     C_R   0.328166 0.500964 0.500098 -0.051716
C68   C     C_R   0.029079 0.697554 0.552189 -0.153693
C69   C     C_R   0.030220 0.302825 0.447724 -0.155145
C70   C     C_R   0.969782 0.697193 0.552175 -0.154997
C71   C     C_R   0.671834 0.499019 0.499881 -0.053033
C72   C     C_R   0.297942 0.488461 0.554487 -0.194117
Cu1   Cu    Cu3+1 0.500000 0.499970 0.559570 0.961614
Cu2   Cu    Cu3+1 0.500000 0.500030 0.440430 0.961466
H1    H     H_    0.949145 0.225075 0.427284 0.194442
H2    H     H_    0.380736 0.326887 0.054329 0.188082
H3    H     H_    0.618916 0.673582 0.055411 0.196569
H4    H     H_    0.381315 0.326942 0.944515 0.194335
H5    H     H_    0.563918 0.363216 0.346524 0.173871
H6    H     H_    0.440487 0.645756 0.653457 0.176880
H7    H     H_    0.435382 0.635800 0.344233 0.134943
H8    H     H_    0.560317 0.355129 0.655731 0.137002
H9    H     H_    0.434478 0.635416 0.232614 0.165069
H10   H     H_    0.561154 0.355103 0.767374 0.168273
H11   H     H_    0.052443 0.225706 0.427307 0.192479
H12   H     H_    0.050857 0.774941 0.572618 0.193629
H13   H     H_    0.947558 0.774313 0.572592 0.192393
H14   H     H_    0.216106 0.524595 0.403627 0.146076
H15   H     H_    0.783924 0.475534 0.596319 0.146575
H16   H     H_    0.320308 0.525299 0.403257 0.155272
H17   H     H_    0.679722 0.474811 0.596725 0.156511
H18   H     H_    0.320029 0.478105 0.597030 0.177110
H19   H     H_    0.679941 0.521696 0.402933 0.177549
H20   H     H_    0.215797 0.478257 0.596516 0.154613
H21   H     H_    0.784171 0.521563 0.403411 0.157036
H22   H     H_    0.367052 0.285342 0.267191 0.177751
H23   H     H_    0.503987 0.059696 0.332346 0.165686
H24   H     H_    0.633207 0.718122 0.733767 0.181191
H25   H     H_    0.327802 0.300154 0.370686 0.144079
H26   H     H_    0.671553 0.698805 0.630076 0.144511
H27   H     H_    0.376658 0.197496 0.455644 0.117887
H28   H     H_    0.622571 0.799705 0.544708 0.117329
H29   H     H_    0.525103 0.208017 0.168439 0.344060
H30   H     H_    0.346598 0.689398 0.834049 0.381424
H31   H     H_    0.496760 0.944279 0.667931 0.171424
H32   H     H_    0.454678 0.164022 0.248139 0.157214
H33   H     H_    0.546253 0.841942 0.752591 0.203152
H34   H     H_    0.459063 0.881703 0.414714 0.153487
H35   H     H_    0.540970 0.118413 0.585296 0.152769
H36   H     H_    0.619369 0.674042 0.945593 0.189871
N1    N     N_R   0.852012 0.499113 0.499910 -0.470960
N2    N     N_R   0.147990 0.500889 0.500005 -0.470751
N3    N     N_R   0.500405 0.502072 0.841237 -0.435161
N4    N     N_R   0.499836 0.498375 0.158706 -0.432285
N5    N     N_R   0.500010 0.500010 0.350920 -0.191696
N6    N     N_R   0.499990 0.499990 0.649080 -0.193771
O1    O     O_R   0.500000 0.319610 0.550310 -0.586606
O2    O     O_2   0.149433 0.309105 0.449994 -0.534172
O3    O     O_2   0.851676 0.307290 0.449927 -0.520071
O4    O     O_2   0.148326 0.692708 0.549992 -0.522757
O5    O     O_2   0.418380 0.378127 0.840672 -0.490870
O6    O     O_2   0.582100 0.621622 0.159256 -0.496680
O7    O     O_2   0.583617 0.622196 0.841400 -0.559807
O8    O     O_2   0.416443 0.378775 0.158492 -0.576503
O9    O     O_2   0.638374 0.383678 0.207099 -0.193457
O10   O     O_2   0.598101 0.208675 0.261788 -0.303819
O11   O     O_3   0.557115 0.261553 0.156093 -0.502392
O12   O     O_R   0.500000 0.680390 0.449690 -0.585185
O13   O     O_2   0.455901 0.759568 0.829034 -0.299153
O14   O     O_2   0.402397 0.793414 0.735629 -0.301854
O15   O     O_3   0.366394 0.625379 0.809934 -0.488104
O16   O     O_R   0.499990 0.319670 0.449690 -0.572473
O17   O     O_R   0.500010 0.680330 0.550310 -0.574163
O18   O     O_R   0.417880 0.499930 0.550320 -0.578924
O19   O     O_R   0.582120 0.500070 0.449680 -0.581369
O20   O     O_R   0.417880 0.499990 0.449700 -0.586974
O21   O     O_R   0.582120 0.500010 0.550300 -0.585552
O22   O     O_2   0.850570 0.690909 0.549911 -0.533401
S1    S     S_3+6 0.584396 0.315522 0.220990 0.029935
S2    S     S_3+6 0.422796 0.697603 0.779681 0.001179

loop_
_geom_bond_atom_site_label_1
_geom_bond_atom_site_label_2
_ccdc_geom_bond_type
C63   C65   A    
C34   C56   A    
C59   O4    S    
C23   C45   A    
Cu2   O16   S    
C68   H12   S    
Cu1   Cu2   S    
C32   O8    S    
C24   C27   A    
C1    O16   A    
O14   S2    D    
C35   C43   A    
C54   H10   S    
C48   C57   A    
C47   C49   A    
O9    S1    D    
C15   C19   A    
Cu1   N6    S    
C7    H25   S    
C33   C42   A    
C36   C37   A    
C35   C37   A    
C24   C26   A    
C52   N6    A    
C72   H18   S    
C11   C14   A    
C22   H34   S    
C66   C69   A    
Cu2   N5    S    
C58   C60   A    
C33   C36   A    
C22   C25   A    
C60   C62   A    
C67   C72   A    
C6    N1    S    
C61   C63   A    
C14   C18   A    
C62   C64   A    
O15   S2    S    
C56   H17   S    
Cu2   O12   S    
C30   O6    S    
H30   O15   S    
Cu2   O20   S    
C29   C38   A    
C45   C67   A    
C31   C33   A    
C64   C70   A    
C41   O2    S    
H29   O11   S    
C51   H7    S    
C18   C20   A    
C48   C50   A    
C20   H22   S    
C16   O18   A    
C22   C28   A    
O11   S1    S    
C70   H13   S    
C52   C54   A    
C8    C21   A    
C40   N1    A    
C53   C55   A    
O10   S1    D    
C59   C61   A    
Cu1   O1    S    
C48   S2    S    
C58   N1    A    
C32   C35   A    
C10   H28   S    
C4    C6    A    
C46   H4    S    
C41   C65   A    
C41   N2    A    
C51   N5    A    
C49   H5    S    
C40   O22   S    
C51   C53   A    
C2    C4    A    
C18   H32   S    
C17   O19   A    
C62   C63   A    
C4    H21   S    
C5    C23   A    
C56   C71   A    
Cu2   O19   S    
C59   N2    A    
C16   C67   S    
C1    O1    A    
C52   H8    S    
C45   H16   S    
C9    C11   A    
C68   C70   A    
C49   N5    A    
Cu1   O17   S    
C17   C71   S    
C23   H14   S    
C13   C15   A    
C1    C26   S    
C8    C10   A    
C2    C71   A    
C16   O20   A    
C69   H11   S    
C14   H23   S    
C47   C55   A    
C30   N4    A    
C43   H2    S    
C7    C9    A    
C29   N3    A    
C44   H3    S    
C19   C21   A    
C2    H19   S    
C24   H35   S    
C3    C5    A    
C10   C13   A    
C50   H6    S    
C57   N3    S    
C39   C44   A    
C12   O12   A    
C55   N4    S    
C29   O5    S    
C25   C27   A    
C5    N2    S    
C26   C28   A    
C40   C64   A    
C12   C25   S    
C53   H9    S    
C15   H31   S    
C36   C38   A    
C3    C72   A    
C42   H36   S    
C42   C44   A    
C31   O7    S    
C37   C39   A    
C38   C46   A    
C21   H24   S    
C61   C68   A    
O13   S2    D    
Cu1   O21   S    
C11   C28   S    
C65   C69   A    
C66   H1    S    
C58   O3    S    
C30   C39   A    
C3    H20   S    
C50   N6    A    
C8    H26   S    
C43   C46   A    
C34   H15   S    
C60   C66   A    
C6    C34   A    
Cu1   O18   S    
C9    H27   S    
C7    C20   A    
C47   S1    S    
C13   C27   S    
C17   O21   A    
C32   N4    A    
C31   N3    A    
C12   O17   A    
C54   C57   A    
C19   H33   S    
