data_mof_unit_36315.cif
_audit_creation_date              2013-03-05T16:03:00-0500
_audit_creation_method            fapswitch 2.2
_symmetry_space_group_name_H-M    P1
_symmetry_Int_Tables_number       1
_space_group_crystal_system       triclinic
_cell_length_a                    14.888777
_cell_length_b                    14.021182
_cell_length_c                    10.493376
_cell_angle_alpha                 89.534993
_cell_angle_beta                  90.294212
_cell_angle_gamma                 90.326089
_cell_volume                      2190.44284707

loop_
_atom_site_label
_atom_site_type_symbol
_atom_site_description
_atom_site_fract_x
_atom_site_fract_y
_atom_site_fract_z
_atom_type_partial_charge
O1    O     O_R   0.367850 0.580280 0.500030 -0.619400
O2    O     O_R   0.632150 0.419720 0.499970 -0.619389
O3    O     O_R   0.632150 0.580280 0.499970 -0.618927
O4    O     O_R   0.367850 0.419720 0.500030 -0.618932
C1    C     C_R   0.326995 0.499746 0.499670 0.878164
C2    C     C_R   0.673005 0.500254 0.500331 0.878169
O5    O     O_R   0.499970 0.580260 0.313950 -0.595409
O6    O     O_R   0.500030 0.419740 0.686050 -0.595398
O7    O     O_R   0.500030 0.580260 0.686050 -0.619869
O8    O     O_R   0.499970 0.419740 0.313950 -0.619864
C3    C     C_R   0.498914 0.500404 0.257421 0.958070
C4    C     C_R   0.501087 0.499596 0.742579 0.958073
Zn1   Zn    Zn3+2 0.500000 0.607200 0.500000 0.973035
Zn2   Zn    Zn3+2 0.500000 0.392800 0.500000 0.973043
C5    C     C_3   0.484755 0.588852 0.037424 0.459901
C6    C     C_3   0.515250 0.411151 0.962578 0.459918
C7    C     C_3   0.565414 0.557214 0.959272 0.430956
C8    C     C_3   0.434589 0.442789 0.040727 0.430893
C9    C     C_3   0.418187 0.531031 0.955120 -0.535528
C10   C     C_3   0.581818 0.468975 0.044880 -0.535435
H1    H     H_    0.353205 0.554950 0.913893 0.156702
H2    H     H_    0.646802 0.445063 0.086108 0.156708
C11   C     C_3   0.500372 0.498915 0.876965 -0.216160
C12   C     C_3   0.499632 0.501087 0.123036 -0.216168
C13   C     C_R   0.812556 0.483394 0.387493 -0.258757
C14   C     C_R   0.187444 0.516593 0.612513 -0.258764
C15   C     C_R   0.768130 0.500822 0.500617 -0.039198
C16   C     C_R   0.231871 0.499175 0.499386 -0.039194
C17   C     C_R   0.813557 0.518239 0.614092 -0.242714
C18   C     C_R   0.186443 0.481749 0.385914 -0.242721
C19   C     C_R   0.907159 0.517502 0.616572 0.106441
C20   C     C_R   0.092842 0.482473 0.383438 0.106443
C21   C     C_R   0.953218 0.500301 0.500800 0.006771
C22   C     C_R   0.046782 0.499673 0.499209 0.006772
C23   C     C_R   0.905438 0.483638 0.386344 0.095486
C24   C     C_R   0.094563 0.516338 0.613665 0.095486
C25   C     C_R   0.955770 0.533219 0.730854 0.202266
C26   C     C_R   0.044231 0.466744 0.269159 0.202261
C27   C     C_R   0.049418 0.532526 0.727715 -0.224541
C28   C     C_R   0.950582 0.467439 0.272297 -0.224540
H3    H     H_    0.774503 0.470358 0.300727 0.115154
H4    H     H_    0.225497 0.529629 0.699279 0.115148
H5    H     H_    0.774902 0.531261 0.699358 0.174200
H6    H     H_    0.225099 0.468731 0.300647 0.174200
H7    H     H_    0.087499 0.544673 0.814576 0.146581
H8    H     H_    0.912502 0.455287 0.185437 0.146589
C29   C     C_R   0.548706 0.799012 0.410608 -0.018994
C30   C     C_R   0.451290 0.200988 0.589388 -0.018964
C31   C     C_R   0.451188 0.797353 0.589241 -0.051624
C32   C     C_R   0.548810 0.202647 0.410756 -0.051646
N1    N     N_R   0.500000 0.750030 0.500000 -0.102340
N2    N     N_R   0.500000 0.249970 0.500000 -0.102336
C33   C     C_R   0.449954 0.897965 0.591304 0.016671
C34   C     C_R   0.550041 0.102034 0.408689 0.016636
C35   C     C_R   0.549959 0.899679 0.408542 0.009177
C36   C     C_R   0.450034 0.100321 0.591450 0.009232
C37   C     C_R   0.499984 0.949398 0.499966 0.085486
C38   C     C_R   0.500010 0.050602 0.500027 0.085516
C39   C     C_R   0.399991 0.948147 0.681910 -0.209662
C40   C     C_R   0.600001 0.051853 0.318080 -0.209701
C41   C     C_R   0.599914 0.951595 0.317928 -0.204737
C42   C     C_R   0.400075 0.048404 0.682060 -0.204858
H9    H     H_    0.586623 0.759500 0.341052 0.143079
H10   H     H_    0.413373 0.240500 0.658943 0.143048
H11   H     H_    0.413168 0.756559 0.658694 0.123181
H12   H     H_    0.586830 0.243441 0.341303 0.123208
H13   H     H_    0.360628 0.909851 0.752387 0.135878
H14   H     H_    0.639364 0.090149 0.247604 0.135904
H15   H     H_    0.639083 0.914695 0.247135 0.140010
H16   H     H_    0.360903 0.085305 0.752850 0.139996
O9    O     O_3   0.472331 0.680593 0.088497 -0.596471
C43   C     C_3   0.449478 0.745234 0.990110 0.114259
H17   H     H_    0.379463 0.731726 0.957039 0.137405
H18   H     H_    0.495929 0.740320 0.907543 0.178710
C44   C     C_3   0.455448 0.846251 0.041480 -0.836147
H19   H     H_    0.525215 0.861764 0.073360 0.249922
H20   H     H_    0.436653 0.898285 0.965828 0.207143
H21   H     H_    0.409248 0.854376 0.123454 0.267771
O10   O     O_3   0.527700 0.319414 0.911502 -0.596431
C45   C     C_3   0.550453 0.254755 0.009915 0.114105
H22   H     H_    0.503781 0.259501 0.092232 0.178878
H23   H     H_    0.620350 0.268390 0.043368 0.137396
C46   C     C_3   0.544832 0.153772 0.958398 -0.836355
H24   H     H_    0.591301 0.145807 0.876719 0.267782
H25   H     H_    0.563486 0.101722 0.034100 0.207146
H26   H     H_    0.475200 0.138142 0.926063 0.250091
O11   O     O_3   0.630413 0.618765 0.905549 -0.609273
C47   C     C_3   0.687257 0.654257 0.002494 0.106666
H27   H     H_    0.742842 0.603105 0.019833 0.146716
H28   H     H_    0.651846 0.666439 0.094331 0.159723
C48   C     C_3   0.726470 0.749517 0.959433 -0.836612
H29   H     H_    0.671967 0.802801 0.948858 0.253255
H30   H     H_    0.775663 0.775457 0.031286 0.207589
H31   H     H_    0.760729 0.741914 0.866406 0.262132
O12   O     O_3   0.369580 0.381243 0.094437 -0.609338
C49   C     C_3   0.312743 0.345757 0.997479 0.106545
H32   H     H_    0.348150 0.333612 0.905630 0.159686
H33   H     H_    0.257141 0.396894 0.980171 0.146779
C50   C     C_3   0.273560 0.250473 0.040495 -0.836678
H34   H     H_    0.239312 0.258036 0.133536 0.262154
H35   H     H_    0.224363 0.224542 0.968641 0.207621
H36   H     H_    0.328078 0.197201 0.051020 0.253234
C51   C     C_3   0.909838 0.550907 0.856236 -0.950187
H37   H     H_    0.868286 0.615999 0.848334 0.252808
H38   H     H_    0.866702 0.488892 0.881960 0.242422
H39   H     H_    0.958762 0.561995 0.935046 0.242909
C52   C     C_3   0.090163 0.449039 0.143782 -0.950174
H40   H     H_    0.131729 0.383956 0.151706 0.252819
H41   H     H_    0.041239 0.437925 0.064979 0.242909
H42   H     H_    0.133288 0.511059 0.118035 0.242403

loop_
_geom_bond_atom_site_label_1
_geom_bond_atom_site_label_2
_geom_bond_distance
_ccdc_geom_bond_type
C18   C20   1.393820 A    
O11   C47   1.411860 S    
C15   C17   1.389076 A    
C9    C11   1.547640 S    
O12   C49   1.411876 S    
O3    C2    1.279347 A    
C33   C39   1.405865 A    
C34   C40   1.405868 A    
C5    C9    1.542371 S    
C4    C11   1.410212 S    
C7    C11   1.531592 S    
C31   H11   1.082835 S    
C46   H24   1.110982 S    
C8    C12   1.531604 S    
C9    H1    1.110285 S    
C45   C46   1.521392 S    
C29   H9    1.082914 S    
C30   H10   1.082913 S    
C49   C50   1.520863 S    
C3    C12   1.410206 S    
C7    C10   1.542882 S    
C42   H16   1.083401 S    
C5    C7    1.527602 S    
C8    C9    1.542895 S    
C26   C52   1.508857 S    
O7    Zn1   1.985485 S    
C39   H13   1.083114 S    
Zn1   N1    2.002645 S    
Zn2   N2    2.002647 S    
C50   H34   1.109887 S    
C31   N1    1.366719 A    
C49   H33   1.111526 S    
C32   N2    1.366719 A    
C52   H40   1.107840 S    
C19   C21   1.421076 A    
C20   C26   1.415639 A    
C22   C24   1.413172 A    
O3    Zn1   2.005540 S    
C6    C10   1.542376 S    
C27   H7    1.085058 S    
C17   H5    1.083622 S    
C17   C19   1.393821 A    
C8    O12   1.409738 S    
C52   H41   1.110533 S    
C18   H6    1.083621 S    
O2    C2    1.279565 A    
C43   C44   1.521535 S    
C44   H21   1.111121 S    
O5    C3    1.271323 A    
C10   C12   1.547639 S    
C43   H18   1.114171 S    
O8    Zn2   1.985486 S    
C13   H3    1.086088 S    
C48   H29   1.110684 S    
C25   C51   1.508860 S    
C33   C37   1.408378 A    
C45   H22   1.114017 S    
C29   N1    1.366857 A    
C19   C25   1.415641 A    
C40   C41   1.405733 A    
C20   C22   1.421076 A    
C28   H8    1.085058 S    
C44   H19   1.110530 S    
C48   H30   1.110393 S    
C1    C16   1.416254 S    
C44   H20   1.109690 S    
C2    C15   1.416257 S    
C47   C48   1.520873 S    
C30   N2    1.366858 A    
O6    C4    1.271328 A    
C49   H32   1.115679 S    
C46   H26   1.110398 S    
C21   C22   1.393306 A    
C51   H38   1.110414 S    
C32   C34   1.411268 A    
C32   H12   1.082837 S    
C13   C23   1.382991 A    
C14   C24   1.382991 A    
C5    C12   1.534116 S    
C50   H35   1.110396 S    
C10   H2    1.110283 S    
C6    C11   1.534126 S    
C35   C37   1.408562 A    
C52   H42   1.110428 S    
O1    C1    1.279568 A    
O1    Zn1   2.001321 S    
C14   H4    1.086088 S    
C29   C35   1.411471 A    
C34   C38   1.408377 A    
C41   H15   1.083400 S    
C30   C36   1.411473 A    
C39   C42   1.405731 A    
O6    Zn2   1.991503 S    
C46   H25   1.109690 S    
C7    O11   1.409737 S    
C24   C27   1.396406 A    
C47   H28   1.115681 S    
C43   H17   1.112700 S    
C13   C15   1.385976 A    
C5    O9    1.411024 S    
C14   C16   1.385976 A    
C6    O10   1.411026 S    
C16   C18   1.389069 A    
C23   C28   1.396406 A    
O9    C43   1.409899 S    
C25   C27   1.394961 A    
C48   H31   1.109894 S    
C26   C28   1.394961 A    
C37   C38   1.419013 A    
C31   C33   1.411267 A    
O4    C1    1.279341 A    
C35   C41   1.406075 A    
C21   C23   1.413172 A    
C45   H23   1.112603 S    
C36   C38   1.408562 A    
C51   H39   1.110528 S    
C36   C42   1.406077 A    
O4    Zn2   2.005541 S    
O2    Zn2   2.001319 S    
O7    C4    1.272985 A    
O8    C3    1.272987 A    
O10   C45   1.409900 S    
O5    Zn1   1.991505 S    
C50   H36   1.110685 S    
C47   H27   1.111533 S    
C40   H14   1.083112 S    
C6    C8    1.527617 S    
C51   H37   1.107816 S    
