data_mof_unit_13746.cif
_audit_creation_date              2012-12-10T17:15:11-0500
_audit_creation_method            fapswitch 2.2
_symmetry_space_group_name_H-M    P1
_symmetry_Int_Tables_number       1
_space_group_crystal_system       triclinic
_cell_length_a                    10.10487
_cell_length_b                    10.805819
_cell_length_c                    12.83285
_cell_angle_alpha                 91.983215
_cell_angle_beta                  91.362719
_cell_angle_gamma                 95.046666
_cell_volume                      1394.46212848

loop_
_atom_site_label
_atom_site_type_symbol
_atom_type_description
_atom_site_fract_x
_atom_site_fract_y
_atom_site_fract_z
_atom_type_partial_charge
C1    C     C_R   0.445454 0.267196 0.489967 0.945667
C2    C     C_R   0.645674 0.416529 0.040619 0.384337
C3    C     C_R   0.378676 0.595995 0.851498 -0.294905
C4    C     C_R   0.633638 0.424575 0.147469 -0.276629
C5    C     C_R   0.531806 0.437113 0.871008 0.086601
C6    C     C_R   0.477979 0.581945 0.130397 0.087146
C7    C     C_R   0.549722 0.469421 0.977306 -0.055684
C8    C     C_R   0.466200 0.556789 0.022713 -0.035885
C9    C     C_2   0.416409 0.134870 0.473957 -0.341560
C10   C     C_2   0.588812 0.864232 0.495468 -0.352711
C11   C     C_2   0.518196 0.065190 0.465052 -0.133793
C12   C     C_R   0.555627 0.732606 0.503669 0.931091
C13   C     C_2   0.494384 0.932758 0.461685 -0.145065
C14   C     C_2   0.071209 0.490223 0.508540 -0.093323
C15   C     C_2   0.928767 0.509683 0.491367 -0.097637
C16   C     C_R   0.473612 0.502595 0.698424 0.938009
C17   C     C_R   0.527199 0.500633 0.301724 0.883892
C18   C     C_R   0.546395 0.502422 0.191549 -0.163975
C19   C     C_R   0.458269 0.510171 0.808954 -0.122486
C20   C     C_R   0.373422 0.613642 0.958539 0.406626
H1    H     H_    0.696092 0.373296 0.196939 0.201247
H2    H     H_    0.132429 0.612336 0.404330 0.186559
H3    H     H_    0.363033 0.678303 0.228588 0.253607
H4    H     H_    0.520021 0.743764 0.214891 0.174745
H5    H     H_    0.544503 0.249562 0.880354 0.225460
H6    H     H_    0.662543 0.324823 0.803900 0.284005
H7    H     H_    0.149525 0.533892 0.080272 0.381688
H8    H     H_    0.733127 0.167339 0.018578 0.356569
H9    H     H_    0.317957 0.647097 0.800556 0.211652
H10   H     H_    0.395016 0.892189 0.439041 0.195215
H11   H     H_    0.620952 0.105209 0.468406 0.192100
H12   H     H_    0.687856 0.905293 0.518206 0.166355
H13   H     H_    0.313928 0.094359 0.470897 0.162899
H14   H     H_    0.900272 0.575642 0.434886 0.171877
H15   H     H_    0.099687 0.424200 0.564969 0.172613
H16   H     H_    0.867596 0.387729 0.595715 0.188062
N1    N     N_2   0.162330 0.550370 0.457540 -0.192446
N2    N     N_2   0.837670 0.449630 0.542460 -0.191193
N3    N     N_3   0.438120 0.696120 0.175401 -0.355469
N4    N     N_3   0.564279 0.319580 0.827272 -0.431378
O1    O     O_R   0.567930 0.307680 0.508550 -0.614331
O2    O     O_2   0.135679 0.702043 0.919843 -0.244593
O3    O     O_3   0.167558 0.621613 0.105350 -0.518767
O4    O     O_2   0.844719 0.435321 0.904651 -0.245632
O5    O     O_2   0.900082 0.373289 0.079986 -0.277307
O6    O     O_3   0.769276 0.209561 0.956721 -0.544906
O7    O     O_R   0.432070 0.692320 0.491450 -0.618401
O8    O     O_R   0.351090 0.340020 0.481290 -0.605647
O9    O     O_R   0.648910 0.659980 0.518710 -0.605214
O10   O     O_R   0.590490 0.486480 0.665020 -0.589154
O11   O     O_R   0.409510 0.513520 0.334980 -0.613728
O12   O     O_R   0.373660 0.518820 0.637760 -0.619198
O13   O     O_R   0.626340 0.481180 0.362240 -0.615821
O14   O     O_2   0.290172 0.825026 0.039718 -0.240182
S1    S     S_3+6 0.239365 0.694905 0.004927 0.070869
S2    S     S_3+6 0.794791 0.360492 0.994544 0.029411
Zn1   Zn    Zn3+2 0.644780 0.478400 0.518200 0.979205
Zn2   Zn    Zn3+2 0.355220 0.521600 0.481800 0.969513

loop_
_geom_bond_atom_site_label_1
_geom_bond_atom_site_label_2
_ccdc_geom_bond_type
C2    C4    A    
H6    N4    S    
C15   N2    D    
C3    C19   A    
C5    C19   A    
C10   H12   S    
O2    S1    D    
N2    Zn1   S    
C9    C11   D    
O4    S2    D    
C15   H14   S    
N1    Zn2   S    
C14   C15   S    
C4    C18   A    
C17   O11   A    
H16   N2    S    
C17   C18   S    
C17   O13   A    
C11   H11   S    
C3    C20   A    
C1    O8    A    
O11   Zn2   S    
C2    S2    S    
O7    Zn2   S    
O8    Zn2   S    
C4    H1    S    
C11   C13   S    
H8    O6    S    
C8    C20   A    
O12   Zn2   S    
C9    H13   S    
C12   O7    A    
H3    N3    S    
C10   C12   S    
C1    O1    A    
C16   O10   A    
C12   O9    A    
C20   S1    S    
H5    N4    S    
C16   C19   S    
C16   O12   A    
C6    C18   A    
O1    Zn1   S    
C1    C9    S    
H7    O3    S    
C13   H10   S    
C7    C8    A    
H4    N3    S    
O9    Zn1   S    
C3    H9    S    
C5    N4    S    
O3    S1    S    
C14   H15   S    
C5    C7    A    
O13   Zn1   S    
O14   S1    D    
C6    C8    A    
C6    N3    S    
O10   Zn1   S    
H2    N1    S    
C2    C7    A    
O5    S2    D    
C14   N1    D    
C10   C13   D    
O6    S2    S    
