data_mof_unit_5717.cif
_audit_creation_date              2013-03-05T16:05:03-0500
_audit_creation_method            fapswitch 2.2
_symmetry_space_group_name_H-M    P1
_symmetry_Int_Tables_number       1
_space_group_crystal_system       triclinic
_cell_length_a                    6.921396
_cell_length_b                    23.257505
_cell_length_c                    25.849989
_cell_angle_alpha                 104.693448
_cell_angle_beta                  90.532619
_cell_angle_gamma                 90.393861
_cell_volume                      4024.7450129

loop_
_atom_site_label
_atom_site_type_symbol
_atom_site_description
_atom_site_fract_x
_atom_site_fract_y
_atom_site_fract_z
_atom_type_partial_charge
O1    O     O_R   0.505750 0.453350 0.547660 -0.552945
O2    O     O_R   0.170990 0.432220 0.437590 -0.551337
O3    O     O_R   0.005600 0.546650 0.452340 -0.594758
C1    C     C_R   0.339156 0.415612 0.417250 1.008603
O4    O     O_R   0.175720 0.446240 0.546340 -0.558326
O5    O     O_R   0.010370 0.560770 0.561860 -0.599414
C2    C     C_R   0.345263 0.434477 0.563316 1.053319
O6    O     O_R   0.500990 0.439230 0.438140 -0.611130
O7    O     O_3   0.340820 0.537560 0.504970 -0.292794
V1    V     V_3+5 0.064050 0.493030 0.499080 1.244488
O8    O     O_R   0.680940 0.567780 0.562410 -0.592405
C3    C     C_R   0.850938 0.584189 0.582618 0.981587
O9    O     O_R   0.676210 0.553760 0.453660 -0.608398
C4    C     C_R   0.844652 0.565696 0.437017 0.993073
V2    V     V_3+5 0.564640 0.506970 0.500920 1.214047
O10   O     O_3   0.837740 0.462440 0.495030 -0.244229
C5    C     C_R   0.775938 0.884916 0.123049 -0.158406
H1    H     H_    0.644209 0.904436 0.112651 0.130285
C6    C     C_R   0.765422 0.849205 0.159162 -0.144584
H2    H     H_    0.625908 0.841655 0.175018 0.111215
C7    C     C_R   0.932116 0.822725 0.173949 0.185195
C8    C     C_R   0.109856 0.832926 0.151663 -0.153523
H3    H     H_    0.241205 0.813629 0.162587 0.115076
C9    C     C_R   0.120696 0.868966 0.115727 -0.152654
H4    H     H_    0.260142 0.876066 0.099610 0.130754
C10   C     C_R   0.953730 0.895409 0.100857 -0.126022
C11   C     C_R   0.020420 0.730579 0.202690 -0.272535
H5    H     H_    0.106658 0.716920 0.166993 0.178315
C12   C     C_R   0.003958 0.692644 0.237149 0.323383
C13   C     C_R   0.887227 0.709811 0.283326 -0.198964
C14   C     C_R   0.788637 0.764419 0.293672 0.535353
C15   C     C_R   0.804363 0.800861 0.257815 -0.339861
H6    H     H_    0.728408 0.842715 0.266001 0.132236
C16   C     C_R   0.919758 0.784354 0.212192 0.028753
C17   C     C_R   0.036215 0.664149 0.351481 -0.082691
H7    H     H_    0.172194 0.684723 0.345511 0.179146
C18   C     C_R   0.028119 0.629667 0.388603 -0.131331
H8    H     H_    0.158839 0.624063 0.410087 0.149356
C19   C     C_R   0.853291 0.603334 0.398276 -0.230105
C20   C     C_R   0.687069 0.611992 0.369554 -0.210293
H9    H     H_    0.551025 0.591557 0.375800 0.159293
C21   C     C_R   0.693999 0.645112 0.331141 0.625792
C22   C     C_R   0.871145 0.672237 0.322171 0.055907
C23   C     C_R   0.016681 0.635525 0.668401 -0.082241
C24   C     C_R   0.864453 0.633422 0.631797 -0.185459
C25   C     C_R   0.726774 0.678765 0.641910 -0.161429
C26   C     C_R   0.737572 0.726051 0.688570 0.013147
C27   C     C_R   0.893693 0.727989 0.725022 0.055714
C28   C     C_R   0.032629 0.682442 0.714656 0.107297
C29   C     C_R   0.601397 0.772656 0.698858 0.312889
C30   C     C_R   0.622202 0.819524 0.744922 -0.249374
C31   C     C_R   0.773900 0.821373 0.781934 -0.023636
C32   C     C_R   0.912984 0.775763 0.771435 -0.002420
C33   C     C_R   0.072539 0.778177 0.806866 -0.023628
C34   C     C_R   0.214834 0.733081 0.794506 0.503822
C35   C     C_R   0.189749 0.685199 0.749687 -0.215812
C36   C     C_R   0.790575 0.868588 0.828701 0.328751
C37   C     C_R   0.943784 0.869434 0.865594 -0.301773
C38   C     C_R   0.082791 0.824477 0.854161 -0.173118
H10   H     H_    0.123968 0.600696 0.660648 0.122816
H11   H     H_    0.615708 0.677419 0.612013 0.182650
H12   H     H_    0.515977 0.854464 0.751677 0.214548
H13   H     H_    0.195311 0.825247 0.883633 0.164156
H14   H     H_    0.298641 0.650875 0.741170 0.167188
C39   C     C_R   0.291539 0.176860 0.134817 0.447899
C40   C     C_R   0.455545 0.138975 0.128106 -0.308016
C41   C     C_R   0.599357 0.149560 0.168303 -0.271126
C42   C     C_R   0.578805 0.194970 0.215600 0.142843
C43   C     C_R   0.411683 0.230569 0.223325 -0.012787
C44   C     C_R   0.267271 0.220976 0.183119 0.045472
C45   C     C_R   0.721441 0.204688 0.255865 -0.203175
C46   C     C_R   0.700015 0.249449 0.303088 -0.176305
C47   C     C_R   0.535022 0.285295 0.311188 0.151871
C48   C     C_R   0.389508 0.276056 0.271303 0.025850
C49   C     C_R   0.222426 0.312081 0.279267 -0.015561
C50   C     C_R   0.077552 0.300386 0.239201 -0.213033
C51   C     C_R   0.100655 0.256162 0.191848 -0.124624
C52   C     C_R   0.513961 0.330064 0.358617 -0.302003
C53   C     C_R   0.349532 0.366384 0.367430 -0.244794
C54   C     C_R   0.204087 0.358156 0.327348 0.453670
H15   H     H_    0.725234 0.121261 0.163413 0.164314
H16   H     H_    0.850428 0.177768 0.250760 0.140010
H17   H     H_    0.813267 0.256141 0.333317 0.143868
H18   H     H_    0.626813 0.336750 0.389003 0.177108
H19   H     H_    0.943005 0.324382 0.243985 0.157495
H20   H     H_    0.985146 0.249198 0.162288 0.186056
C55   C     C_R   0.283295 0.103359 0.867916 -0.104371
H21   H     H_    0.160920 0.075437 0.871589 0.148293
C56   C     C_R   0.270643 0.138643 0.831509 -0.143270
H22   H     H_    0.138835 0.137579 0.808340 0.126496
C57   C     C_R   0.425249 0.175793 0.825736 0.113136
C58   C     C_R   0.593918 0.176445 0.856605 -0.132332
H23   H     H_    0.715561 0.204471 0.852553 0.122852
C59   C     C_R   0.608203 0.140238 0.892322 -0.129916
H24   H     H_    0.740358 0.141437 0.915352 0.130025
C60   C     C_R   0.452365 0.103594 0.898704 -0.126665
C61   C     C_R   0.449637 0.275021 0.804632 -0.180586
H25   H     H_    0.488530 0.295222 0.845966 0.135386
C62   C     C_R   0.436043 0.310866 0.768683 -0.023212
H26   H     H_    0.463318 0.358141 0.783197 0.150562
C63   C     C_R   0.389244 0.285928 0.714482 0.225395
C64   C     C_R   0.346833 0.224736 0.697748 -0.144169
H27   H     H_    0.309669 0.204279 0.656347 0.126303
C65   C     C_R   0.356009 0.189120 0.734018 -0.149533
H28   H     H_    0.324780 0.141997 0.719978 0.138526
C66   C     C_R   0.410341 0.213784 0.787611 0.082706
C67   C     C_R   0.223456 0.320069 0.641555 -0.300725
H29   H     H_    0.107364 0.289354 0.643719 0.185121
C68   C     C_R   0.207657 0.356074 0.605399 0.475655
C69   C     C_R   0.358272 0.396369 0.602197 -0.357183
C70   C     C_R   0.524793 0.399353 0.635412 0.358475
C71   C     C_R   0.537626 0.363065 0.672099 0.199889
C72   C     C_R   0.384845 0.323472 0.675359 -0.118174
O11   O     O_R   0.308350 0.060850 0.061810 -0.585627
O12   O     O_R   0.633860 0.053770 0.953650 -0.580409
O13   O     O_R   0.798960 0.939210 0.938150 -0.562610
C73   C     C_R   0.464518 0.065643 0.936999 0.994253
O14   O     O_R   0.638360 0.067800 0.062400 -0.587686
O15   O     O_R   0.803500 0.953330 0.047670 -0.603633
C74   C     C_R   0.469353 0.086186 0.081264 0.940129
O16   O     O_R   0.303810 0.046730 0.952290 -0.606160
O17   O     O_3   0.468430 0.962490 0.995010 -0.263125
V3    V     V_3+5 0.745300 0.006960 0.000930 1.217185
O18   O     O_R   0.132880 0.946160 0.046390 -0.605969
C75   C     C_R   0.964207 0.934061 0.062902 0.915941
O19   O     O_R   0.128380 0.932130 0.937650 -0.574727
C76   C     C_R   0.958390 0.916759 0.916577 1.017316
V4    V     V_3+5 0.244670 0.992930 0.999140 1.204976
O20   O     O_3   0.971670 0.037510 0.005000 -0.267558
O21   O     O_3   0.525696 0.648593 0.303010 -0.732081
H30   H     H_    0.553372 0.666357 0.272925 0.345208
N1    N     N_R   0.442353 0.774127 0.662983 0.233688
O22   O     O_R   0.329608 0.728021 0.646547 -0.431117
O23   O     O_R   0.390485 0.824433 0.654007 -0.361218
N2    N     N_R   0.655951 0.916695 0.837832 0.227107
O24   O     O_R   0.714438 0.969757 0.837093 -0.412087
O25   O     O_R   0.477689 0.908234 0.849859 -0.428191
O26   O     O_3   0.380789 0.733871 0.824660 -0.742577
H31   H     H_    0.424011 0.775611 0.838615 0.323718
O27   O     O_3   0.154434 0.172496 0.094762 -0.753989
H32   H     H_    0.219654 0.160237 0.059784 0.313176
O28   O     O_3   0.049998 0.396721 0.335800 -0.750280
H33   H     H_    0.014882 0.405656 0.301507 0.320957
O29   O     O_3   0.047840 0.351448 0.572079 -0.734106
H34   H     H_    0.955604 0.321930 0.579756 0.319148
O30   O     O_3   0.672140 0.438456 0.631408 -0.706051
H35   H     H_    0.794386 0.426116 0.645309 0.362081
N3    N     N_R   0.706302 0.366257 0.705585 0.218666
O31   O     O_R   0.759700 0.416673 0.737641 -0.386003
O32   O     O_R   0.800616 0.318267 0.706318 -0.432397
N4    N     N_R   0.102288 0.636471 0.223738 0.256061
O33   O     O_R   0.025555 0.589638 0.234462 -0.366380
O34   O     O_R   0.257456 0.630120 0.194851 -0.371976
O35   O     O_3   0.678635 0.781354 0.339275 -0.740946
H36   H     H_    0.618483 0.820257 0.340554 0.321024

loop_
_geom_bond_atom_site_label_1
_geom_bond_atom_site_label_2
_geom_bond_distance
_ccdc_geom_bond_type
C23   C28   1.402337 A    
C34   C35   1.397025 A    
C63   C64   1.406521 A    
O13   V3    1.994107 S    
C11   C12   1.408562 A    
C63   C72   1.494650 S    
C47   C48   1.410276 A    
C17   H7    1.082829 S    
C1    O6    1.295300 A    
V4    O20   2.149625 S    
C65   C66   1.404955 A    
C61   H25   1.083113 S    
N2    O24   1.300943 A    
C32   C33   1.419799 A    
C23   C24   1.401826 A    
O19   C76   1.300905 A    
C34   O26   1.379528 S    
C5    C10   1.408177 A    
C6    C7    1.406244 A    
N3    O32   1.301051 A    
O5    C3    1.293564 A    
C13   C14   1.411809 A    
V2    O10   2.149657 S    
C73   O16   1.294855 A    
C69   C70   1.421515 A    
C71   C72   1.414524 A    
C4    C19   1.489254 S    
C25   C26   1.412128 A    
C39   O27   1.382042 S    
O8    V2    1.998719 S    
C67   C72   1.401134 A    
C62   H26   1.082519 S    
C42   C43   1.413139 A    
O12   C73   1.300261 A    
O13   C76   1.293423 A    
N4    O33   1.301266 A    
C35   H14   1.084435 S    
O1    V2    1.986874 S    
C56   C57   1.403398 A    
C12   C13   1.420436 A    
C17   C22   1.404960 A    
C49   C54   1.427712 A    
C59   C60   1.406754 A    
C45   H16   1.083700 S    
C20   C21   1.403566 A    
C40   C41   1.406681 A    
C37   C76   1.489521 S    
C40   C74   1.494099 S    
O9    C4    1.298779 A    
V3    O20   1.707180 S    
C44   C51   1.405211 A    
C67   C68   1.408228 A    
C57   C66   1.484518 S    
C43   C44   1.410324 A    
C30   H12   1.081681 S    
C65   H28   1.083090 S    
C61   C62   1.399959 A    
C5    H1    1.082901 S    
C26   C29   1.416497 A    
C33   C38   1.410238 A    
C8    H3    1.082945 S    
C11   C16   1.403301 A    
O27   H32   0.990557 S    
C27   C32   1.417943 A    
O12   V3    1.985679 S    
C48   C49   1.418435 A    
C25   H11   1.079609 S    
C41   C42   1.407374 A    
C60   C73   1.486196 S    
C9    H4    1.082839 S    
O16   V4    1.992688 S    
C31   C36   1.415232 A    
C70   O30   1.383786 S    
C57   C58   1.405753 A    
O4    C2    1.303920 A    
C52   C53   1.407509 A    
O29   H34   0.991817 S    
C7    C16   1.493019 S    
C37   C38   1.403068 A    
C24   C25   1.402536 A    
C71   N3    1.437087 S    
C10   C75   1.491261 S    
C15   C16   1.402923 A    
O2    C1    1.301902 A    
C49   C50   1.409311 A    
C18   H8    1.083063 S    
C12   N4    1.441196 S    
O11   V4    1.998241 S    
C26   C27   1.420007 A    
C47   C52   1.402270 A    
C55   C60   1.408257 A    
C58   C59   1.401852 A    
C29   C30   1.401069 A    
C43   C48   1.421650 A    
C21   O21   1.381210 S    
C50   C51   1.396071 A    
C64   C65   1.401020 A    
O14   V3    1.992642 S    
O35   H36   0.991615 S    
O3    C4    1.296789 A    
C29   N1    1.438952 S    
C1    C53   1.493110 S    
C61   C66   1.403741 A    
O15   C75   1.296668 A    
C20   H9    1.083606 S    
C62   C63   1.407523 A    
C51   H20   1.083220 S    
C41   H15   1.084405 S    
O6    V2    1.997493 S    
C54   O28   1.381201 S    
C55   C56   1.399308 A    
C8    C9    1.402365 A    
C13   C22   1.493396 S    
C21   C22   1.422649 A    
C67   H29   1.082719 S    
O2    V1    1.992603 S    
C19   C20   1.406622 A    
C14   O35   1.381934 S    
C31   C32   1.413671 A    
O30   H35   0.988629 S    
O7    V1    2.157019 S    
N2    O25   1.300968 A    
C33   C34   1.422021 A    
C27   C28   1.411900 A    
O19   V4    1.998575 S    
C70   C71   1.423025 A    
C17   C18   1.399257 A    
O1    C2    1.296960 A    
C14   C15   1.410123 A    
C9    C10   1.408156 A    
C46   C47   1.404268 A    
O5    V1    1.994002 S    
O8    C3    1.297778 A    
C3    C24   1.481176 S    
O15   V3    1.984995 S    
C28   C35   1.399300 A    
C38   H13   1.081257 S    
C2    C69   1.501703 S    
O18   V4    1.988395 S    
C15   H6    1.083192 S    
C6    H2    1.082969 S    
O9    V2    1.988321 S    
O21   H30   0.988396 S    
O7    V2    1.702161 S    
C30   C31   1.406936 A    
C18   C19   1.405330 A    
O3    V1    1.985162 S    
V1    O10   1.707194 S    
C68   C69   1.413984 A    
C36   C37   1.416264 A    
C23   H10   1.084637 S    
C42   C45   1.402691 A    
C58   H23   1.083238 S    
C5    C6    1.400116 A    
N1    O22   1.300212 A    
C68   O29   1.382268 S    
N3    O31   1.301353 A    
N4    O34   1.301523 A    
O17   V4    1.700288 S    
C64   H27   1.082944 S    
O14   C74   1.304098 A    
C46   H17   1.083745 S    
O26   H31   0.989122 S    
C53   C54   1.414562 A    
C52   H18   1.084545 S    
O4    V1    1.985578 S    
C45   C46   1.398838 A    
C55   H21   1.083215 S    
N1    O23   1.301341 A    
C39   C40   1.426483 A    
C11   H5    1.082990 S    
O17   V3    2.156949 S    
O28   H33   0.989069 S    
C36   N2    1.435348 S    
C56   H22   1.083331 S    
C7    C8    1.407148 A    
C50   H19   1.080870 S    
C59   H24   1.083043 S    
O11   C74   1.293117 A    
C39   C44   1.412929 A    
O18   C75   1.299993 A    
