data_mof_unit_68570.cif
_audit_creation_date              2012-12-11T14:19:30-0500
_audit_creation_method            fapswitch 2.2
_symmetry_space_group_name_H-M    P1
_symmetry_Int_Tables_number       1
_space_group_crystal_system       triclinic
_cell_length_a                    8.277372
_cell_length_b                    12.711325
_cell_length_c                    14.987434
_cell_angle_alpha                 95.945327
_cell_angle_beta                  99.166608
_cell_angle_gamma                 97.76755
_cell_volume                      1529.83176676

loop_
_atom_site_label
_atom_site_type_symbol
_atom_type_description
_atom_site_fract_x
_atom_site_fract_y
_atom_site_fract_z
_atom_type_partial_charge
Ba1   Ba    Ba6+2 0.153570 0.551840 0.456200 1.623152
Ba2   Ba    Ba6+2 0.656590 0.448150 0.543720 1.614564
C1    C     C_3   0.383052 0.817669 0.114817 -0.230782
C2    C     C_R   0.724327 0.818476 0.474698 -0.267832
C3    C     C_R   0.691299 0.996273 0.437570 -0.093059
C4    C     C_3   0.898498 0.837236 0.255970 0.333278
C5    C     C_R   0.625964 0.888262 0.435647 0.000431
C6    C     C_R   0.886555 0.853891 0.519988 0.028068
C7    C     C_R   0.951579 0.966254 0.527434 -0.053262
C8    C     C_R   0.852501 0.038746 0.484930 -0.050717
C9    C     C_R   0.917985 0.151208 0.491688 0.076865
C10   C     C_R   0.177376 0.116611 0.577030 -0.002821
C11   C     C_R   0.113363 0.008047 0.573539 -0.107553
C12   C     C_3   0.393588 0.783150 0.210228 0.381693
C13   C     C_R   0.213134 0.499349 0.773104 -0.213302
C14   C     C_R   0.125504 0.443134 0.830292 0.030040
C15   C     C_R   0.198940 0.440613 0.920611 -0.149721
C16   C     C_3   0.852187 0.935381 0.214140 -0.412674
C17   C     C_R   0.365637 0.488429 0.953793 0.016979
C18   C     C_R   0.458594 0.528777 0.889621 -0.138263
C19   C     C_R   0.383546 0.534520 0.800681 0.019976
C20   C     C_R   0.602119 0.556245 0.086668 -0.136699
C21   C     C_R   0.669682 0.570404 0.178947 0.016767
C22   C     C_R   0.417833 0.475726 0.212136 0.056763
C23   C     C_3   0.429602 0.785878 0.744888 0.226126
C24   C     C_R   0.350852 0.458124 0.118928 -0.129672
C25   C     C_R   0.440335 0.499918 0.053808 0.007575
C26   C     C_R   0.575766 0.533758 0.241974 -0.277244
C27   C     C_3   0.666048 0.259603 0.258743 0.353196
C28   C     C_3   0.541354 0.170782 0.197965 -0.334318
C29   C     C_3   0.929339 0.760466 0.734822 0.263062
C30   C     C_3   0.941595 0.861851 0.799847 -0.404056
C31   C     C_3   0.222191 0.230059 0.350957 0.272538
C32   C     C_3   0.213629 0.108882 0.337245 -0.365339
C33   C     C_3   0.204975 0.816069 0.068145 -0.365509
C34   C     C_3   0.488309 0.905271 0.750418 -0.178313
C35   C     C_3   0.568143 0.929597 0.668008 -0.307011
C36   C     C_3   0.967634 0.103721 0.941765 -0.381559
C37   C     C_3   0.121784 0.528580 0.686319 -0.235952
C38   C     C_3   0.756799 0.327488 0.198636 -0.338678
C39   C     C_3   0.966924 0.176528 0.789723 0.366173
C40   C     C_3   0.071728 0.143989 0.873050 -0.211836
C41   C     C_3   0.452590 0.229232 0.794844 0.385219
C42   C     C_3   0.501773 0.203936 0.891739 -0.384242
C43   C     C_R   0.077811 0.187259 0.540133 -0.266018
H1    H     H_    0.307015 0.707382 0.207075 0.080035
H2    H     H_    0.171782 0.077102 0.264352 0.132771
H3    H     H_    0.126555 0.070222 0.377319 0.067382
H4    H     H_    0.521965 0.767859 0.231919 -0.092123
H5    H     H_    0.441765 0.762477 0.072111 0.072185
H6    H     H_    0.346756 0.760532 0.679437 0.110087
H7    H     H_    0.365266 0.769471 0.802896 0.000685
H8    H     H_    0.579375 0.933128 0.814167 0.105589
H9    H     H_    0.380517 0.948271 0.752426 0.100297
H10   H     H_    0.887760 0.104280 0.750544 0.023526
H11   H     H_    0.047948 0.207640 0.742879 -0.075531
H12   H     H_    0.444320 0.205219 0.155366 0.090193
H13   H     H_    0.139834 0.079934 0.849646 0.068490
H14   H     H_    0.323192 0.245101 0.785185 -0.094804
H15   H     H_    0.534014 0.302630 0.786305 0.111822
H16   H     H_    0.480527 0.269661 0.941281 0.070152
H17   H     H_    0.634391 0.195277 0.905462 0.155786
H18   H     H_    0.013890 0.861023 0.307070 0.097490
H19   H     H_    0.192392 0.956818 0.605473 0.092037
H20   H     H_    0.129803 0.270717 0.543881 0.050088
H21   H     H_    0.672327 0.735001 0.471023 0.075007
H22   H     H_    0.680424 0.590366 0.043018 0.069774
H23   H     H_    0.604677 0.122371 0.152296 0.099505
H24   H     H_    0.122154 0.402042 0.963055 0.067335
H25   H     H_    0.229763 0.410824 0.099643 0.072826
H26   H     H_    0.588748 0.559098 0.906483 0.085121
H27   H     H_    0.629212 0.545101 0.313682 0.077098
H28   H     H_    0.838256 0.998282 0.268290 0.099844
H29   H     H_    0.948435 0.967332 0.176194 0.118883
H30   H     H_    0.599698 0.310580 0.300239 0.035346
H31   H     H_    0.481953 0.116361 0.240456 0.120075
H32   H     H_    0.928149 0.929846 0.760164 0.089488
H33   H     H_    0.204399 0.839113 0.998671 0.092854
H34   H     H_    0.937205 0.693191 0.776045 0.057286
H35   H     H_    0.145876 0.874346 0.107173 0.169592
H36   H     H_    0.133019 0.734522 0.062051 0.155381
H37   H     H_    0.337541 0.087290 0.360029 0.125697
H38   H     H_    0.657642 0.875413 0.655071 0.079449
H39   H     H_    0.471800 0.920509 0.606116 0.134830
H40   H     H_    0.637961 0.011500 0.680161 0.163333
H41   H     H_    0.451788 0.899887 0.119281 0.109228
H42   H     H_    0.733777 0.913464 0.165640 0.109041
H43   H     H_    0.163473 0.213655 0.907777 0.088766
H44   H     H_    0.860666 0.043148 0.907351 0.122552
H45   H     H_    0.809016 0.745564 0.688169 0.074707
H46   H     H_    0.045236 0.066845 0.993593 0.112298
H47   H     H_    0.921048 0.171457 0.977278 0.140351
H48   H     H_    0.428208 0.127833 0.901820 0.099383
H49   H     H_    0.613645 0.046030 0.402550 0.096600
H50   H     H_    0.796645 0.807189 0.291280 -0.039561
H51   H     H_    0.177745 0.606085 0.671431 0.098758
H52   H     H_    0.120157 0.466267 0.628486 0.135106
H53   H     H_    0.995145 0.542450 0.693010 0.135578
H54   H     H_    0.829200 0.399741 0.241449 0.130854
H55   H     H_    0.842821 0.282232 0.166273 0.124545
H56   H     H_    0.063777 0.877817 0.845853 0.110996
H57   H     H_    0.668088 0.351640 0.143815 0.046401
H58   H     H_    0.842727 0.853221 0.841754 0.117462
H59   H     H_    0.099347 0.249794 0.358691 0.041686
H60   H     H_    0.312745 0.261715 0.414161 0.069907
O1    O     O_2   0.168170 0.764170 0.543850 -0.460304
O2    O     O_2   0.788015 0.437145 0.820587 -0.495092
O3    O     O_3   0.862707 0.247028 0.817988 -0.594027
O4    O     O_3   0.898670 0.629780 0.545890 -0.488577
O5    O     O_3   0.409490 0.443300 0.392340 -0.491043
O6    O     O_2   0.674250 0.555830 0.719690 -0.452139
O7    O     O_3   0.566841 0.733705 0.747375 -0.659130
O8    O     O_2   0.508915 0.116202 0.561747 -0.487084
O9    O     O_3   0.470531 0.142779 0.732674 -0.612335
O10   O     O_3   0.365980 0.695510 0.380810 -0.479266
O11   O     O_2   0.286124 0.884166 0.435286 -0.489395
O12   O     O_3   0.267586 0.271827 0.274008 -0.646524
O13   O     O_3   0.064066 0.769634 0.689166 -0.671750
O14   O     O_3   0.354324 0.864049 0.270985 -0.613051
O15   O     O_2   0.136040 0.444100 0.280280 -0.458484
O16   O     O_3   0.934510 0.640480 0.335500 -0.480234
O17   O     O_2   0.007336 0.568989 0.175928 -0.490153
O18   O     O_3   0.925601 0.761424 0.186760 -0.605076
O19   O     O_2   0.642110 0.235770 0.456130 -0.476428
O20   O     O_3   0.911620 0.370210 0.454030 -0.492765
O21   O     O_3   0.444310 0.304480 0.619110 -0.478693
O22   O     O_3   0.783017 0.211000 0.311254 -0.647521
O23   O     O_3   0.400800 0.556680 0.607590 -0.475700
O24   O     O_3   0.875770 0.359510 0.664420 -0.480634
P1    P     P_3+3 0.998660 0.747790 0.570900 0.946576
P2    P     P_3+3 0.306970 0.411860 0.294270 0.975224
P3    P     P_3+3 0.885203 0.632885 0.217915 0.951481
P4    P     P_3+3 0.811620 0.252200 0.429030 0.968987
P5    P     P_3+3 0.914365 0.372792 0.784375 0.951809
P6    P     P_3+3 0.409194 0.834396 0.382503 0.949476
P7    P     P_3+3 0.503507 0.596461 0.721183 0.927320
P8    P     P_3+3 0.398054 0.167852 0.621769 0.938962

loop_
_geom_bond_atom_site_label_1
_geom_bond_atom_site_label_2
_ccdc_geom_bond_type
C2    H21   S    
O21   P8    S    
C31   O12   S    
C39   O3    S    
O18   P3    S    
O15   P2    D    
C39   C40   S    
C17   C18   A    
Ba1   O23   S    
C2    C6    A    
C14   P5    S    
C40   H13   S    
C38   H54   S    
C3    H49   S    
C33   H36   S    
Ba2   O4    S    
O11   P6    D    
O3    P5    S    
C36   H44   S    
C24   C25   A    
O19   P4    D    
C35   H40   S    
C34   C35   S    
C22   C24   A    
C36   C40   S    
O2    P5    D    
O23   P7    S    
C41   O9    S    
O6    P7    D    
C37   H52   S    
C12   H4    S    
C13   C14   A    
C31   H59   S    
C28   H12   S    
C36   H47   S    
C33   H35   S    
Ba2   O24   S    
Ba1   Ba2   S    
O9    P8    S    
C7    C11   A    
C39   H10   S    
C34   H8    S    
C23   O7    S    
Ba1   O4    S    
C30   H32   S    
C14   C15   A    
C35   H39   S    
C42   H48   S    
C17   C25   S    
C7    C8    A    
C19   P7    S    
C41   H14   S    
Ba1   O1    S    
C16   H29   S    
C1    H41   S    
C26   H27   S    
C4    O18   S    
O7    P7    S    
C2    C5    A    
O17   P3    D    
C1    H5    S    
C4    C16   S    
Ba2   O6    S    
Ba2   P4    S    
C22   C26   A    
C31   H60   S    
C12   H1    S    
Ba1   P1    S    
C3    C5    A    
C6    C7    A    
C37   H53   S    
C42   H17   S    
C36   H46   S    
O14   P6    S    
C20   H22   S    
Ba1   O15   S    
C4    H18   S    
C41   C42   S    
C23   H6    S    
C29   O13   S    
C5    P6    S    
C27   C28   S    
O13   P1    S    
Ba1   O5    S    
C28   H31   S    
C29   C30   S    
C1    C33   S    
C29   H45   S    
C31   C32   S    
C30   H58   S    
O5    P2    S    
C18   H26   S    
C21   C26   A    
C10   C11   A    
C13   C37   S    
C1    C12   S    
C41   H15   S    
Ba2   O21   S    
C4    H50   S    
C16   H28   S    
C20   C25   A    
C27   O22   S    
C6    P1    S    
C24   H25   S    
O8    P8    D    
C9    C43   A    
C40   H43   S    
O16   P3    S    
O20   P4    S    
O1    P1    D    
C15   H24   S    
Ba2   O5    S    
C30   H56   S    
C10   P8    S    
C39   H11   S    
O22   P4    S    
Ba1   O20   S    
C10   C43   A    
Ba1   P2    S    
C38   H55   S    
C29   H34   S    
C27   H30   S    
Ba2   O19   S    
C42   H16   S    
Ba1   O10   S    
C33   H33   S    
C16   H42   S    
C9    P4    S    
C23   H7    S    
C3    C8    A    
C43   H20   S    
C22   P2    S    
C11   H19   S    
O10   P6    S    
C27   C38   S    
C15   C17   A    
C21   P3    S    
O12   P2    S    
Ba1   O16   S    
C37   H51   S    
C34   H9    S    
C8    C9    A    
C23   C34   S    
C38   H57   S    
O24   P5    S    
Ba2   O20   S    
C13   C19   A    
C32   H3    S    
C18   C19   A    
C12   O14   S    
O4    P1    S    
C20   C21   A    
C35   H38   S    
C32   H2    S    
C32   H37   S    
C28   H23   S    
Ba2   O23   S    
