data_mof_unit_27772.cif
_audit_creation_date              2012-10-26T18:50:44-0400
_audit_creation_method            fapswitch 2.2
_symmetry_space_group_name_H-M    P1
_symmetry_Int_Tables_number       1
_space_group_crystal_system       triclinic
_cell_length_a                    12.337527
_cell_length_b                    13.184989
_cell_length_c                    17.329364
_cell_angle_alpha                 105.495925
_cell_angle_beta                  74.269448
_cell_angle_gamma                 116.76901
_cell_volume                      2387.83511819

loop_
_atom_site_label
_atom_site_type_symbol
_atom_type_description
_atom_site_fract_x
_atom_site_fract_y
_atom_site_fract_z
_atom_type_partial_charge
C1    C     C_R   0.144776 0.713217 0.504130 0.558088
C2    C     C_R   0.018107 0.491958 0.261767 0.010718
C3    C     C_R   0.740912 0.971076 0.398257 -0.119405
C4    C     C_R   0.987627 0.504130 0.652328 0.573598
C5    C     C_R   0.775006 0.163583 0.471002 -0.005466
C6    C     C_R   0.178889 0.918894 0.536684 -0.091541
C7    C     C_R   0.255839 0.035631 0.545508 0.212683
C8    C     C_R   0.383263 0.070176 0.523495 -0.125753
C9    C     C_R   0.435299 0.988424 0.486853 -0.025163
C10   C     C_R   0.354789 0.871768 0.467519 -0.042608
C11   C     C_R   0.564607 0.019448 0.466767 -0.001449
C12   C     C_R   0.887686 0.526278 0.797704 -0.114001
C13   C     C_R   0.612052 0.937458 0.418307 0.025405
C14   C     C_R   0.529637 0.825381 0.389813 0.195817
C15   C     C_R   0.403168 0.795223 0.413404 -0.103378
C16   C     C_R   0.855848 0.285975 0.488055 0.542081
C17   C     C_R   0.648160 0.130016 0.495006 -0.141234
C18   C     C_R   0.821399 0.083198 0.423886 -0.139441
C19   C     C_R   0.227148 0.835731 0.500991 -0.052217
C20   C     C_R   0.653632 0.696215 0.612302 -0.038480
C21   C     C_R   0.245076 0.345549 0.393684 0.075695
C22   C     C_R   0.339487 0.306196 0.372405 -0.019390
C23   C     C_R   0.928986 0.499644 0.156510 -0.098663
C24   C     C_R   0.442117 0.365900 0.411784 -0.074097
C25   C     C_R   0.449400 0.462000 0.473336 0.057300
C26   C     C_R   0.347861 0.495076 0.493858 0.221372
C27   C     C_R   0.552267 0.526158 0.516090 -0.009122
C28   C     C_R   0.012484 0.495861 0.347702 0.529530
C29   C     C_R   0.552027 0.624649 0.574009 -0.032548
C30   C     C_R   0.448847 0.651016 0.594480 -0.182077
C31   C     C_R   0.348816 0.586039 0.557075 -0.084556
C32   C     C_R   0.656120 0.498955 0.503205 0.013735
C33   C     C_R   0.749590 0.661162 0.603332 0.386694
C34   C     C_R   0.924353 0.502500 0.237790 -0.115307
C35   C     C_R   0.986622 0.514661 0.738613 0.002599
C36   C     C_R   0.087554 0.516890 0.762370 -0.119657
C37   C     C_R   0.089474 0.529382 0.843866 -0.111889
C38   C     C_R   0.989496 0.537720 0.903264 0.032483
C39   C     C_R   0.887670 0.537199 0.880286 -0.000398
C40   C     C_R   0.661821 0.812213 0.657295 0.067033
C41   C     C_R   0.712179 0.904875 0.614630 -0.044711
C42   C     C_R   0.717556 0.013465 0.655486 -0.058306
C43   C     C_R   0.671480 0.029880 0.738814 -0.084108
C44   C     C_R   0.619413 0.937580 0.781368 -0.097955
C45   C     C_R   0.115804 0.476754 0.203055 -0.128547
C46   C     C_R   0.613902 0.828784 0.740787 -0.039419
C47   C     C_R   0.328731 0.200491 0.311100 0.008129
C48   C     C_R   0.282125 0.179297 0.240023 -0.099497
C49   C     C_R   0.269646 0.078302 0.183510 -0.105010
C50   C     C_R   0.303141 0.997436 0.197344 -0.093335
C51   C     C_R   0.349653 0.017569 0.267593 -0.101267
C52   C     C_R   0.362699 0.118549 0.324088 -0.096452
C53   C     C_R   0.779145 0.544504 0.940775 0.014654
C54   C     C_R   0.710907 0.462272 0.992569 -0.106594
C55   C     C_R   0.609643 0.470476 0.050140 -0.096318
C56   C     C_R   0.120388 0.473976 0.121433 -0.113286
C57   C     C_R   0.575114 0.560078 0.056020 -0.057439
C58   C     C_R   0.641675 0.641493 0.004211 -0.089280
C59   C     C_R   0.743219 0.633783 0.946693 -0.084580
C60   C     C_R   0.028309 0.487539 0.098085 0.036922
C61   C     C_2   0.992725 0.548107 0.989038 -0.142710
C62   C     C_2   0.035665 0.486010 0.012181 -0.144762
Cu1   Cu    Cu3+1 0.900140 0.524980 0.518800 1.026752
Cu2   Cu    Cu3+1 0.099860 0.475020 0.481200 0.972341
H1    H     H_    0.166203 0.510439 0.718088 0.151534
H2    H     H_    0.442190 0.721796 0.641631 0.118296
H3    H     H_    0.663794 0.426723 0.458710 0.125302
H4    H     H_    0.164719 0.299738 0.364630 0.114940
H5    H     H_    0.515163 0.336196 0.393128 0.087610
H6    H     H_    0.273696 0.610800 0.580435 0.180438
H7    H     H_    0.188802 0.467655 0.220114 0.142317
H8    H     H_    0.076673 0.432142 0.967300 0.136021
H9    H     H_    0.853895 0.505332 0.139561 0.130472
H10   H     H_    0.809332 0.524627 0.779624 0.171139
H11   H     H_    0.952969 0.602850 0.033942 0.145064
H12   H     H_    0.196653 0.463057 0.076675 0.108317
H13   H     H_    0.170160 0.533607 0.860432 0.119147
H14   H     H_    0.648369 0.718399 0.427016 0.320338
H15   H     H_    0.129249 0.121034 0.476550 0.327082
H16   H     H_    0.014571 0.778044 0.722786 0.353197
H17   H     H_    0.747631 0.892889 0.549983 0.117595
H18   H     H_    0.757362 0.084866 0.622598 0.134510
H19   H     H_    0.675645 0.114013 0.770343 0.116565
H20   H     H_    0.582899 0.950257 0.845752 0.109614
H21   H     H_    0.571893 0.757470 0.774003 0.135515
H22   H     H_    0.256460 0.241212 0.227826 0.102141
H23   H     H_    0.919796 0.107800 0.404654 0.140060
H24   H     H_    0.233929 0.062725 0.128932 0.115033
H25   H     H_    0.293058 0.919192 0.153628 0.116417
H26   H     H_    0.375277 0.954779 0.278474 0.123717
H27   H     H_    0.397647 0.131812 0.378445 0.113353
H28   H     H_    0.736211 0.392013 0.988391 0.119150
H29   H     H_    0.557876 0.407306 0.090159 0.125113
H30   H     H_    0.496767 0.566367 0.100659 0.144757
H31   H     H_    0.614844 0.710848 0.008803 0.123647
H32   H     H_    0.794806 0.698148 0.907562 0.161675
H33   H     H_    0.781449 0.912732 0.361015 0.199351
H34   H     H_    0.616843 0.192352 0.536375 0.127931
H35   H     H_    0.080948 0.893271 0.558207 0.218486
H36   H     H_    0.438882 0.161559 0.531700 0.139718
H37   H     H_    0.342647 0.712162 0.385858 0.188878
H38   H     H_    0.846841 0.512302 0.281661 0.159437
N1    N     N_R   0.749710 0.562810 0.547300 -0.264011
N2    N     N_R   0.249640 0.437820 0.453210 -0.233353
O1    O     O_R   0.025490 0.682370 0.523640 -0.436030
O2    O     O_2   0.650770 0.761569 0.245882 -0.269467
O3    O     O_3   0.673580 0.698164 0.367718 -0.520084
O4    O     O_2   0.129294 0.124410 0.672988 -0.199994
O5    O     O_2   0.287913 0.258625 0.584872 -0.310986
O6    O     O_3   0.084017 0.113208 0.532870 -0.503584
O7    O     O_2   0.893649 0.870293 0.677494 -0.266817
O8    O     O_2   0.776114 0.717772 0.758457 -0.354600
O9    O     O_3   0.983552 0.730790 0.672086 -0.501753
O10   O     O_R   0.194150 0.640180 0.491890 -0.539712
O11   O     O_R   0.905900 0.523560 0.631310 -0.433332
O12   O     O_R   0.074570 0.481370 0.599560 -0.518199
O13   O     O_R   0.805850 0.359820 0.508110 -0.524172
O14   O     O_R   0.974510 0.317630 0.476360 -0.496959
O15   O     O_R   0.925430 0.518630 0.400440 -0.517382
O16   O     O_R   0.094100 0.476440 0.368690 -0.518135
O17   O     O_2   0.472695 0.606736 0.307573 -0.299080
S1    S     S_3+6 0.580202 0.719553 0.324760 -0.026887
S2    S     S_3+6 0.190942 0.137772 0.586519 0.016365
S3    S     S_3+6 0.853155 0.744209 0.676917 0.022082

loop_
_geom_bond_atom_site_label_1
_geom_bond_atom_site_label_2
_ccdc_geom_bond_type
C14   S1    S    
C12   H10   S    
C27   C29   A    
C43   H19   S    
C41   C42   A    
C4    O11   A    
C35   C36   A    
C42   H18   S    
C55   H29   S    
C53   C59   A    
C7    C8    A    
C39   C53   S    
C53   C54   A    
C61   H11   S    
C40   C46   A    
C6    C19   A    
C29   C30   A    
Cu2   O12   S    
C36   C37   A    
O8    S3    D    
C10   C15   A    
C51   H26   S    
C38   C39   A    
C20   C40   S    
C5    C17   A    
C1    O10   A    
Cu2   O14   S    
C3    C18   A    
C60   C62   S    
C5    C16   S    
C26   N2    A    
C21   N2    A    
C31   H6    S    
C45   C56   A    
C8    C9    A    
C33   S3    S    
Cu1   O1    S    
C9    C10   A    
C3    C13   A    
C46   H21   S    
Cu1   O11   S    
C2    C34   A    
C22   C47   S    
O7    S3    D    
C4    C35   S    
C26   C31   A    
C21   C22   A    
C49   H24   S    
C23   H9    S    
C44   C46   A    
C24   H5    S    
C6    C7    A    
C20   C29   A    
C2    C45   A    
C23   C60   A    
C1    C19   S    
Cu2   O10   S    
C51   C52   A    
C24   C25   A    
Cu1   N1    S    
C28   O16   A    
C36   H1    S    
O5    S2    D    
C5    C18   A    
C58   C59   A    
C37   H13   S    
Cu1   O13   S    
C56   C60   A    
H14   O3    S    
C58   H31   S    
C54   H28   S    
C37   C38   A    
C16   O14   A    
O6    S2    S    
Cu1   O15   S    
C3    H33   S    
C50   H25   S    
C47   C48   A    
C10   C19   A    
C23   C34   A    
C41   H17   S    
O2    S1    D    
C50   C51   A    
C32   N1    A    
C62   H8    S    
C34   H38   S    
C15   H37   S    
C12   C35   A    
C9    C11   A    
O17   S1    D    
C30   H2    S    
C32   H3    S    
C20   C33   A    
C40   C41   A    
C57   H30   S    
C55   C57   A    
C43   C44   A    
C48   H22   S    
C42   C43   A    
O4    S2    D    
C45   H7    S    
C17   H34   S    
Cu2   N2    S    
C54   C55   A    
C11   C17   A    
H15   O6    S    
C27   C32   A    
C33   N1    A    
C4    O12   A    
C7    S2    S    
C44   H20   S    
C28   O15   A    
C47   C52   A    
C25   C27   A    
C18   H23   S    
Cu2   O16   S    
C6    H35   S    
C38   C61   S    
C12   C39   A    
C25   C26   A    
C21   H4    S    
C56   H12   S    
C16   O13   A    
C11   C13   A    
C57   C58   A    
C30   C31   A    
O9    S3    S    
C48   C49   A    
C22   C24   A    
C8    H36   S    
C61   C62   D    
Cu1   Cu2   S    
H16   O9    S    
C49   C50   A    
C59   H32   S    
C14   C15   A    
C52   H27   S    
C2    C28   S    
O3    S1    S    
C13   C14   A    
C1    O1    A    
