data_mof_unit_23619.cif
_audit_creation_date              2012-12-10T16:50:13-0500
_audit_creation_method            fapswitch 2.2
_symmetry_space_group_name_H-M    P1
_symmetry_Int_Tables_number       1
_space_group_crystal_system       triclinic
_cell_length_a                    23.447598
_cell_length_b                    8.744052
_cell_length_c                    7.593564
_cell_angle_alpha                 103.790466
_cell_angle_beta                  94.447001
_cell_angle_gamma                 95.355427
_cell_volume                      1497.36930462

loop_
_atom_site_label
_atom_site_type_symbol
_atom_type_description
_atom_site_fract_x
_atom_site_fract_y
_atom_site_fract_z
_atom_type_partial_charge
C1    C     C_R   0.497846 0.200114 0.453065 0.796400
C2    C     C_R   0.502111 0.799878 0.546941 0.796870
C3    C     C_R   0.238025 0.570639 0.403871 0.625294
C4    C     C_R   0.761930 0.441505 0.628041 0.632394
C5    C     C_R   0.297325 0.573325 0.398292 -0.305987
C6    C     C_R   0.702728 0.444513 0.629769 -0.302213
C7    C     C_R   0.328956 0.493315 0.504060 -0.127797
C8    C     C_R   0.671315 0.499332 0.497283 -0.129269
C9    C     C_R   0.300749 0.407799 0.612581 -0.231660
C10   C     C_R   0.700097 0.554186 0.365239 -0.229396
C11   C     C_R   0.240949 0.401358 0.616749 0.119945
C12   C     C_R   0.759798 0.553681 0.363041 0.105890
C13   C     C_R   0.209487 0.484084 0.511023 0.219117
C14   C     C_R   0.790722 0.495225 0.495327 0.226341
C15   C     C_2   0.494387 0.031456 0.428388 0.276151
C16   C     C_2   0.505503 0.968530 0.571656 0.276572
C17   C     C_R   0.391355 0.498154 0.501151 0.804413
C18   C     C_R   0.608768 0.500662 0.498912 0.805542
C19   C     C_R   0.887415 0.614329 0.614110 0.585407
C20   C     C_R   0.112774 0.361453 0.397016 0.550006
C21   C     C_R   0.873014 0.367350 0.388789 0.570584
C22   C     C_R   0.127132 0.605637 0.626886 0.604855
C23   C     C_R   0.932645 0.362696 0.389282 -0.021570
C24   C     C_R   0.067497 0.609748 0.627194 -0.026839
C25   C     C_R   0.969997 0.487412 0.506469 -0.015195
C26   C     C_R   0.030154 0.485511 0.509217 -0.015628
C27   C     C_R   0.947335 0.614146 0.620728 -0.021672
C28   C     C_R   0.052829 0.359665 0.393530 -0.013833
C29   C     C_R   0.955705 0.237179 0.275552 -0.149345
C30   C     C_R   0.044433 0.734923 0.741477 -0.144131
C31   C     C_R   0.015202 0.235897 0.277289 -0.158342
C32   C     C_R   0.984951 0.737250 0.738044 -0.161923
Cu1   Cu    Cu3+1 0.506340 0.517380 0.684380 0.985343
Cu2   Cu    Cu3+1 0.493660 0.482620 0.315620 0.985347
H1    H     H_    0.927894 0.139942 0.184351 0.192595
H2    H     H_    0.072233 0.831748 0.833365 0.196344
H3    H     H_    0.031574 0.137731 0.187317 0.184438
H4    H     H_    0.968585 0.835777 0.827434 0.182358
H5    H     H_    0.318713 0.640246 0.314254 0.192272
H6    H     H_    0.681331 0.401983 0.733313 0.190515
H7    H     H_    0.325132 0.343061 0.691170 0.144565
H8    H     H_    0.676427 0.600697 0.265925 0.147176
N1    N     N_R   0.851805 0.492560 0.498838 -0.450073
N2    N     N_R   0.148382 0.483034 0.512680 -0.450303
N3    N     N_2   0.484110 0.456420 0.038520 -0.046966
N4    N     N_2   0.515890 0.543580 0.961480 -0.047850
O1    O     O_R   0.504120 0.286130 0.619770 -0.566910
O2    O     O_R   0.495880 0.713870 0.380230 -0.566243
O3    O     O_R   0.493410 0.256770 0.308360 -0.547223
O4    O     O_R   0.506590 0.743230 0.691640 -0.547438
O5    O     O_R   0.423230 0.514630 0.655730 -0.612976
O6    O     O_R   0.576770 0.485370 0.344270 -0.615116
O7    O     O_R   0.412530 0.485280 0.344320 -0.588755
O8    O     O_R   0.587470 0.514720 0.655680 -0.590089
O9    O     O_2   0.864810 0.735022 0.721565 -0.537296
O10   O     O_2   0.135409 0.242851 0.286256 -0.541436
O11   O     O_2   0.836446 0.248429 0.278960 -0.519168
O12   O     O_2   0.163664 0.723134 0.739178 -0.511999
F1    F     F_    0.208033 0.653262 0.305833 -0.651406
F2    F     F_    0.791582 0.385826 0.755562 -0.654880
C33   C     C_3   0.212225 0.306080 0.734288 -0.379409
C34   C     C_3   0.227019 0.387169 0.936088 -0.718499
H9    H     H_    0.274047 0.395555 0.975438 0.231506
H10   H     H_    0.213305 0.508057 0.965370 0.308292
H11   H     H_    0.204139 0.317628 0.019330 0.276361
H12   H     H_    0.164679 0.289507 0.704399 0.217820
H13   H     H_    0.226644 0.185847 0.705497 0.230206
C35   C     C_3   0.789066 0.616800 0.219801 -0.353769
C36   C     C_3   0.792775 0.797279 0.262215 -0.730295
H14   H     H_    0.749038 0.836332 0.262812 0.245858
H15   H     H_    0.817535 0.850666 0.397168 0.277559
H16   H     H_    0.815097 0.840404 0.156486 0.273133
H17   H     H_    0.833256 0.582451 0.209098 0.227072
H18   H     H_    0.764424 0.565184 0.084207 0.245752
F3    F     F_    0.477514 0.940284 0.256765 -0.670742
F4    F     F_    0.522316 0.059695 0.743326 -0.670496
C37   C     C_3   0.430126 0.370317 0.941069 -0.065831
C38   C     C_3   0.413126 0.216016 0.994923 -0.722723
H19   H     H_    0.449440 0.142657 0.986093 0.319730
H20   H     H_    0.397927 0.235994 0.131600 0.260564
H21   H     H_    0.376607 0.146533 0.898018 0.190262
H22   H     H_    0.395084 0.447777 0.963609 0.157880
H23   H     H_    0.433402 0.326590 0.796980 0.207878
C39   C     C_3   0.569837 0.629774 0.058392 -0.067536
C40   C     C_3   0.586478 0.784572 0.005209 -0.716817
H24   H     H_    0.601657 0.765103 0.868487 0.260480
H25   H     H_    0.550004 0.857372 0.014390 0.319467
H26   H     H_    0.622937 0.854306 0.102192 0.187999
H27   H     H_    0.566880 0.672719 0.202820 0.209111
H28   H     H_    0.604729 0.552381 0.032961 0.153383

loop_
_geom_bond_atom_site_label_1
_geom_bond_atom_site_label_2
_ccdc_geom_bond_type
C15   F3    S    
C10   H8    S    
C20   O10   S    
C17   O5    A    
C18   O6    A    
C37   C38   S    
C12   C35   S    
C23   C29   A    
C24   C26   A    
C38   H20   S    
C37   H23   S    
C35   H18   S    
C15   C16   D    
C36   H15   S    
C34   H10   S    
C2    O4    A    
C21   N1    A    
C33   H12   S    
C22   N2    A    
C35   C36   S    
C7    C17   S    
C1    C15   S    
C32   H4    S    
C2    C16   S    
C3    C13   A    
C25   C26   A    
Cu1   N4    S    
C36   H14   S    
C39   H28   S    
C26   C28   A    
C20   N2    A    
C19   N1    A    
C40   H25   S    
C39   C40   S    
C4    C6    A    
C5    C7    A    
C38   H19   S    
C1    O1    A    
C6    C8    A    
C20   C28   A    
C2    O2    A    
C35   H17   S    
C40   H24   S    
C8    C18   S    
Cu1   O5    S    
C31   H3    S    
C36   H16   S    
C21   O11   S    
C34   H9    S    
C33   H13   S    
C4    F2    S    
Cu1   Cu2   S    
Cu2   N3    S    
C9    C11   A    
C10   C12   A    
N4    C39   S    
C12   C14   A    
C21   C23   A    
Cu1   O1    S    
C22   C24   A    
Cu2   O2    S    
C39   H27   S    
C17   O7    A    
C19   C27   A    
C40   H26   S    
C19   O9    S    
Cu1   O8    S    
C7    C9    A    
Cu2   O3    S    
C34   H11   S    
C27   C32   A    
C16   F4    S    
Cu2   O6    S    
C28   C31   A    
C3    C5    A    
C22   O12   S    
C25   C27   A    
C29   H1    S    
C9    H7    S    
C30   H2    S    
C5    H5    S    
Cu1   O4    S    
C29   C31   A    
C30   C32   A    
C11   C13   A    
C38   H21   S    
C37   H22   S    
C6    H6    S    
C23   C25   A    
C11   C33   S    
C4    C14   A    
C33   C34   S    
C24   C30   A    
C18   O8    A    
N3    N4    D    
Cu2   O7    S    
C8    C10   A    
N3    C37   S    
C1    O3    A    
C13   N2    S    
C14   N1    S    
C3    F1    S    
