data_mof_unit_23721.cif
_audit_creation_date              2013-03-05T16:11:18-0500
_audit_creation_method            fapswitch 2.2
_symmetry_space_group_name_H-M    P1
_symmetry_Int_Tables_number       1
_space_group_crystal_system       triclinic
_cell_length_a                    15.853409
_cell_length_b                    10.782894
_cell_length_c                    9.457912
_cell_angle_alpha                 89.741143
_cell_angle_beta                  89.553736
_cell_angle_gamma                 89.75947
_cell_volume                      1616.70916333

loop_
_atom_site_label
_atom_site_type_symbol
_atom_site_description
_atom_site_fract_x
_atom_site_fract_y
_atom_site_fract_z
_atom_type_partial_charge
O1    O     O_R   0.500050 0.317570 0.620260 -0.565838
O2    O     O_R   0.499980 0.317810 0.379740 -0.601257
C1    C     C_R   0.503607 0.259964 0.500069 0.782330
O3    O     O_R   0.379110 0.499870 0.620240 -0.526498
O4    O     O_R   0.379040 0.500110 0.379720 -0.605633
C2    C     C_R   0.339939 0.500039 0.500433 0.854407
Cu1   Cu    Cu3+1 0.500040 0.499860 0.642410 0.985686
Cu2   Cu    Cu3+1 0.499960 0.500140 0.357590 0.911486
O5    O     O_R   0.500020 0.682190 0.620260 -0.586291
O6    O     O_R   0.499950 0.682430 0.379740 -0.599742
O7    O     O_R   0.620960 0.499890 0.620280 -0.576990
O8    O     O_R   0.620890 0.500130 0.379760 -0.591232
C3    C     C_R   0.499066 0.739955 0.499352 0.780414
C4    C     C_R   0.660070 0.499995 0.499547 0.827240
C5    C     C_3   0.973052 0.399189 0.567055 0.379653
C6    C     C_3   0.029580 0.396262 0.434559 -0.212318
H1    H     H_    0.054200 0.311666 0.381702 0.167673
H2    H     H_    0.949759 0.498454 0.256384 0.166817
C7    C     C_1   0.250254 0.499868 0.501350 -0.091171
C8    C     C_1   0.749763 0.499748 0.498727 -0.144885
C9    C     C_3   0.027681 0.498903 0.636262 -0.184028
C10   C     C_3   0.083063 0.498768 0.501899 0.114036
C11   C     C_3   0.971172 0.600430 0.567624 -0.207172
C12   C     C_3   0.917037 0.498411 0.500485 0.070781
C13   C     C_3   0.028350 0.600498 0.433706 -0.111631
C14   C     C_3   0.973083 0.498216 0.366756 -0.204371
C15   C     C_1   0.174694 0.499511 0.501815 0.017943
C16   C     C_1   0.825332 0.499285 0.499112 0.022574
H3    H     H_    0.052767 0.684130 0.378385 0.161762
H4    H     H_    0.946264 0.684313 0.621567 0.171711
H5    H     H_    0.050791 0.497503 0.746768 0.180235
C17   C     C_3   0.576608 0.066082 0.593342 0.234199
H6    H     H_    0.637426 0.087959 0.538797 0.104860
C18   C     C_3   0.568721 0.923514 0.600720 -0.386837
H7    H     H_    0.630648 0.880959 0.572132 0.127941
H8    H     H_    0.554311 0.891680 0.710099 0.230850
H9    H     H_    0.404229 0.106668 0.661482 0.227168
C19   C     C_3   0.416596 0.075429 0.551518 -0.395984
C20   C     C_3   0.518571 0.071685 0.347201 -0.423628
C21   C     C_3   0.504059 0.121798 0.500116 0.003242
H10   H     H_    0.466353 0.102442 0.276975 0.209742
H11   H     H_    0.578300 0.109082 0.301716 0.180512
C22   C     C_3   0.499810 0.877837 0.498148 0.002466
C23   C     C_3   0.411059 0.932687 0.537727 -0.180546
C24   C     C_3   0.522755 0.928854 0.348202 -0.399276
H12   H     H_    0.587286 0.897708 0.316974 0.182148
H13   H     H_    0.478369 0.893030 0.267584 0.199177
H14   H     H_    0.366122 0.118644 0.486185 0.145580
H15   H     H_    0.368674 0.913000 0.447100 0.144031
C25   C     C_3   0.522132 0.624761 0.083722 -0.174806
H16   H     H_    0.582329 0.658524 0.128997 0.146447
H17   H     H_    0.472677 0.692697 0.115619 0.189004
C26   C     C_3   0.529530 0.623415 0.917175 -0.179165
H18   H     H_    0.493512 0.702287 0.873221 0.231761
H19   H     H_    0.596134 0.641482 0.885279 0.133885
H20   H     H_    0.629628 0.439758 0.114517 0.169914
H21   H     H_    0.625165 0.422602 0.870405 0.205116
C27   C     C_3   0.564999 0.412641 0.082209 -0.216286
C28   C     C_3   0.419069 0.462656 0.086865 -0.211646
N1    N     N_3   0.501840 0.500250 0.143650 -0.157627
H22   H     H_    0.404300 0.366273 0.121512 0.126781
H23   H     H_    0.368649 0.521874 0.133039 0.205665
N2    N     N_3   0.501160 0.503300 0.856280 -0.201841
C29   C     C_3   0.560812 0.409225 0.915065 -0.245037
C30   C     C_3   0.416206 0.471541 0.920847 0.332107
H24   H     H_    0.397765 0.378424 0.880915 0.093179
H25   H     H_    0.554728 0.317648 0.124912 0.175329
H26   H     H_    0.540376 0.315923 0.883258 0.231501
C31   C     C_2   0.368438 0.876076 0.665728 0.890743
O9    O     O_2   0.397855 0.889726 0.783666 -0.537494
O10   O     O_R   0.292800 0.811902 0.648090 -0.758448
H27   H     H_    0.266030 0.785418 0.740878 0.385287
N3    N     N_R   0.944233 0.287982 0.640699 0.123056
O11   O     O_R   0.999119 0.210641 0.692615 -0.339575
O12   O     O_R   0.864136 0.265204 0.655112 -0.333463
N4    N     N_R   0.348532 0.559085 0.882167 0.131985
O13   O     O_R   0.276689 0.514267 0.841009 -0.377264
O14   O     O_R   0.348909 0.671913 0.930101 -0.392367
N5    N     N_R   0.580719 0.117040 0.736487 0.112307
O15   O     O_R   0.650242 0.168733 0.778043 -0.365340
O16   O     O_R   0.521902 0.093324 0.829430 -0.385045

loop_
_geom_bond_atom_site_label_1
_geom_bond_atom_site_label_2
_geom_bond_distance
_ccdc_geom_bond_type
C23   H15   1.114941 S    
N2    C30   1.514353 S    
N3    O11   1.300214 A    
H2    C14   1.110141 S    
Cu1   Cu2   2.693800 S    
C20   H10   1.113877 S    
C26   H18   1.103899 S    
Cu1   O7    1.926765 S    
C2    C7    1.421782 S    
C9    H5    1.110220 S    
C30   N4    1.473243 S    
C29   H26   1.102098 S    
C12   C14   1.540028 S    
O4    C2    1.294878 A    
O7    C4    1.295108 A    
C27   N1    1.490172 S    
C5    C6    1.535287 S    
C18   H7    1.113877 S    
C31   O10   1.398460 S    
O5    C3    1.299860 A    
C6    H1    1.110157 S    
C10   C13   1.538174 S    
C25   H17   1.111685 S    
C11   C12   1.540334 S    
C7    C15   1.197873 T    
C19   H14   1.114108 S    
C20   C24   1.541274 S    
C24   H13   1.113129 S    
C28   N1    1.480562 S    
C9    C10   1.538965 S    
C13   H3    1.110111 S    
N3    O12   1.300363 A    
O3    Cu1   1.930209 S    
C20   H11   1.113375 S    
C26   H19   1.113598 S    
C6    C14   1.554463 S    
C28   H22   1.113598 S    
C25   C26   1.578763 S    
C11   H4    1.110125 S    
C4    C8    1.421892 S    
N4    O13   1.302123 A    
O3    C2    1.296353 A    
C20   C21   1.561216 S    
N5    O16   1.301847 A    
C8    C16   1.198053 T    
C27   C29   1.583343 S    
C13   C14   1.551793 S    
C24   H12   1.113511 S    
N5    O15   1.301483 A    
O1    C1    1.298583 A    
C17   C18   1.544106 S    
C22   C23   1.567282 S    
C19   C23   1.548194 S    
H9    C19   1.110405 S    
Cu2   O8    1.930209 S    
C25   H16   1.112352 S    
C23   C31   1.509582 S    
C22   C24   1.559739 S    
Cu1   N2    2.023490 S    
C5    C12   1.524575 S    
C5    N3    1.457363 S    
O8    C4    1.296258 A    
C1    C21   1.489823 S    
C10   C15   1.452709 S    
C9    C11   1.554635 S    
C3    C22   1.486849 S    
H21   C29   1.110868 S    
Cu1   O5    1.976234 S    
C28   H23   1.109127 S    
C6    C10   1.539125 S    
O1    Cu1   1.977685 S    
O2    Cu2   1.976231 S    
C18   C22   1.550027 S    
C12   C16   1.453985 S    
N4    O14   1.300309 A    
O6    C3    1.292581 A    
O4    Cu2   1.926766 S    
C25   N1    1.490371 S    
C17   H6    1.115553 S    
O2    C1    1.296859 A    
O10   H27   1.012309 S    
Cu2   N1    2.023408 S    
C17   N5    1.465433 S    
C19   C21   1.549869 S    
C26   N2    1.492368 S    
H20   C27   1.112147 S    
C18   H8    1.110839 S    
C17   C21   1.570482 S    
C31   O9    1.222105 D    
N2    C29   1.492471 S    
C27   H25   1.111519 S    
C5    C9    1.535439 S    
C11   C13   1.551789 S    
Cu2   O6    1.977687 S    
C30   H24   1.115296 S    
C28   C30   1.573667 S    
