data_mof_unit_65313.cif
_audit_creation_date              2012-12-10T19:25:39-0500
_audit_creation_method            fapswitch 2.2
_symmetry_space_group_name_H-M    P1
_symmetry_Int_Tables_number       1
_space_group_crystal_system       triclinic
_cell_length_a                    17.770214
_cell_length_b                    16.486801
_cell_length_c                    15.08753
_cell_angle_alpha                 90.1638
_cell_angle_beta                  90.421262
_cell_angle_gamma                 89.969765
_cell_volume                      4420.11563718

loop_
_atom_site_label
_atom_site_type_symbol
_atom_type_description
_atom_site_fract_x
_atom_site_fract_y
_atom_site_fract_z
_atom_type_partial_charge
C1    C     C_R   0.355186 0.500013 0.499839 0.965004
C2    C     C_R   0.644815 0.499988 0.500168 0.964994
C3    C     C_R   0.387846 0.410987 0.040608 -0.196165
C4    C     C_R   0.612154 0.589024 0.959390 -0.196151
C5    C     C_R   0.846758 0.573473 0.502835 0.545298
C6    C     C_R   0.153236 0.426560 0.496591 0.545290
C7    C     C_R   0.153203 0.573503 0.502202 0.546430
C8    C     C_R   0.846809 0.426499 0.498492 0.546370
C9    C     C_R   0.768305 0.573772 0.502766 0.538480
C10   C     C_R   0.231688 0.426255 0.496641 0.538094
C11   C     C_R   0.231659 0.573803 0.502244 0.511601
C12   C     C_R   0.768353 0.426192 0.498432 0.511383
C13   C     C_R   0.727988 0.499981 0.500472 -0.496365
C14   C     C_R   0.272014 0.500026 0.499556 -0.496236
C15   C     C_R   0.885882 0.499991 0.500601 -0.393945
C16   C     C_R   0.114121 0.500030 0.499466 -0.393901
C17   C     C_1   0.966283 0.500005 0.500224 0.287840
C18   C     C_1   0.033719 0.500018 0.499850 0.287828
C19   C     C_R   0.548014 0.828796 0.556980 -0.231252
C20   C     C_R   0.452031 0.171203 0.442970 -0.231345
C21   C     C_R   0.451862 0.828483 0.442933 -0.232340
C22   C     C_R   0.548096 0.171518 0.557118 -0.232470
C23   C     C_R   0.546989 0.743042 0.555780 0.724634
C24   C     C_R   0.453053 0.256957 0.444171 0.724564
C25   C     C_R   0.452936 0.742693 0.444162 0.734547
C26   C     C_R   0.547022 0.257307 0.555886 0.734585
C27   C     C_R   0.499937 0.873052 0.499949 -0.120998
C28   C     C_R   0.500063 0.126948 0.500052 -0.121066
C29   C     C_1   0.499967 0.962842 0.499969 0.061225
C30   C     C_1   0.500034 0.037157 0.500032 0.061219
C31   C     C_R   0.499079 0.499924 0.328854 0.861035
C32   C     C_R   0.500923 0.500076 0.671145 0.861126
C33   C     C_R   0.561569 0.539083 0.814014 -0.136523
C34   C     C_R   0.438435 0.460920 0.185984 -0.136581
C35   C     C_R   0.502964 0.500297 0.767543 -0.220831
C36   C     C_R   0.497039 0.499705 0.232457 -0.220906
C37   C     C_R   0.445822 0.460128 0.811871 0.625652
C38   C     C_R   0.554177 0.539882 0.188129 0.625621
C39   C     C_R   0.445287 0.458045 0.904354 -0.125636
C40   C     C_R   0.554711 0.541966 0.095645 -0.125681
C41   C     C_R   0.501183 0.500476 0.953115 -0.058465
C42   C     C_R   0.498818 0.499533 0.046884 -0.058454
C43   C     C_R   0.559297 0.543571 0.908128 -0.019251
C44   C     C_R   0.440705 0.456436 0.091870 -0.019250
C45   C     C_R   0.389889 0.413489 0.948405 0.647856
C46   C     C_R   0.610107 0.586528 0.051594 0.647860
Cu1   Cu    Cu3+1 0.500000 0.580420 0.500000 1.146446
Cu2   Cu    Cu3+1 0.500000 0.419580 0.500000 1.146290
N1    N     N_R   0.500000 0.701220 0.500000 -0.291615
N2    N     N_R   0.500000 0.298780 0.500000 -0.291793
O1    O     O_R   0.391260 0.567930 0.500000 -0.514895
O2    O     O_R   0.608740 0.432070 0.500000 -0.515030
O3    O     O_R   0.608740 0.567930 0.500000 -0.496900
O4    O     O_R   0.391260 0.432070 0.500000 -0.497042
O5    O     O_R   0.499990 0.567920 0.370260 -0.520967
O6    O     O_R   0.500010 0.432080 0.629740 -0.520955
O7    O     O_R   0.500010 0.567920 0.629740 -0.571759
O8    O     O_R   0.499990 0.432080 0.370260 -0.571762
C47   C     C_1   0.626333 0.565425 0.763485 0.331029
N3    N     N_1   0.677900 0.585491 0.722548 -0.163807
C48   C     C_1   0.373669 0.434579 0.236512 0.330961
N4    N     N_1   0.322100 0.414514 0.277445 -0.163200
F1    F     F_    0.390579 0.423255 0.763500 -0.579454
F2    F     F_    0.609416 0.576763 0.236500 -0.579297
F3    F     F_    0.337875 0.369984 0.901631 -0.562105
F4    F     F_    0.662117 0.630038 0.098368 -0.562032
C49   C     C_1   0.333117 0.356328 0.078497 0.399598
N5    N     N_1   0.289259 0.312183 0.107824 -0.157779
C50   C     C_1   0.666890 0.643675 0.921499 0.399638
N6    N     N_1   0.710753 0.687813 0.892172 -0.157898
F5    F     F_    0.884641 0.644999 0.504970 -0.529910
F6    F     F_    0.115343 0.355054 0.493836 -0.529958
F7    F     F_    0.115274 0.645008 0.504995 -0.532851
F8    F     F_    0.884747 0.354980 0.496336 -0.532836
F9    F     F_    0.732331 0.646421 0.504951 -0.526205
F10   F     F_    0.267654 0.353622 0.493787 -0.526157
F11   F     F_    0.267611 0.646425 0.505258 -0.543367
F12   F     F_    0.732414 0.353548 0.496076 -0.543070
C51   C     C_1   0.598776 0.869977 0.617219 0.425787
N7    N     N_1   0.639517 0.902768 0.665569 -0.180195
C52   C     C_1   0.401317 0.130021 0.382674 0.425890
N8    N     N_1   0.360616 0.097230 0.334278 -0.180182
C53   C     C_1   0.401060 0.869395 0.382742 0.429077
N9    N     N_1   0.360289 0.901995 0.334441 -0.179991
C54   C     C_1   0.598850 0.130606 0.617365 0.429239
N10   N     N_1   0.639583 0.098006 0.665711 -0.179944
F13   F     F_    0.593454 0.701491 0.610960 -0.601851
F14   F     F_    0.406632 0.298507 0.388940 -0.601541
F15   F     F_    0.406467 0.700737 0.388961 -0.596383
F16   F     F_    0.593453 0.299263 0.611132 -0.595947

loop_
_geom_bond_atom_site_label_1
_geom_bond_atom_site_label_2
_ccdc_geom_bond_type
C27   C29   S    
C41   C42   A    
C52   N8    T    
C7    F7    S    
C4    C46   A    
C54   N10   T    
C7    C11   A    
C31   O8    A    
C35   C37   A    
C46   F4    S    
C26   N2    A    
C11   C14   A    
C23   N1    A    
C15   C17   S    
C22   C54   S    
C2    C13   S    
C9    C13   A    
C11   F11   S    
C10   F10   S    
C53   N9    T    
C12   F12   S    
C19   C27   A    
C39   C45   A    
Cu2   N2    S    
C21   C27   A    
C47   N3    T    
C33   C47   S    
C22   C28   A    
C20   C52   S    
C41   C43   A    
C50   N6    T    
C42   C44   A    
C32   O7    A    
C4    C50   S    
C37   F1    S    
C38   F2    S    
C24   N2    A    
C3    C44   A    
C49   N5    T    
C33   C43   A    
C32   C35   S    
C21   C53   S    
C34   C44   A    
Cu1   N1    S    
C10   C14   A    
Cu1   O1    S    
C20   C28   A    
C6    F6    S    
C3    C45   A    
C34   C48   S    
Cu2   O4    S    
C19   C23   A    
C1    O4    A    
C5    C9    A    
C29   C30   T    
Cu1   O7    S    
C1    O1    A    
Cu1   Cu2   S    
C8    C12   A    
C8    F8    S    
C17   C18   T    
C19   C51   S    
C24   F14   S    
C2    O2    A    
C16   C18   S    
C7    C16   A    
C8    C15   A    
C45   F3    S    
C40   C46   A    
Cu1   O5    S    
Cu2   O6    S    
C21   C25   A    
C3    C49   S    
C40   C42   A    
C2    O3    A    
C6    C10   A    
Cu2   O8    S    
C4    C43   A    
C26   F16   S    
C25   F15   S    
Cu1   O3    S    
C28   C30   S    
C5    F5    S    
C38   C40   A    
C36   C38   A    
C33   C35   A    
C32   O6    A    
C34   C36   A    
C48   N4    T    
C25   N1    A    
C5    C15   A    
C6    C16   A    
C51   N7    T    
Cu2   O2    S    
C12   C13   A    
C39   C41   A    
C37   C39   A    
C22   C26   A    
C31   C36   S    
C23   F13   S    
C1    C14   S    
C9    F9    S    
C31   O5    A    
C20   C24   A    
