data_mof_unit_16567.cif
_audit_creation_date              2012-10-26T20:18:15-0400
_audit_creation_method            fapswitch 2.2
_symmetry_space_group_name_H-M    P1
_symmetry_Int_Tables_number       1
_space_group_crystal_system       triclinic
_cell_length_a                    23.483738
_cell_length_b                    8.682119
_cell_length_c                    7.437744
_cell_angle_alpha                 102.995231
_cell_angle_beta                  94.163163
_cell_angle_gamma                 92.347856
_cell_volume                      1471.17050793

loop_
_atom_site_label
_atom_site_type_symbol
_atom_type_description
_atom_site_fract_x
_atom_site_fract_y
_atom_site_fract_z
_atom_type_partial_charge
C1    C     C_R   0.498280 0.199657 0.453202 0.555381
C2    C     C_R   0.706553 0.507388 0.656468 -0.066740
C3    C     C_R   0.243989 0.508549 0.681273 0.307959
C4    C     C_R   0.765905 0.506949 0.655332 0.304075
C5    C     C_R   0.209149 0.497621 0.514802 0.228914
C6    C     C_R   0.790856 0.499162 0.486147 0.231628
C7    C     C_2   0.497455 0.031759 0.426835 -0.145015
C8    C     C_2   0.502543 0.968241 0.573165 -0.145287
C9    C     C_R   0.390945 0.499705 0.502498 0.553047
C10   C     C_R   0.609055 0.500127 0.497529 0.552929
C11   C     C_R   0.883021 0.640409 0.516252 0.404870
C12   C     C_R   0.501719 0.800343 0.546798 0.555909
C13   C     C_R   0.116665 0.356357 0.471319 0.399011
C14   C     C_R   0.876878 0.357256 0.442232 0.404786
C15   C     C_R   0.122812 0.639504 0.545452 0.402873
C16   C     C_R   0.936573 0.353998 0.445790 0.030445
C17   C     C_R   0.063067 0.642756 0.537926 0.029773
C18   C     C_R   0.969728 0.498493 0.487386 -0.028194
C19   C     C_R   0.029904 0.498262 0.495575 -0.027515
C20   C     C_R   0.942857 0.643219 0.521816 0.029021
C21   C     C_R   0.056782 0.353541 0.461831 0.029594
C22   C     C_R   0.963788 0.210421 0.411147 -0.121585
C23   C     C_R   0.234131 0.487405 0.347840 -0.068421
C24   C     C_R   0.035838 0.786332 0.571210 -0.122528
C25   C     C_R   0.023304 0.210191 0.419117 -0.127567
C26   C     C_R   0.976320 0.786565 0.563192 -0.126738
C27   C     C_R   0.756119 0.491402 0.322897 -0.073638
C28   C     C_R   0.293218 0.488182 0.343897 -0.136187
C29   C     C_R   0.696882 0.491529 0.325817 -0.151402
C30   C     C_R   0.328401 0.499324 0.507672 -0.048227
C31   C     C_R   0.671601 0.499649 0.492740 -0.042979
C32   C     C_R   0.303358 0.509495 0.675610 -0.071614
Cu1   Cu    Cu3+1 0.506340 0.517380 0.684380 0.969812
Cu2   Cu    Cu3+1 0.493660 0.482620 0.315620 0.973343
H1    H     H_    0.939221 0.097890 0.378314 0.175544
H2    H     H_    0.687875 0.513329 0.786690 0.153301
H3    H     H_    0.179874 0.513255 0.834893 0.346026
H4    H     H_    0.838658 0.510260 0.801626 0.346393
H5    H     H_    0.492661 0.960083 0.285835 0.137335
H6    H     H_    0.507337 0.039917 0.714165 0.136917
H7    H     H_    0.454912 0.379300 0.948739 0.240446
H8    H     H_    0.545087 0.620702 0.051261 0.240154
H9    H     H_    0.060406 0.898863 0.604197 0.174860
H10   H     H_    0.042950 0.097485 0.391801 0.165050
H11   H     H_    0.956677 0.899271 0.590631 0.165248
H12   H     H_    0.207454 0.479102 0.220612 0.173637
H13   H     H_    0.775214 0.485337 0.193460 0.183400
H14   H     H_    0.311265 0.480271 0.212399 0.167825
H15   H     H_    0.670969 0.485636 0.197631 0.147215
H16   H     H_    0.329836 0.517769 0.803336 0.152006
N1    N     N_R   0.851597 0.498938 0.478928 -0.416962
N2    N     N_R   0.148152 0.497828 0.512613 -0.419580
N3    N     N_2   0.484110 0.456420 0.038520 -0.257740
N4    N     N_2   0.515890 0.543580 0.961480 -0.257861
O1    O     O_R   0.504120 0.286130 0.619770 -0.504700
O2    O     O_2   0.143311 0.219213 0.439467 -0.458492
O3    O     O_2   0.844309 0.220343 0.404591 -0.451951
O4    O     O_2   0.155403 0.776424 0.584666 -0.449727
O5    O     O_3   0.222157 0.518179 0.850670 -0.697971
O6    O     O_3   0.797493 0.513946 0.821374 -0.691894
O7    O     O_R   0.495880 0.713870 0.380230 -0.504303
O8    O     O_R   0.493410 0.256770 0.308360 -0.493789
O9    O     O_R   0.506590 0.743230 0.691640 -0.493407
O10   O     O_R   0.423230 0.514630 0.655730 -0.508952
O11   O     O_R   0.576770 0.485370 0.344270 -0.503524
O12   O     O_R   0.412530 0.485280 0.344320 -0.497303
O13   O     O_R   0.587470 0.514720 0.655680 -0.504487
O14   O     O_2   0.856383 0.777539 0.549663 -0.452450

loop_
_geom_bond_atom_site_label_1
_geom_bond_atom_site_label_2
_ccdc_geom_bond_type
Cu1   O1    S    
C2    C4    A    
C4    O6    S    
C14   O3    S    
C5    N2    S    
C22   H1    S    
C6    N1    S    
C27   C29   A    
C9    O10   A    
C14   N1    A    
C5    C23   A    
C8    C12   S    
Cu1   O9    S    
C13   O2    S    
C32   H16   S    
C1    O8    A    
Cu2   O12   S    
C28   C30   A    
Cu1   Cu2   S    
C1    O1    A    
C13   C21   A    
C7    C8    D    
C29   C31   A    
C23   H12   S    
C29   H15   S    
N3    N4    D    
H8    N4    S    
C30   C32   A    
C12   O7    A    
H7    N3    S    
H3    O5    S    
C20   C26   A    
C9    C30   S    
Cu1   O10   S    
H4    O6    S    
Cu2   O11   S    
C16   C18   A    
C17   C19   A    
C24   C26   A    
C18   C20   A    
C3    C32   A    
C24   H9    S    
C15   O4    S    
C14   C16   A    
C11   C20   A    
C17   C24   A    
C11   N1    A    
C23   C28   A    
C27   H13   S    
C13   N2    A    
C3    C5    A    
Cu2   O8    S    
C11   O14   S    
C25   H10   S    
Cu2   N3    S    
C4    C6    A    
C18   C19   A    
C10   O11   A    
C2    H2    S    
Cu1   N4    S    
C15   C17   A    
C12   O9    A    
C7    H5    S    
C9    O12   A    
C28   H14   S    
C21   C25   A    
C8    H6    S    
C26   H11   S    
C1    C7    S    
C15   N2    A    
C10   O13   A    
C10   C31   S    
Cu2   O7    S    
Cu1   O13   S    
C6    C27   A    
C16   C22   A    
C2    C31   A    
C19   C21   A    
C22   C25   A    
C3    O5    S    
