data_mof_unit_7117.cif
_audit_creation_date              2013-03-05T16:11:10-0500
_audit_creation_method            fapswitch 2.2
_symmetry_space_group_name_H-M    P1
_symmetry_Int_Tables_number       1
_space_group_crystal_system       triclinic
_cell_length_a                    9.954835
_cell_length_b                    10.644814
_cell_length_c                    13.626396
_cell_angle_alpha                 91.224083
_cell_angle_beta                  83.377953
_cell_angle_gamma                 87.250192
_cell_volume                      1432.14192038

loop_
_atom_site_label
_atom_site_type_symbol
_atom_site_description
_atom_site_fract_x
_atom_site_fract_y
_atom_site_fract_z
_atom_type_partial_charge
O1    O     O_R   0.385380 0.683250 0.500010 -0.544695
O2    O     O_R   0.614620 0.316750 0.499990 -0.578372
O3    O     O_R   0.614710 0.683220 0.500000 -0.625787
O4    O     O_R   0.385290 0.316780 0.500000 -0.621591
C1    C     C_R   0.497605 0.739304 0.491258 0.963590
C2    C     C_R   0.502862 0.259731 0.502931 0.979278
O5    O     O_R   0.368830 0.499990 0.640350 -0.540185
O6    O     O_R   0.631170 0.500010 0.359650 -0.541028
O7    O     O_R   0.598160 0.499960 0.640350 -0.643134
O8    O     O_R   0.401840 0.500040 0.359650 -0.640634
C3    C     C_R   0.475960 0.501771 0.685252 0.927034
C4    C     C_R   0.524038 0.498246 0.314753 0.911017
Zn1   Zn    Zn3+2 0.346870 0.500020 0.500000 1.076437
Zn2   Zn    Zn3+2 0.653130 0.499980 0.500000 1.065621
C5    C     C_R   0.943180 0.450894 0.421221 0.358413
C6    C     C_R   0.057955 0.555629 0.576190 0.349194
C7    C     C_R   0.085883 0.442934 0.424351 -0.094359
C8    C     C_R   0.914458 0.556566 0.576233 -0.102894
C9    C     C_1   0.542057 0.489273 0.211500 -0.013303
C10   C     C_1   0.457933 0.510347 0.788537 -0.027993
C11   C     C_2   0.552348 0.471873 0.020335 0.123616
C12   C     C_2   0.447396 0.527047 0.979764 0.120180
C13   C     C_1   0.447964 0.518584 0.875990 0.081596
C14   C     C_1   0.551943 0.480665 0.124074 0.083360
C15   C     C_R   0.606651 0.928327 0.431711 0.162445
C16   C     C_R   0.398793 0.064364 0.553049 0.143953
C17   C     C_R   0.613156 0.057410 0.443430 0.167687
C18   C     C_R   0.376309 0.944955 0.517162 0.192007
C19   C     C_R   0.509672 0.125247 0.505065 -0.355149
C20   C     C_R   0.490578 0.871957 0.474526 -0.328119
N1    N     N_R   0.142790 0.500030 0.500020 -0.155583
N2    N     N_R   0.857210 0.499970 0.499980 -0.158571
N3    N     N_R   0.892255 0.425179 0.329386 0.217394
O9    O     O_R   0.879129 0.518140 0.270181 -0.308916
O10   O     O_R   0.903556 0.311431 0.291919 -0.284902
N4    N     N_R   0.114023 0.612412 0.657279 0.219109
O11   O     O_R   0.161550 0.723712 0.649347 -0.306390
O12   O     O_R   0.105474 0.558326 0.742324 -0.340399
C21   C     C_R   0.169572 0.363484 0.348245 0.148606
C22   C     C_R   0.204484 0.238331 0.369159 -0.047769
C23   C     C_R   0.274149 0.158252 0.295831 -0.102570
C24   C     C_R   0.304090 0.200888 0.199946 -0.071921
C25   C     C_R   0.263935 0.323427 0.177297 -0.126718
C26   C     C_R   0.197241 0.404892 0.251074 -0.024653
H1    H     H_    0.177207 0.202750 0.442258 0.185002
H2    H     H_    0.303132 0.062643 0.312981 0.186229
H3    H     H_    0.356702 0.138462 0.142872 0.187304
H4    H     H_    0.284210 0.354992 0.102430 0.176882
H5    H     H_    0.166361 0.499559 0.232564 0.207383
C27   C     C_R   0.831130 0.636119 0.652439 0.146271
C28   C     C_R   0.802922 0.594120 0.749336 -0.032886
C29   C     C_R   0.736656 0.675411 0.823424 -0.122323
C30   C     C_R   0.697454 0.798410 0.801302 -0.076282
C31   C     C_R   0.727907 0.841611 0.705630 -0.119697
C32   C     C_R   0.797130 0.761623 0.632073 -0.054673
H6    H     H_    0.833059 0.499075 0.767423 0.200329
H7    H     H_    0.716011 0.643374 0.898125 0.177606
H8    H     H_    0.645245 0.860729 0.858619 0.186607
H9    H     H_    0.699858 0.937600 0.688791 0.176679
H10   H     H_    0.825130 0.797677 0.559368 0.196537
N5    N     N_R   0.337487 0.599551 0.036452 0.196530
O13   O     O_R   0.219292 0.607951 0.004364 -0.280580
O14   O     O_R   0.359386 0.672735 0.110071 -0.364782
N6    N     N_R   0.662179 0.399228 0.963685 0.197231
O15   O     O_R   0.780276 0.390459 0.995907 -0.281555
O16   O     O_R   0.640231 0.326243 0.889963 -0.375993
N7    N     N_R   0.711440 0.856379 0.369881 0.253966
O17   O     O_R   0.838633 0.874954 0.375399 -0.276048
O18   O     O_R   0.679466 0.775321 0.304708 -0.326586
N8    N     N_R   0.319972 0.115570 0.642396 0.249591
O19   O     O_R   0.344722 0.224487 0.679499 -0.363150
O20   O     O_R   0.250667 0.040588 0.700554 -0.265993
N9    N     N_R   0.722436 0.118890 0.390504 0.260071
O21   O     O_R   0.827173 0.143710 0.435183 -0.301861
O22   O     O_R   0.732196 0.119457 0.294462 -0.285311
N10   N     N_R   0.240472 0.910559 0.503578 0.259453
O23   O     O_R   0.221886 0.840270 0.427422 -0.327927
O24   O     O_R   0.135408 0.974690 0.547883 -0.292929

loop_
_geom_bond_atom_site_label_1
_geom_bond_atom_site_label_2
_geom_bond_distance
_ccdc_geom_bond_type
C26   H5    1.082885 S    
C17   C19   1.411103 A    
C23   C24   1.396582 A    
C15   N7    1.441406 S    
O7    Zn2   1.927596 S    
C5    N2    1.370549 A    
C30   C31   1.396695 A    
C6    N1    1.365427 A    
O5    C3    1.289958 A    
O1    C1    1.286326 A    
C11   C12   1.352904 D    
N4    O11   1.298716 A    
N10   O24   1.301022 A    
C7    C21   1.476641 S    
C28   H6    1.083023 S    
N9    O21   1.301354 A    
O4    Zn1   1.969611 S    
N5    O14   1.301567 A    
C11   N6    1.444990 S    
C23   H2    1.082216 S    
N8    O19   1.300624 A    
C25   H4    1.080750 S    
C32   H10   1.081340 S    
N9    O22   1.301254 A    
O2    C2    1.289678 A    
N3    O9    1.301212 A    
C31   H9    1.082628 S    
C22   H1    1.083021 S    
C3    C10   1.398576 S    
C28   C29   1.399098 A    
N10   O23   1.302055 A    
O4    C2    1.297640 A    
C21   C22   1.404094 A    
N7    O17   1.301273 A    
N7    O18   1.301273 A    
N6    O16   1.301547 A    
C25   C26   1.398926 A    
C10   C13   1.185340 T    
O6    C4    1.289933 A    
C27   C28   1.404920 A    
O7    C3    1.296202 A    
O3    Zn2   1.969610 S    
O8    C4    1.296164 A    
C22   C23   1.397516 A    
C7    N1    1.376391 A    
C8    N2    1.382082 A    
C24   C25   1.397198 A    
C18   N10   1.448865 S    
C29   C30   1.397281 A    
C8    C27   1.476440 S    
C1    C20   1.434832 S    
C15   C20   1.400565 A    
C5    C7    1.424647 A    
C31   C32   1.397285 A    
O6    Zn2   1.949810 S    
Zn1   N1    2.031547 S    
Zn2   N2    2.031545 S    
O3    C1    1.303030 A    
O8    Zn1   1.927597 S    
C30   H8    1.082290 S    
C21   C26   1.405646 A    
C15   C17   1.385387 A    
C16   C18   1.389552 A    
C27   C32   1.403750 A    
N6    O15   1.301502 A    
C18   C20   1.406701 A    
C9    C14   1.185210 T    
C6    N4    1.429648 S    
C12   N5    1.445010 S    
C16   N8    1.450975 S    
C4    C9    1.398305 S    
N4    O12   1.300821 A    
N3    O10   1.298722 A    
C24   H3    1.082269 S    
N5    O13   1.301469 A    
O2    Zn2   2.005734 S    
C29   H7    1.080723 S    
O5    Zn1   1.949809 S    
C2    C19   1.430982 S    
O1    Zn1   2.005731 S    
C16   C19   1.409315 A    
C6    C8    1.427973 A    
C11   C14   1.414217 S    
C12   C13   1.414352 S    
N8    O20   1.301864 A    
C17   N9    1.428069 S    
C5    N3    1.429299 S    
