data_mof_unit_17371.cif
_audit_creation_date              2012-12-11T15:31:43-0500
_audit_creation_method            fapswitch 2.2
_symmetry_space_group_name_H-M    P1
_symmetry_Int_Tables_number       1
_space_group_crystal_system       triclinic
_cell_length_a                    6.944231
_cell_length_b                    14.780968
_cell_length_c                    21.313013
_cell_angle_alpha                 74.85039
_cell_angle_beta                  90.173609
_cell_angle_gamma                 90.752649
_cell_volume                      2111.41063956

loop_
_atom_site_label
_atom_site_type_symbol
_atom_type_description
_atom_site_fract_x
_atom_site_fract_y
_atom_site_fract_z
_atom_type_partial_charge
O1    O     O_R   0.648150 0.130050 0.214300 -0.538889
O2    O     O_R   0.351850 0.869950 0.785700 -0.538889
O3    O     O_R   0.320490 0.006660 0.340150 -0.543799
O4    O     O_R   0.679510 0.993340 0.659850 -0.543799
O5    O     O_R   0.146100 0.869940 0.285700 -0.538792
O6    O     O_R   0.853900 0.130060 0.714300 -0.538792
C1    C     C_R   0.489111 0.001576 0.367150 0.676407
C2    C     C_R   0.510889 0.998424 0.632850 0.676407
O7    O     O_R   0.318690 0.137980 0.218120 -0.540958
O8    O     O_R   0.681310 0.862020 0.781880 -0.540958
O9    O     O_R   0.144280 0.002190 0.162800 -0.541375
O10   O     O_R   0.855720 0.997810 0.837200 -0.541376
C3    C     C_R   0.488602 0.175523 0.205956 0.696047
C4    C     C_R   0.511398 0.824477 0.794044 0.696047
O11   O     O_R   0.649960 0.997790 0.337200 -0.540688
O12   O     O_R   0.350040 0.002210 0.662800 -0.540688
O13   O     O_3   0.479300 0.955290 0.231990 -0.369590
O14   O     O_3   0.520700 0.044710 0.768010 -0.369590
V1    V     V_3+5 0.206040 0.008290 0.253340 1.413819
V2    V     V_3+5 0.793960 0.991710 0.746660 1.413819
O15   O     O_R   0.814320 0.993320 0.159850 -0.543230
O16   O     O_R   0.185680 0.006680 0.840150 -0.543230
C5    C     C_R   0.982999 0.998367 0.132846 0.676321
C6    C     C_R   0.017001 0.001633 0.867154 0.676320
O17   O     O_R   0.816120 0.862000 0.281880 -0.541004
O18   O     O_R   0.183880 0.138000 0.718120 -0.541004
C7    C     C_R   0.983770 0.824410 0.294122 0.696657
C8    C     C_R   0.016230 0.175590 0.705878 0.696657
V3    V     V_3+5 0.705540 0.991700 0.246660 1.414588
V4    V     V_3+5 0.294460 0.008300 0.753340 1.414588
O19   O     O_3   0.982150 0.044700 0.268010 -0.369654
O20   O     O_3   0.017850 0.955300 0.731990 -0.369654
C9    C     C_R   0.987413 0.723005 0.321731 -0.033324
C10   C     C_R   0.012587 0.276995 0.678269 -0.033324
C11   C     C_R   0.941337 0.566518 0.309516 -0.163049
C12   C     C_R   0.058664 0.433482 0.690484 -0.163049
C13   C     C_R   0.952505 0.662813 0.282201 -0.175299
C14   C     C_R   0.047495 0.337187 0.717799 -0.175299
C15   C     C_R   0.010418 0.687019 0.388812 -0.214802
C16   C     C_R   0.989581 0.312981 0.611187 -0.214802
C17   C     C_R   0.995223 0.589433 0.418231 0.084512
C18   C     C_R   0.004777 0.410567 0.581769 0.084512
C19   C     C_R   0.960553 0.529505 0.376939 0.142573
C20   C     C_R   0.039448 0.470495 0.623060 0.142573
C21   C     C_R   0.010113 0.549655 0.486956 0.059812
C22   C     C_R   0.989887 0.450345 0.513044 0.059812
C23   C     C_R   0.956282 0.394165 0.469542 -0.191848
C24   C     C_R   0.043719 0.605835 0.530458 -0.191847
C25   C     C_R   0.942519 0.433131 0.403063 -0.206231
C26   C     C_R   0.057482 0.566869 0.596937 -0.206231
H1    H     H_    0.915843 0.387122 0.371723 0.120527
H2    H     H_    0.084157 0.612878 0.628277 0.120527
H3    H     H_    0.965459 0.262371 0.583598 0.090286
H4    H     H_    0.034540 0.737629 0.416402 0.090286
H5    H     H_    0.067494 0.309490 0.769697 0.100623
H6    H     H_    0.932506 0.690510 0.230303 0.100623
H7    H     H_    0.914502 0.520882 0.277971 0.112650
H8    H     H_    0.085499 0.479118 0.722029 0.112650
H9    H     H_    0.938983 0.319191 0.485063 0.117475
H10   H     H_    0.061018 0.680809 0.514937 0.117475
C27   C     C_3   0.820506 0.994705 0.977572 -0.116759
C28   C     C_3   0.179494 0.005295 0.022428 -0.116759
C29   C     C_3   0.914550 0.920132 0.033780 -0.144979
C30   C     C_3   0.085449 0.079868 0.966220 -0.144980
H11   H     H_    0.844012 0.854277 0.062011 0.097882
H12   H     H_    0.155987 0.145723 0.937989 0.097882
H13   H     H_    0.672138 0.990385 0.958894 0.108886
H14   H     H_    0.327862 0.009615 0.041106 0.108886
C31   C     C_3   0.992503 0.998930 0.062232 -0.005126
C32   C     C_3   0.007497 0.001070 0.937768 -0.005126
C33   C     C_3   0.898533 0.073517 0.006826 -0.138667
C34   C     C_3   0.101467 0.926483 0.993174 -0.138667
H15   H     H_    0.814560 0.134068 0.012909 0.102285
H16   H     H_    0.185440 0.865932 0.987091 0.102285
C35   C     C_3   0.680957 0.994841 0.479175 -0.118313
C36   C     C_3   0.319043 0.005159 0.520825 -0.118313
C37   C     C_3   0.603656 0.073587 0.507703 -0.137057
C38   C     C_3   0.396344 0.926413 0.492296 -0.137058
H17   H     H_    0.689121 0.134323 0.514526 0.097025
H18   H     H_    0.310879 0.865677 0.485474 0.097025
H19   H     H_    0.830320 0.990645 0.461788 0.107964
H20   H     H_    0.169680 0.009355 0.538212 0.107964
C39   C     C_3   0.502875 0.999002 0.562248 -0.005287
C40   C     C_3   0.497125 0.000998 0.437752 -0.005287
C41   C     C_3   0.580210 0.920272 0.534531 -0.143253
C42   C     C_3   0.419790 0.079728 0.465469 -0.143253
H21   H     H_    0.646082 0.854452 0.563466 0.101692
H22   H     H_    0.353918 0.145548 0.436534 0.101692
C43   C     C_R   0.502024 0.276724 0.178139 -0.032973
C44   C     C_R   0.497976 0.723275 0.821861 -0.032973
C45   C     C_R   0.571829 0.431598 0.190008 -0.162202
C46   C     C_R   0.428172 0.568402 0.809991 -0.162202
C47   C     C_R   0.549189 0.335754 0.217469 -0.176892
C48   C     C_R   0.450811 0.664246 0.782531 -0.176892
C49   C     C_R   0.478024 0.313305 0.111175 -0.216277
C50   C     C_R   0.521976 0.686695 0.888825 -0.216278
C51   C     C_R   0.503174 0.410366 0.081664 0.084221
C52   C     C_R   0.496827 0.589634 0.918336 0.084221
C53   C     C_R   0.550552 0.469194 0.122705 0.142716
C54   C     C_R   0.449449 0.530806 0.877295 0.142716
C55   C     C_R   0.485064 0.450638 0.013100 0.059732
C56   C     C_R   0.514936 0.549362 0.986900 0.059732
C57   C     C_R   0.561374 0.604480 0.030128 -0.192860
C58   C     C_R   0.438627 0.395520 0.969872 -0.192860
C59   C     C_R   0.578317 0.565025 0.096461 -0.205484
C60   C     C_R   0.421685 0.434975 0.903539 -0.205485
H23   H     H_    0.556490 0.736513 0.916207 0.091469
H24   H     H_    0.443509 0.263487 0.083793 0.091469
H25   H     H_    0.430642 0.692492 0.730692 0.101381
H26   H     H_    0.569359 0.307508 0.269308 0.101381
H27   H     H_    0.608119 0.476399 0.221369 0.112939
H28   H     H_    0.391882 0.523601 0.778631 0.112939
H29   H     H_    0.586417 0.678969 0.014508 0.118789
H30   H     H_    0.413584 0.321031 0.985492 0.118789
H31   H     H_    0.614737 0.610208 0.127593 0.119384
H32   H     H_    0.385264 0.389792 0.872407 0.119384

loop_
_geom_bond_atom_site_label_1
_geom_bond_atom_site_label_2
_ccdc_geom_bond_type
C27   C32   S    
C29   H11   S    
C55   C56   A    
O11   V3    S    
C2    C39   S    
O13   V3    S    
C5    C31   S    
O4    C2    A    
V1    O19   S    
C58   C60   A    
C6    C32   S    
C23   C25   A    
C21   C22   A    
C7    C9    S    
O9    V1    S    
C9    C15   A    
C10   C16   A    
C57   H29   S    
C36   C38   S    
O3    C1    A    
C38   H18   S    
C35   C40   S    
C15   H4    S    
C37   C39   S    
O12   V4    S    
C31   C33   S    
C18   C22   A    
C30   C33   S    
C45   H27   S    
C27   C29   S    
O7    C3    A    
C4    C44   S    
C28   C30   S    
O5    C7    A    
C13   H6    S    
C35   C41   S    
O6    C8    A    
C14   H5    S    
C29   C31   S    
O8    V2    S    
C25   H1    S    
C50   C52   A    
C26   H2    S    
O3    V1    S    
O14   V4    S    
C30   C32   S    
C11   C19   A    
O14   V2    S    
C47   H26   S    
C24   H10   S    
C27   C33   S    
C41   H21   S    
C1    C40   S    
C8    C10   S    
C2    O12   A    
C17   C19   A    
C18   C20   A    
C36   C39   S    
O1    V3    S    
O18   C8    A    
C51   C53   A    
O7    V1    S    
C44   C48   A    
C37   H17   S    
O17   V3    S    
C53   C59   A    
C19   C25   A    
C34   H16   S    
O8    C4    A    
C36   H20   S    
C33   H15   S    
C35   H19   S    
C1    O11   A    
C52   C56   A    
O15   V3    S    
C9    C13   A    
C28   C31   S    
C60   H32   S    
C30   H12   S    
C43   C49   A    
C45   C47   A    
C27   H13   S    
O10   V2    S    
C46   C48   A    
C28   C34   S    
C57   C59   A    
C24   C26   A    
C35   C37   S    
C58   H30   S    
C38   C41   S    
C39   C41   S    
C50   H23   S    
C37   C42   S    
O18   V4    S    
C55   C58   A    
C52   C54   A    
O15   C5    A    
O16   C6    A    
C12   C20   A    
O1    C3    A    
O2    V4    S    
C36   C42   S    
C46   C54   A    
V2    O20   S    
C21   C24   A    
C20   C26   A    
C22   C23   A    
O16   V4    S    
C3    C43   S    
C10   C14   A    
C54   C60   A    
C59   H31   S    
C46   H28   S    
C40   C42   S    
C16   C18   A    
C49   C51   A    
C44   C50   A    
O5    V1    S    
O17   C7    A    
O6    V2    S    
O10   C6    A    
C48   H25   S    
C12   H8    S    
C28   H14   S    
C11   H7    S    
C12   C14   A    
C11   C13   A    
V3    O19   S    
V4    O20   S    
O9    C5    A    
O13   V1    S    
C42   H22   S    
C43   C47   A    
C56   C57   A    
O2    C4    A    
C49   H24   S    
C23   H9    S    
O4    V2    S    
C38   C40   S    
C29   C34   S    
C15   C17   A    
C16   H3    S    
C17   C21   A    
C32   C34   S    
C45   C53   A    
C51   C55   A    
