data_mof_unit_15270.cif
_audit_creation_date              2012-12-10T17:33:05-0500
_audit_creation_method            fapswitch 2.2
_symmetry_space_group_name_H-M    P1
_symmetry_Int_Tables_number       1
_space_group_crystal_system       triclinic
_cell_length_a                    12.365227
_cell_length_b                    13.191873
_cell_length_c                    14.269924
_cell_angle_alpha                 93.356493
_cell_angle_beta                  107.635302
_cell_angle_gamma                 116.857644
_cell_volume                      1926.05238866

loop_
_atom_site_label
_atom_site_type_symbol
_atom_type_description
_atom_site_fract_x
_atom_site_fract_y
_atom_site_fract_z
_atom_type_partial_charge
C1    C     C_R   0.651178 0.714606 0.509745 0.865116
C2    C     C_R   0.841416 0.490516 0.918669 0.042357
C3    C     C_R   0.791347 0.507371 0.992141 0.054308
C4    C     C_R   0.945546 0.465063 0.945196 0.060330
C5    C     C_R   0.008959 0.470434 0.047871 0.034771
C6    C     C_R   0.954970 0.484757 0.118757 -0.249184
C7    C     C_R   0.848038 0.502429 0.091745 0.348505
C8    C     C_R   0.986100 0.431453 0.871972 -0.165260
C9    C     C_R   0.091240 0.411709 0.899285 -0.108624
C10   C     C_R   0.162439 0.426870 0.000776 0.056993
C11   C     C_R   0.122755 0.458563 0.076061 0.065876
C12   C     C_R   0.618229 0.516598 0.686674 0.790730
C13   C     C_R   0.272971 0.411391 0.028991 0.365881
C14   C     C_R   0.344094 0.428872 0.130886 -0.143481
C15   C     C_R   0.200592 0.481026 0.177709 -0.247156
C16   C     C_R   0.126783 0.964415 0.355356 -0.176584
C17   C     C_R   0.248064 0.159892 0.461505 -0.134858
C18   C     C_R   0.741590 0.920528 0.588992 -0.222962
C19   C     C_R   0.839426 0.036271 0.616244 0.446352
C20   C     C_R   0.937847 0.070719 0.577385 -0.199361
C21   C     C_R   0.935807 0.990646 0.505114 -0.010224
C22   C     C_R   0.825419 0.876559 0.467092 -0.018856
C23   C     C_R   0.344682 0.284452 0.483909 0.837480
C24   C     C_R   0.038462 0.020394 0.468083 0.100689
C25   C     C_R   0.025946 0.938263 0.391206 -0.000667
C26   C     C_R   0.909686 0.833555 0.345873 -0.201871
C27   C     C_R   0.807578 0.805195 0.379271 0.394817
C28   C     C_R   0.152687 0.129666 0.503992 -0.268384
C29   C     C_R   0.237391 0.074449 0.389409 0.381364
C30   C     C_R   0.736477 0.838963 0.517728 -0.141396
C31   C     C_R   0.253038 0.684368 0.662664 -0.271803
C32   C     C_R   0.656174 0.345407 0.360927 0.189968
C33   C     C_R   0.733816 0.310485 0.330938 -0.151095
C34   C     C_R   0.380091 0.481100 0.313121 0.883770
C35   C     C_R   0.868382 0.367750 0.383749 -0.170688
C36   C     C_R   0.927830 0.461942 0.467570 0.010404
C37   C     C_R   0.843551 0.493933 0.496213 0.305513
C38   C     C_R   0.067258 0.526019 0.523453 -0.025597
C39   C     C_R   0.118434 0.619972 0.606439 0.166275
C40   C     C_R   0.035364 0.649894 0.632864 -0.276981
C41   C     C_R   0.901692 0.588940 0.578945 -0.191656
C42   C     C_R   0.159420 0.501990 0.501112 0.031239
C43   C     C_R   0.337723 0.656339 0.636959 0.090565
C44   C     C_R   0.679597 0.519115 0.792886 -0.064395
C45   C     C_R   0.308467 0.464230 0.205469 -0.105920
C46   C     C_R   0.685115 0.528345 0.963989 -0.078348
C47   C     C_R   0.628767 0.532648 0.864910 -0.160285
C48   C     C_R   0.787304 0.502049 0.820916 -0.203037
Cu1   Cu    Cu3+1 0.416420 0.526630 0.522910 0.958864
Cu2   Cu    Cu3+1 0.583580 0.473370 0.477090 1.008818
H1    H     H_    0.895533 0.776170 0.280373 0.215069
H2    H     H_    0.117107 0.900582 0.297317 0.182218
H3    H     H_    0.012702 0.161015 0.604291 0.163988
H4    H     H_    0.181143 0.515011 0.237241 0.168603
H5    H     H_    0.074327 0.722187 0.696081 0.164751
H6    H     H_    0.292668 0.756300 0.726312 0.154071
H7    H     H_    0.128816 0.431965 0.439330 0.120247
H8    H     H_    0.552798 0.302558 0.317488 0.173347
H9    H     H_    0.923652 0.337504 0.356749 0.134839
H10   H     H_    0.689563 0.239490 0.265580 0.169917
H11   H     H_    0.847683 0.620389 0.604734 0.196139
H12   H     H_    0.545281 0.546201 0.844751 0.187340
H13   H     H_    0.828908 0.500077 0.765129 0.152155
H14   H     H_    0.990690 0.478399 0.195806 0.170165
N1    N     N_R   0.290690 0.566960 0.557640 -0.182891
N2    N     N_R   0.709100 0.433710 0.442970 -0.210787
O1    O     O_R   0.545970 0.684450 0.528810 -0.584400
O2    O     O_R   0.687130 0.639470 0.490120 -0.570489
O3    O     O_R   0.519670 0.535100 0.660030 -0.585789
O4    O     O_R   0.660830 0.490120 0.621340 -0.606910
O5    O     O_R   0.312870 0.360530 0.509880 -0.596217
O6    O     O_R   0.454030 0.315550 0.471190 -0.535275
O7    O     O_R   0.339170 0.509880 0.378660 -0.597941
O8    O     O_R   0.480330 0.464900 0.339970 -0.550499
Cl1   Cl    Cl    0.789886 0.519796 0.186899 -0.647771
Cl2   Cl    Cl    0.326484 0.370045 0.939727 -0.638708
Cl3   Cl    Cl    0.353176 0.100955 0.333214 -0.635658
H15   H     H_    0.168942 0.195220 0.563237 0.172338
H16   H     H_    0.672416 0.893569 0.626714 0.181790
Cl4   Cl    Cl    0.843791 0.137332 0.705072 -0.627533
Cl5   Cl    Cl    0.653285 0.694943 0.294757 -0.590175
H17   H     H_    0.441470 0.705933 0.680425 0.127580
H18   H     H_    0.427809 0.415592 0.151610 0.215153
H19   H     H_    0.116850 0.385702 0.839583 0.212357
H20   H     H_    0.643809 0.540474 0.017691 0.224379
H21   H     H_    0.935651 0.415254 0.791859 0.172288

loop_
_geom_bond_atom_site_label_1
_geom_bond_atom_site_label_2
_ccdc_geom_bond_type
C12   O3    A    
C17   C29   A    
C19   C20   A    
C41   H11   S    
C4    C8    A    
C47   H12   S    
C26   C27   A    
C17   C23   S    
C31   C43   A    
C36   C37   A    
C38   C42   A    
C3    C7    A    
Cu2   O8    S    
C5    C6    A    
C1    O2    A    
C35   H9    S    
C18   C19   A    
C6    H14   S    
Cu2   O6    S    
C1    O1    A    
C11   C15   A    
C35   C36   A    
C8    C9    A    
C42   N1    A    
C18   C30   A    
C32   H8    S    
C31   H6    S    
C28   H15   S    
C9    C10   A    
C44   C47   A    
C46   H20   S    
Cu1   O3    S    
C21   C22   A    
C14   H18   S    
Cu1   O1    S    
C42   H7    S    
C25   C26   A    
C14   C45   A    
C15   H4    S    
C23   O5    A    
C27   Cl5   S    
C24   C25   A    
C16   H2    S    
C39   C40   A    
C18   H16   S    
C48   H13   S    
C7    Cl1   S    
C34   O7    A    
C2    C48   A    
C16   C29   A    
C2    C4    A    
C13   Cl2   S    
C43   N1    A    
C40   H5    S    
C37   N2    A    
C34   C45   S    
Cu2   N2    S    
Cu1   N1    S    
C34   O8    A    
C40   C41   A    
C33   H10   S    
C22   C27   A    
Cu1   O7    S    
C15   C45   A    
C32   N2    A    
C16   C25   A    
C12   O4    A    
C46   C47   A    
C22   C30   A    
C17   C28   A    
C23   O6    A    
C24   C28   A    
C20   H3    S    
C10   C13   A    
C5    C11   A    
C6    C7    A    
C3    C46   A    
C32   C33   A    
C36   C38   A    
C2    C3    A    
Cu2   O4    S    
C12   C44   S    
C26   H1    S    
C38   C39   A    
C1    C30   S    
C33   C35   A    
C31   C39   A    
C8    H21   S    
C37   C41   A    
C19   Cl4   S    
C10   C11   A    
C9    H19   S    
C4    C5    A    
C29   Cl3   S    
C20   C21   A    
Cu1   Cu2   S    
Cu1   O5    S    
C21   C24   A    
C43   H17   S    
C13   C14   A    
Cu2   O2    S    
C44   C48   A    
