data_mof_unit_23095.cif
_audit_creation_date              2012-12-11T15:20:44-0500
_audit_creation_method            fapswitch 2.2
_symmetry_space_group_name_H-M    P1
_symmetry_Int_Tables_number       1
_space_group_crystal_system       triclinic
_cell_length_a                    21.483689
_cell_length_b                    7.2783
_cell_length_c                    19.854852
_cell_angle_alpha                 90.041858
_cell_angle_beta                  87.794147
_cell_angle_gamma                 90.123497
_cell_volume                      3102.29024718

loop_
_atom_site_label
_atom_site_type_symbol
_atom_type_description
_atom_site_fract_x
_atom_site_fract_y
_atom_site_fract_z
_atom_type_partial_charge
O1    O     O_R   0.688010 0.379840 0.189360 -0.537464
O2    O     O_R   0.311990 0.620160 0.810640 -0.537344
O3    O     O_R   0.811990 0.879840 0.310640 -0.547244
O4    O     O_R   0.188010 0.120160 0.689360 -0.536681
O5    O     O_R   0.808630 0.708850 0.184280 -0.525984
O6    O     O_R   0.191370 0.291150 0.815720 -0.528603
O7    O     O_R   0.691370 0.208850 0.315720 -0.530876
O8    O     O_R   0.308630 0.791150 0.684280 -0.532455
C1    C     C_R   0.830252 0.541083 0.166639 0.730970
C2    C     C_R   0.169719 0.459048 0.833321 0.728275
C3    C     C_R   0.669796 0.040694 0.333404 0.729110
C4    C     C_R   0.330378 0.958831 0.666785 0.730226
O9    O     O_R   0.688260 0.709510 0.181570 -0.539027
O10   O     O_R   0.311740 0.290490 0.818430 -0.532918
O11   O     O_R   0.811740 0.209510 0.318430 -0.537214
O12   O     O_R   0.188260 0.790490 0.681570 -0.541568
O13   O     O_R   0.690760 0.880550 0.307920 -0.524613
O14   O     O_R   0.309240 0.119450 0.692080 -0.519204
O15   O     O_R   0.809240 0.380550 0.192080 -0.517456
O16   O     O_R   0.190760 0.619450 0.807920 -0.522885
C5    C     C_R   0.667946 0.541056 0.166348 0.767339
C6    C     C_R   0.332606 0.459457 0.832782 0.763115
C7    C     C_R   0.830767 0.041054 0.335241 0.764610
C8    C     C_R   0.166388 0.958346 0.668637 0.766590
O17   O     O_3   0.750960 0.546580 0.291460 -0.384513
O18   O     O_3   0.249040 0.453420 0.708540 -0.376262
O19   O     O_3   0.749040 0.046580 0.208540 -0.373675
O20   O     O_3   0.250960 0.953420 0.791460 -0.381984
V1    V     V_3+5 0.749820 0.821150 0.242310 1.339085
V2    V     V_3+5 0.250180 0.178850 0.757690 1.353593
V3    V     V_3+5 0.750180 0.321150 0.257690 1.339140
V4    V     V_3+5 0.249820 0.678850 0.742310 1.345257
C9    C     C_R   0.048110 0.976063 0.655300 -0.014494
C10   C     C_R   0.941646 0.075085 0.370640 -0.023867
C11   C     C_R   0.446714 0.529825 0.853716 -0.037024
C12   C     C_R   0.553400 0.569413 0.139829 -0.041838
C13   C     C_R   0.110530 0.969563 0.627179 -0.155274
C14   C     C_R   0.878680 0.034365 0.387621 -0.161844
C15   C     C_R   0.386101 0.473302 0.877574 -0.152203
C16   C     C_R   0.616262 0.533501 0.118673 -0.138475
C17   C     C_R   0.122490 0.993136 0.558272 0.303595
C18   C     C_R   0.860059 0.001164 0.455603 0.328603
C19   C     C_R   0.373472 0.448757 0.946826 0.289958
C20   C     C_R   0.631869 0.499500 0.050241 0.318699
C21   C     C_R   0.075919 0.063093 0.517698 -0.034957
C22   C     C_R   0.903282 0.023587 0.508341 -0.065260
C23   C     C_R   0.415509 0.516530 0.994155 -0.041616
C24   C     C_R   0.588244 0.538704 0.999560 -0.057985
C25   C     C_R   0.012606 0.042631 0.540167 -0.045254
C26   C     C_R   0.966374 0.055792 0.490851 -0.038515
C27   C     C_R   0.478133 0.542151 0.972140 -0.044881
C28   C     C_R   0.524748 0.554126 0.020597 -0.041684
C29   C     C_R   0.996342 0.998363 0.609410 0.018328
C30   C     C_R   0.983475 0.107378 0.423667 0.035231
C31   C     C_R   0.493986 0.559778 0.902564 0.024781
C32   C     C_R   0.507262 0.582871 0.089376 0.029736
C33   C     C_R   0.090247 0.159086 0.456293 0.058089
C34   C     C_R   0.884579 0.025917 0.577820 0.056103
C35   C     C_R   0.397012 0.577637 0.060317 0.057341
C36   C     C_R   0.604700 0.579327 0.930163 0.060827
C37   C     C_R   0.040889 0.200945 0.413404 0.045561
C38   C     C_R   0.929557 0.989987 0.627749 0.051173
C39   C     C_R   0.444455 0.641180 0.103337 0.058344
C40   C     C_R   0.555663 0.624297 0.886206 0.066732
C41   C     C_1   0.382628 0.967549 0.614628 -0.205473
C42   C     C_1   0.617847 0.029182 0.385836 -0.206324
C43   C     C_1   0.117445 0.469544 0.885407 -0.201327
C44   C     C_1   0.882302 0.531209 0.114265 -0.201910
C45   C     C_1   0.426336 0.976690 0.571826 -0.021348
C46   C     C_1   0.574299 0.016989 0.428736 -0.017695
C47   C     C_1   0.073714 0.480690 0.928106 -0.016234
C48   C     C_1   0.925867 0.520553 0.071336 -0.011123
C49   C     C_1   0.478377 0.990075 0.521506 -0.009255
C50   C     C_1   0.522335 0.002259 0.479104 -0.004179
C51   C     C_1   0.021703 0.494759 0.978425 -0.009416
C52   C     C_1   0.977793 0.506752 0.020886 -0.004356
C53   C     C_3   0.037905 0.942500 0.731567 -0.440849
C54   C     C_3   0.082182 0.026347 0.782461 -0.292246
C55   C     C_3   0.053160 0.027439 0.854132 -0.788895
H1    H     H_    0.013127 0.123752 0.857776 0.233065
H2    H     H_    0.037174 0.887238 0.868734 0.233928
H3    H     H_    0.088399 0.072707 0.890125 0.232519
H4    H     H_    0.124877 0.942756 0.785563 0.222175
H5    H     H_    0.093083 0.170050 0.767567 0.207665
H6    H     H_    0.996213 0.013821 0.746545 0.236871
H7    H     H_    0.033160 0.792682 0.741264 0.175915
C56   C     C_3   0.965194 0.066117 0.296650 -0.372204
C57   C     C_3   0.955421 0.877667 0.263294 -0.316076
C58   C     C_3   0.997743 0.853355 0.200222 -0.784642
H8    H     H_    0.985835 0.956096 0.161468 0.237704
H9    H     H_    0.047493 0.870067 0.212091 0.223649
H10   H     H_    0.991257 0.713601 0.179259 0.223717
H11   H     H_    0.963923 0.765251 0.299498 0.201351
H12   H     H_    0.907247 0.864688 0.246657 0.213507
H13   H     H_    0.942041 0.174188 0.267077 0.161572
H14   H     H_    0.016018 0.091504 0.292733 0.191986
C59   C     C_3   0.464051 0.541788 0.777813 -0.389689
C60   C     C_3   0.429846 0.418449 0.727986 -0.302853
C61   C     C_3   0.465867 0.407292 0.660187 -0.781168
H15   H     H_    0.476414 0.547393 0.640609 0.233161
H16   H     H_    0.510090 0.330754 0.665432 0.227548
H17   H     H_    0.437281 0.335184 0.623075 0.232049
H18   H     H_    0.423598 0.277493 0.748590 0.197688
H19   H     H_    0.383932 0.478127 0.717117 0.214878
H20   H     H_    0.459205 0.686603 0.761237 0.183160
H21   H     H_    0.513281 0.498099 0.771308 0.194607
C62   C     C_3   0.533184 0.579887 0.214951 -0.394890
C63   C     C_3   0.566133 0.456171 0.265325 -0.295906
C64   C     C_3   0.527353 0.437532 0.331193 -0.785597
H22   H     H_    0.514548 0.575349 0.351408 0.233725
H23   H     H_    0.484293 0.357161 0.322958 0.226984
H24   H     H_    0.554858 0.366013 0.369243 0.232037
H25   H     H_    0.574362 0.317204 0.243580 0.199759
H26   H     H_    0.610887 0.519389 0.279063 0.209567
H27   H     H_    0.536733 0.724622 0.232231 0.181909
H28   H     H_    0.484066 0.533463 0.219423 0.198138
O21   O     O_3   0.180834 0.946204 0.531273 -0.571204
C65   C     C_3   0.181932 0.754688 0.518011 0.082360
H29   H     H_    0.162008 0.727643 0.468480 0.120400
H30   H     H_    0.154581 0.672798 0.556431 0.083252
C66   C     C_3   0.248786 0.682386 0.517421 -0.285933
H31   H     H_    0.269036 0.709880 0.566912 0.209872
H32   H     H_    0.248040 0.531107 0.509827 0.141069
C67   C     C_3   0.290255 0.768711 0.461911 -0.719835
H33   H     H_    0.271659 0.738430 0.411666 0.206827
H34   H     H_    0.337886 0.710434 0.463690 0.209502
H35   H     H_    0.293414 0.919539 0.469322 0.254104
O22   O     O_3   0.798795 0.948338 0.469160 -0.579724
C68   C     C_3   0.795777 0.762012 0.489949 0.020727
H36   H     H_    0.753774 0.746843 0.523528 0.154652
H37   H     H_    0.836692 0.715389 0.518302 0.116140
C69   C     C_3   0.785070 0.634536 0.430956 -0.267249
H38   H     H_    0.742630 0.681312 0.405903 0.226468
H39   H     H_    0.826042 0.638258 0.395200 0.201824
C70   C     C_3   0.775403 0.437458 0.454871 -0.816604
H40   H     H_    0.821310 0.377840 0.466062 0.218138
H41   H     H_    0.754028 0.355069 0.415067 0.270675
H42   H     H_    0.743610 0.430923 0.500288 0.210239
O23   O     O_3   0.321139 0.348624 0.966726 -0.573426
C71   C     C_3   0.339261 0.164838 0.978206 0.121542
H43   H     H_    0.362882 0.153926 0.026978 0.112718
H44   H     H_    0.371701 0.112796 0.937221 0.075935
C72   C     C_3   0.281875 0.040082 0.979537 -0.280310
H45   H     H_    0.256497 0.058894 0.932300 0.214923
H46   H     H_    0.297133 0.894524 0.981701 0.135987
C73   C     C_3   0.237883 0.079983 0.039938 -0.733750
H47   H     H_    0.262073 0.058748 0.087733 0.204904
H48   H     H_    0.197345 0.985216 0.039171 0.208480
H49   H     H_    0.220578 0.223424 0.037822 0.252482
O24   O     O_3   0.690581 0.428294 0.035625 -0.590144
C74   C     C_3   0.686500 0.249637 0.007535 0.021636
H50   H     H_    0.718827 0.244212 0.962591 0.149598
H51   H     H_    0.639357 0.210715 0.990313 0.114927
C75   C     C_3   0.707978 0.107754 0.058121 -0.242627
H52   H     H_    0.754264 0.148724 0.076389 0.215271
H53   H     H_    0.673937 0.101842 0.101635 0.201857
C76   C     C_3   0.713165 0.917942 0.026028 -0.839306
H54   H     H_    0.666559 0.871816 0.010651 0.227063
H55   H     H_    0.731237 0.818521 0.062726 0.260553
H56   H     H_    0.745761 0.920951 0.981230 0.220208
C77   C     C_3   0.155691 0.232782 0.438883 -0.305265
C78   C     C_3   0.187938 0.122129 0.381751 -0.288017
C79   C     C_3   0.251123 0.205472 0.361250 -0.791946
H57   H     H_    0.281718 0.210161 0.405048 0.235719
H58   H     H_    0.273976 0.120614 0.320949 0.218702
H59   H     H_    0.245097 0.347136 0.341785 0.225840
H60   H     H_    0.194619 0.978512 0.398012 0.223765
H61   H     H_    0.158721 0.118230 0.336870 0.178163
H62   H     H_    0.154164 0.378502 0.423677 0.165694
H63   H     H_    0.185208 0.237438 0.483331 0.201000
C80   C     C_3   0.822293 0.119147 0.598388 -0.277689
C81   C     C_3   0.769601 0.996220 0.629418 -0.290459
C82   C     C_3   0.705395 0.051082 0.605401 -0.764308
H64   H     H_    0.694789 0.194991 0.620519 0.219080
H65   H     H_    0.703335 0.039702 0.549812 0.260098
H66   H     H_    0.669252 0.959458 0.628773 0.211313
H67   H     H_    0.778303 0.849301 0.619390 0.172798
H68   H     H_    0.766691 0.008773 0.684880 0.178017
H69   H     H_    0.831624 0.234521 0.633077 0.124290
H70   H     H_    0.804378 0.191883 0.554552 0.204118
C83   C     C_3   0.328190 0.597512 0.082652 -0.326710
C84   C     C_3   0.312106 0.477621 0.144404 -0.302262
C85   C     C_3   0.244656 0.505090 0.169305 -0.781446
H71   H     H_    0.212269 0.471148 0.128827 0.233548
H72   H     H_    0.234154 0.413487 0.212985 0.219185
H73   H     H_    0.237084 0.649732 0.185489 0.226968
H74   H     H_    0.319084 0.330928 0.130877 0.199681
H75   H     H_    0.343169 0.511849 0.186120 0.189784
H76   H     H_    0.315701 0.742083 0.092873 0.147330
H77   H     H_    0.295548 0.565053 0.043027 0.223113
C86   C     C_3   0.672321 0.595149 0.902339 -0.351151
C87   C     C_3   0.684046 0.466651 0.841685 -0.318858
C88   C     C_3   0.751322 0.478731 0.814352 -0.793307
H78   H     H_    0.762208 0.620868 0.797261 0.226149
H79   H     H_    0.783951 0.438246 0.853770 0.232757
H80   H     H_    0.757944 0.384327 0.770711 0.215322
H81   H     H_    0.673901 0.322605 0.856962 0.186244
H82   H     H_    0.652793 0.502874 0.800454 0.196521
H83   H     H_    0.684467 0.738069 0.888488 0.151834
H84   H     H_    0.707982 0.568805 0.938795 0.233168
C89   C     C_3   0.045891 0.365230 0.365348 -0.369618
C90   C     C_3   0.047362 0.550335 0.402969 -0.289780
C91   C     C_3   0.084783 0.692333 0.361692 -0.815844
H85   H     H_    0.134845 0.654674 0.358513 0.215337
H86   H     H_    0.068243 0.699353 0.309722 0.246815
H87   H     H_    0.079799 0.829213 0.385503 0.232843
H88   H     H_    0.998926 0.601313 0.411680 0.189558
H89   H     H_    0.067460 0.537510 0.453426 0.182676
H90   H     H_    0.087178 0.348423 0.330607 0.182121
H91   H     H_    0.005328 0.376390 0.332948 0.164427
C92   C     C_3   0.902003 0.915802 0.694778 -0.335971
C93   C     C_3   0.883690 0.066432 0.747603 -0.314370
C94   C     C_3   0.875900 0.985201 0.818336 -0.784300
H92   H     H_    0.837511 0.882712 0.820034 0.227060
H93   H     H_    0.919423 0.917271 0.833305 0.236881
H94   H     H_    0.864261 0.096151 0.855106 0.221129
H95   H     H_    0.917681 0.181478 0.747454 0.185156
H96   H     H_    0.839425 0.133523 0.736819 0.186197
H97   H     H_    0.860420 0.831051 0.685817 0.155992
H98   H     H_    0.931945 0.807606 0.715059 0.162719
C95   C     C_3   0.431676 0.807714 0.149517 -0.362365
C96   C     C_3   0.474087 0.970297 0.129497 -0.304001
C97   C     C_3   0.460439 0.135858 0.174374 -0.807295
H99   H     H_    0.411383 0.180451 0.170422 0.223163
H100  H     H_    0.469642 0.103076 0.227699 0.233992
H101  H     H_    0.491371 0.249128 0.157455 0.238529
H102  H     H_    0.523915 0.933918 0.133833 0.203064
H103  H     H_    0.466528 0.008728 0.076212 0.187209
H104  H     H_    0.383938 0.860084 0.146678 0.174937
H105  H     H_    0.434682 0.776311 0.203571 0.163637
C98   C     C_3   0.565404 0.784508 0.836670 -0.358642
C99   C     C_3   0.523247 0.946125 0.856936 -0.308236
C100  C     C_3   0.536045 0.109663 0.811103 -0.811818
H106  H     H_    0.585532 0.153047 0.812393 0.225527
H107  H     H_    0.524180 0.076448 0.758512 0.236232
H108  H     H_    0.506618 0.223188 0.829932 0.239583
H109  H     H_    0.473356 0.907830 0.854043 0.198124
H110  H     H_    0.531977 0.987085 0.909765 0.192677
H111  H     H_    0.613010 0.839801 0.835818 0.179210
H112  H     H_    0.560197 0.747147 0.783457 0.159998

loop_
_geom_bond_atom_site_label_1
_geom_bond_atom_site_label_2
_ccdc_geom_bond_type
C81   H67   S    
C34   C38   A    
C70   H42   S    
C91   H85   S    
C25   C29   A    
O1    C5    A    
C76   H54   S    
O19   V1    S    
O13   V1    S    
C89   C90   S    
C39   C95   S    
O3    C7    A    
C97   H99   S    
C71   C72   S    
C80   C81   S    
O15   V3    S    
O22   C68   S    
C65   H30   S    
C77   C78   S    
C97   H101  S    
O4    V2    S    
C70   H40   S    
C53   C54   S    
O7    C3    A    
C92   H98   S    
C91   H86   S    
C21   C33   A    
C26   C30   A    
C98   H111  S    
C79   H58   S    
C86   H83   S    
C14   C18   A    
C11   C59   S    
C64   H23   S    
C18   C22   A    
O4    C8    A    
C60   H19   S    
C82   H66   S    
C93   H95   S    
C81   H68   S    
C60   H18   S    
C59   C60   S    
O1    V3    S    
C63   C64   S    
O2    V4    S    
C49   C50   T    
C74   C75   S    
C63   H26   S    
C55   H1    S    
O3    V1    S    
C65   H29   S    
C66   C67   S    
C37   C89   S    
C84   C85   S    
C38   C92   S    
C83   H76   S    
C54   H4    S    
C1    O15   A    
C72   H46   S    
C79   H57   S    
C2    O16   A    
C69   H38   S    
C88   H79   S    
C56   H13   S    
C95   H105  S    
C46   C50   S    
C62   C63   S    
C19   O23   S    
O14   V2    S    
C87   H82   S    
C58   H9    S    
C100  H106  S    
C16   C20   A    
O5    V1    S    
C88   H78   S    
C3    C42   S    
C44   C48   T    
C10   C56   S    
C68   C69   S    
C59   H20   S    
O11   C7    A    
C82   H65   S    
C74   H50   S    
C53   H6    S    
O12   C8    A    
C90   H89   S    
C22   C34   A    
C12   C62   S    
C99   H110  S    
C80   H69   S    
O10   V2    S    
C89   H90   S    
C24   C36   A    
C73   H48   S    
C94   H93   S    
C31   C40   A    
C9    C29   A    
C91   H87   S    
C57   H12   S    
O7    V3    S    
C90   C91   S    
C11   C31   A    
C86   C87   S    
O8    V4    S    
C12   C16   A    
C79   H59   S    
C71   H43   S    
C75   C76   S    
C29   C38   A    
C64   H24   S    
C55   H2    S    
O18   V4    S    
C15   C19   A    
C27   C31   A    
C82   H64   S    
O11   V3    S    
C20   O24   S    
C27   C28   A    
C98   H112  S    
C65   C66   S    
C63   H25   S    
C83   C84   S    
C11   C15   A    
C51   C52   T    
C85   H71   S    
O5    C1    A    
C95   C96   S    
C12   C32   A    
C40   C98   S    
C73   H49   S    
C83   H77   S    
C92   C93   S    
C94   H92   S    
O8    C4    A    
C88   H80   S    
C96   H103  S    
C8    C13   S    
C66   H31   S    
C32   C39   A    
O9    C5    A    
C48   C52   S    
C84   H75   S    
C87   H81   S    
C86   H84   S    
C58   H10   S    
C45   C49   S    
C100  H107  S    
C62   H27   S    
C75   H52   S    
C67   H35   S    
C78   H61   S    
C77   H63   S    
C69   H39   S    
C61   H16   S    
C53   H7    S    
C25   C26   A    
C76   H56   S    
C90   H88   S    
C99   H109  S    
C80   H70   S    
C85   H73   S    
O12   V4    S    
C72   C73   S    
C59   H21   S    
C4    O14   A    
C89   H91   S    
C81   C82   S    
C28   C32   A    
C67   H34   S    
C73   H47   S    
O16   V4    S    
C94   H94   S    
O9    V1    S    
C70   H41   S    
C57   H11   S    
C3    O13   A    
O6    V2    S    
C10   C14   A    
C75   H53   S    
O17   V3    S    
C71   H44   S    
C35   C83   S    
O6    C2    A    
C55   H3    S    
C23   C27   A    
O23   C71   S    
C97   H100  S    
C56   H14   S    
C33   C37   A    
C30   C37   A    
C18   O22   S    
C78   C79   S    
C7    C14   S    
C92   H97   S    
C4    C41   S    
C22   C26   A    
C35   C39   A    
C61   H15   S    
C9    C53   S    
C36   C40   A    
C87   C88   S    
O2    C6    A    
C85   H72   S    
C72   H45   S    
C68   H36   S    
C1    C44   S    
C77   H62   S    
C2    C43   S    
C64   H22   S    
C47   C51   S    
C54   C55   S    
C10   C30   A    
O10   C6    A    
C42   C46   T    
C5    C16   S    
C93   H96   S    
C96   H102  S    
C69   C70   S    
C41   C45   T    
C6    C15   S    
O20   V2    S    
C99   C100  S    
C21   C25   A    
C34   C80   S    
C43   C47   T    
C84   H74   S    
C74   H51   S    
C13   C17   A    
C96   C97   S    
C100  H108  S    
C9    C13   A    
C62   H28   S    
C66   H32   S    
C23   C35   A    
C78   H60   S    
C54   H5    S    
C24   C28   A    
C61   H17   S    
C33   C77   S    
C57   C58   S    
C56   C57   S    
C76   H55   S    
C60   C61   S    
C95   H104  S    
C98   C99   S    
C17   C21   A    
O24   C74   S    
C17   O21   S    
C58   H8    S    
O21   C65   S    
C19   C23   A    
C36   C86   S    
C20   C24   A    
C93   C94   S    
C67   H33   S    
C68   H37   S    
