data_mof_unit_23433.cif
_audit_creation_date              2012-12-11T15:28:47-0500
_audit_creation_method            fapswitch 2.2
_symmetry_space_group_name_H-M    P1
_symmetry_Int_Tables_number       1
_space_group_crystal_system       triclinic
_cell_length_a                    6.954907
_cell_length_b                    19.572556
_cell_length_c                    23.371938
_cell_angle_alpha                 96.043275
_cell_angle_beta                  90.885721
_cell_angle_gamma                 88.892974
_cell_volume                      3162.95262905

loop_
_atom_site_label
_atom_site_type_symbol
_atom_type_description
_atom_site_fract_x
_atom_site_fract_y
_atom_site_fract_z
_atom_type_partial_charge
O1    O     O_R   0.617180 0.809390 0.808140 -0.522974
O2    O     O_R   0.382820 0.190610 0.191860 -0.522973
O3    O     O_R   0.293300 0.672410 0.795490 -0.535187
O4    O     O_R   0.706700 0.327590 0.204510 -0.535189
O5    O     O_R   0.117220 0.690610 0.691850 -0.521427
O6    O     O_R   0.882780 0.309390 0.308150 -0.521426
C1    C     C_R   0.464319 0.648049 0.805825 0.728220
C2    C     C_R   0.535681 0.351951 0.194174 0.728221
O7    O     O_R   0.287840 0.807750 0.814460 -0.524591
O8    O     O_R   0.712160 0.192250 0.185540 -0.524590
O9    O     O_R   0.111720 0.826910 0.710960 -0.534540
O10   O     O_R   0.888280 0.173090 0.289040 -0.534540
C3    C     C_R   0.456413 0.830790 0.833167 0.718451
C4    C     C_R   0.543586 0.169210 0.166833 0.718451
O11   O     O_R   0.622680 0.673080 0.789040 -0.531122
O12   O     O_R   0.377320 0.326920 0.210960 -0.531121
O13   O     O_3   0.448820 0.756130 0.716020 -0.361108
O14   O     O_3   0.551180 0.243870 0.283980 -0.361108
V1    V     V_3+5 0.176220 0.748860 0.756300 1.410153
V2    V     V_3+5 0.823780 0.251140 0.243700 1.410152
O15   O     O_R   0.781670 0.827580 0.704500 -0.536389
O16   O     O_R   0.218330 0.172420 0.295500 -0.536389
C5    C     C_R   0.948780 0.851803 0.694167 0.727193
C6    C     C_R   0.051220 0.148197 0.305833 0.727194
O17   O     O_R   0.787130 0.692240 0.685530 -0.525181
O18   O     O_R   0.212870 0.307760 0.314470 -0.525182
C7    C     C_R   0.956200 0.669233 0.666806 0.721024
C8    C     C_R   0.043800 0.330767 0.333194 0.721023
V3    V     V_3+5 0.675510 0.751130 0.743690 1.408552
V4    V     V_3+5 0.324490 0.248870 0.256310 1.408550
O19   O     O_3   0.952780 0.743870 0.783980 -0.358776
O20   O     O_3   0.047220 0.256130 0.216020 -0.358776
C9    C     C_1   0.966892 0.617170 0.614767 -0.217073
C10   C     C_1   0.033108 0.382830 0.385233 -0.217073
C11   C     C_1   0.978413 0.573650 0.571945 0.000734
C12   C     C_1   0.021587 0.426350 0.428055 0.000735
C13   C     C_1   0.993493 0.521857 0.521327 -0.000306
C14   C     C_1   0.006507 0.478143 0.478673 -0.000306
C15   C     C_R   0.952256 0.914493 0.663751 -0.058798
C16   C     C_R   0.047743 0.085508 0.336250 -0.058798
C17   C     C_R   0.919746 0.038253 0.666132 -0.175509
C18   C     C_R   0.080250 0.961747 0.333869 -0.175508
C19   C     C_R   0.901306 0.978684 0.693434 0.113011
C20   C     C_R   0.098693 0.021316 0.306566 0.113011
C21   C     C_R   0.011559 0.911023 0.605544 0.062840
C22   C     C_R   0.988439 0.088978 0.394456 0.062841
C23   C     C_R   0.989602 0.970584 0.574807 0.050429
C24   C     C_R   0.010393 0.029416 0.425194 0.050430
C25   C     C_R   0.968218 0.035448 0.607733 0.056805
C26   C     C_R   0.031776 0.964553 0.392268 0.056805
C27   C     C_R   0.990909 0.968986 0.513152 0.021517
C28   C     C_R   0.009085 0.031015 0.486848 0.021517
C29   C     C_R   0.037734 0.092062 0.523026 -0.185288
C30   C     C_R   0.962259 0.907939 0.476974 -0.185288
C31   C     C_R   0.002351 0.096210 0.581974 0.158357
C32   C     C_R   0.997640 0.903791 0.418026 0.158354
H1    H     H_    0.893084 0.087107 0.691253 0.144459
H2    H     H_    0.106911 0.912893 0.308748 0.144458
H3    H     H_    0.085007 0.137683 0.505540 0.149661
H4    H     H_    0.914985 0.862318 0.494460 0.149661
C33   C     C_R   0.481040 0.584125 0.834512 -0.111944
C34   C     C_R   0.518960 0.415874 0.165486 -0.111953
C35   C     C_R   0.534023 0.460385 0.830974 0.408783
C36   C     C_R   0.465930 0.539612 0.169019 0.408794
C37   C     C_R   0.516303 0.520076 0.802315 0.060601
C38   C     C_R   0.483649 0.479922 0.197680 0.060597
C39   C     C_R   0.471155 0.587692 0.894830 -0.269301
C40   C     C_R   0.528878 0.412307 0.105169 -0.269303
C41   C     C_R   0.503047 0.528885 0.924810 0.041274
C42   C     C_R   0.496979 0.471112 0.075187 0.041275
C43   C     C_R   0.513835 0.464421 0.891438 -0.046006
C44   C     C_R   0.486162 0.535575 0.108557 -0.046017
C45   C     C_R   0.512199 0.531226 0.986664 0.040711
C46   C     C_R   0.487838 0.468770 0.013333 0.040711
C47   C     C_R   0.452457 0.407072 0.976785 0.151002
C48   C     C_R   0.547577 0.592924 0.023213 0.151005
C49   C     C_R   0.487411 0.404613 0.917934 -0.192362
C50   C     C_R   0.512595 0.595383 0.082062 -0.192378
H5    H     H_    0.473390 0.355826 0.891673 0.171325
H6    H     H_    0.526606 0.644170 0.108324 0.171319
H7    H     H_    0.568099 0.363305 0.082525 0.141626
H8    H     H_    0.431959 0.636695 0.917475 0.141624
C51   C     C_1   0.466995 0.882861 0.885211 -0.215586
C52   C     C_1   0.533005 0.117139 0.114789 -0.215586
C53   C     C_1   0.478481 0.926374 0.928039 0.000244
C54   C     C_1   0.521519 0.073626 0.071960 0.000244
C55   C     C_1   0.493515 0.978151 0.978669 -0.002056
C56   C     C_1   0.506485 0.021849 0.021331 -0.002056
C57   C     C_3   0.008961 0.165831 0.616641 -0.799568
H9    H     H_    0.046835 0.207096 0.589836 0.210670
H10   H     H_    0.865884 0.179323 0.635481 0.208941
H11   H     H_    0.118789 0.165072 0.651577 0.213033
C58   C     C_3   0.991027 0.834170 0.383359 -0.799563
H12   H     H_    0.953151 0.792905 0.410165 0.210668
H13   H     H_    0.881199 0.834930 0.348424 0.213035
H14   H     H_    0.134103 0.820677 0.364519 0.208945
C59   C     C_3   0.349821 0.345926 0.995534 -0.802850
H15   H     H_    0.453807 0.303146 0.000547 0.203296
H16   H     H_    0.267146 0.359410 0.035455 0.219843
H17   H     H_    0.241243 0.327247 0.962424 0.210202
C60   C     C_3   0.650233 0.654067 0.004467 -0.802856
H18   H     H_    0.732902 0.640583 0.964545 0.219843
H19   H     H_    0.546261 0.696851 0.999458 0.203298
H20   H     H_    0.758818 0.672738 0.037578 0.210202
C61   C     C_3   0.874480 0.152148 0.418616 -0.796814
H21   H     H_    0.792568 0.143449 0.457396 0.220501
H22   H     H_    0.970934 0.196632 0.427851 0.189538
H23   H     H_    0.761980 0.165301 0.387267 0.224312
C62   C     C_3   0.125517 0.847852 0.581384 -0.796814
H24   H     H_    0.029063 0.803368 0.572148 0.189538
H25   H     H_    0.207428 0.856552 0.542604 0.220501
H26   H     H_    0.238019 0.834700 0.612733 0.224312
C63   C     C_3   0.160139 0.012762 0.244427 -0.781064
H27   H     H_    0.165059 0.061664 0.224636 0.203511
H28   H     H_    0.305922 0.988605 0.241444 0.210168
H29   H     H_    0.058067 0.978778 0.218507 0.205906
C64   C     C_3   0.839861 0.987237 0.755574 -0.781064
H30   H     H_    0.834944 0.938336 0.775365 0.203511
H31   H     H_    0.941932 0.021222 0.781494 0.205905
H32   H     H_    0.694077 0.011394 0.758557 0.210167
C65   C     C_3   0.472234 0.487123 0.262686 -0.711220
H33   H     H_    0.500282 0.438356 0.281750 0.182857
H34   H     H_    0.580622 0.524386 0.281268 0.223844
H35   H     H_    0.326895 0.506216 0.276163 0.201269
C66   C     C_3   0.527657 0.512876 0.737308 -0.711229
H36   H     H_    0.499619 0.561645 0.718247 0.182858
H37   H     H_    0.672973 0.493771 0.723818 0.201257
H38   H     H_    0.419232 0.475621 0.718736 0.223848
O21   O     O_3   0.557046 0.397236 0.798785 -0.556771
C67   C     C_3   0.753738 0.377819 0.799839 0.089374
H39   H     H_    0.801822 0.368810 0.844127 0.120731
H40   H     H_    0.845456 0.417804 0.784078 0.122284
C68   C     C_3   0.783444 0.311372 0.760755 -0.700252
H41   H     H_    0.739308 0.318974 0.715954 0.225385
H42   H     H_    0.937608 0.295528 0.761255 0.182590
H43   H     H_    0.696402 0.269986 0.775892 0.218851
O22   O     O_3   0.442823 0.602759 0.201204 -0.556770
C69   C     C_3   0.246116 0.622154 0.200127 0.089361
H44   H     H_    0.154397 0.582136 0.215839 0.122266
H45   H     H_    0.198118 0.631202 0.155840 0.120747
C70   C     C_3   0.216277 0.688559 0.239252 -0.700232
H46   H     H_    0.303306 0.729979 0.224164 0.218854
H47   H     H_    0.062101 0.704384 0.238736 0.182597
H48   H     H_    0.260335 0.680913 0.284050 0.225385

loop_
_geom_bond_atom_site_label_1
_geom_bond_atom_site_label_2
_ccdc_geom_bond_type
C55   C56   T    
C35   C37   A    
C60   H18   S    
O13   V3    S    
C45   C46   A    
C31   C57   S    
C29   C31   A    
C18   C26   A    
C4    C52   S    
O4    C2    A    
C36   C44   A    
V1    O19   S    
C18   H2    S    
C50   H6    S    
C59   H15   S    
C29   H3    S    
C23   C25   A    
C30   H4    S    
C7    C9    S    
C16   C22   A    
C61   H22   S    
O9    V1    S    
C58   H12   S    
C61   H21   S    
C40   H7    S    
C11   C13   S    
C48   C50   A    
O21   C67   S    
O3    C1    A    
C64   H31   S    
C9    C11   T    
C21   C62   S    
O12   V4    S    
C22   C61   S    
C47   C59   S    
C21   C23   A    
C41   C43   A    
O7    C3    A    
C58   H13   S    
C1    C33   S    
C65   H35   S    
C44   C50   A    
C6    C16   S    
O5    C7    A    
C70   H46   S    
O7    V1    S    
O6    C8    A    
O8    V2    S    
C42   C46   A    
C66   H38   S    
O3    V1    S    
O14   V4    S    
C57   H10   S    
C10   C12   T    
C15   C21   A    
C63   H29   S    
C24   C26   A    
C8    C10   S    
C2    O12   A    
C17   C19   A    
C18   C20   A    
C17   C25   A    
C59   H16   S    
O11   V3    S    
C22   C24   A    
C36   O22   S    
C49   H5    S    
O17   V3    S    
C32   C58   S    
C61   H23   S    
C30   C32   A    
C46   C47   A    
C34   C38   A    
C54   C56   S    
C27   C28   A    
O8    C4    A    
C64   H32   S    
C15   C19   A    
C1    O11   A    
C25   C31   A    
O15   V3    S    
C26   C32   A    
C39   C41   A    
C70   H47   S    
C37   C66   S    
C67   H40   S    
C13   C14   T    
C68   H43   S    
C33   C39   A    
C24   C28   A    
O10   V2    S    
O1    V3    S    
C38   C65   S    
C57   H11   S    
C41   C45   A    
C47   C49   A    
C65   H33   S    
C69   H45   S    
C19   C64   S    
O5    V1    S    
C51   C53   T    
C35   C43   A    
C20   C63   S    
O18   V4    S    
C58   H14   S    
O15   C5    A    
C68   H41   S    
C45   C48   A    
O16   C6    A    
C62   H26   S    
C67   C68   S    
O1    C3    A    
C12   C14   S    
C43   C49   A    
C59   H17   S    
C28   C29   A    
C66   H37   S    
C63   H27   S    
V2    O20   S    
C48   C60   S    
O10   C6    A    
O16   V4    S    
C52   C54   T    
C69   C70   S    
C23   C27   A    
C70   H48   S    
O17   C7    A    
O6    V2    S    
O22   C69   S    
C3    C51   S    
O18   C8    A    
C60   H19   S    
C34   C40   A    
O2    V4    S    
C27   C30   A    
C62   H25   S    
C67   H39   S    
C17   H1    S    
V3    O19   S    
C64   H30   S    
V4    O20   S    
C66   H36   S    
C5    C15   S    
O9    C5    A    
O13   V1    S    
O14   V2    S    
C35   O21   S    
O2    C4    A    
C65   H34   S    
C69   H44   S    
O4    V2    S    
C33   C37   A    
C53   C55   S    
C16   C20   A    
C39   H8    S    
C40   C42   A    
C2    C34   S    
C68   H42   S    
C42   C44   A    
C60   H20   S    
C57   H9    S    
C62   H24   S    
C36   C38   A    
C63   H28   S    
