data_mof_unit_64285.cif
_audit_creation_date              2012-12-10T21:41:21-0500
_audit_creation_method            fapswitch 2.2
_symmetry_space_group_name_H-M    P1
_symmetry_Int_Tables_number       1
_space_group_crystal_system       triclinic
_cell_length_a                    23.979678
_cell_length_b                    23.864702
_cell_length_c                    16.089815
_cell_angle_alpha                 90.000148
_cell_angle_beta                  93.493546
_cell_angle_gamma                 90.000022
_cell_volume                      9190.57322447

loop_
_atom_site_label
_atom_site_type_symbol
_atom_type_description
_atom_site_fract_x
_atom_site_fract_y
_atom_site_fract_z
_atom_type_partial_charge
C1    C     C_R   0.575233 0.077434 0.511074 0.917778
C2    C     C_R   0.424767 0.922566 0.488926 0.917781
C3    C     C_R   0.424767 0.077434 0.488926 0.917776
C4    C     C_R   0.575233 0.922566 0.511074 0.917787
C5    C     C_R   0.075233 0.577434 0.511074 0.917777
C6    C     C_R   0.924767 0.422566 0.488926 0.917779
C7    C     C_R   0.924768 0.577435 0.488926 0.917769
C8    C     C_R   0.075233 0.422566 0.511074 0.917779
C9    C     C_R   0.516261 1.000000 0.110399 0.327753
C10   C     C_R   0.483739 0.000000 0.889601 0.327753
C11   C     C_R   0.016261 0.500000 0.110399 0.327753
C12   C     C_R   0.983739 0.500000 0.889601 0.327753
C13   C     C_R   0.564661 1.000000 0.163972 -0.281340
C14   C     C_R   0.435339 0.000000 0.836028 -0.281341
C15   C     C_R   0.064661 0.500000 0.163972 -0.281341
C16   C     C_R   0.935339 0.500000 0.836028 -0.281341
C17   C     C_R   0.560574 1.000000 0.250580 0.095672
C18   C     C_R   0.439426 0.000000 0.749420 0.095674
C19   C     C_R   0.060574 0.500000 0.250580 0.095673
C20   C     C_R   0.939426 0.500000 0.749420 0.095677
C21   C     C_R   0.615197 0.877109 0.518249 -0.166983
C22   C     C_R   0.384813 0.122899 0.481752 -0.166985
C23   C     C_R   0.384810 0.877103 0.481751 -0.166983
C24   C     C_R   0.615190 0.122897 0.518249 -0.166982
C25   C     C_R   0.115189 0.377103 0.518248 -0.166985
C26   C     C_R   0.884820 0.622905 0.481752 -0.166988
C27   C     C_R   0.884812 0.377102 0.481751 -0.166984
C28   C     C_R   0.115188 0.622898 0.518249 -0.166983
C29   C     C_R   0.622061 0.841767 0.449949 0.603556
C30   C     C_R   0.377954 0.158243 0.550052 0.603558
C31   C     C_R   0.377952 0.841758 0.550049 0.603558
C32   C     C_R   0.622048 0.158242 0.449950 0.603557
C33   C     C_R   0.122049 0.341759 0.449948 0.603556
C34   C     C_R   0.877966 0.658250 0.550053 0.603558
C35   C     C_R   0.877955 0.341756 0.550050 0.603557
C36   C     C_R   0.122044 0.658244 0.449951 0.603556
C37   C     C_R   0.662380 0.800426 0.455542 -0.240007
C38   C     C_R   0.337647 0.199595 0.544457 -0.240004
C39   C     C_R   0.337643 0.800408 0.544455 -0.240006
C40   C     C_R   0.662357 0.199592 0.455545 -0.240005
C41   C     C_R   0.162359 0.300409 0.455543 -0.240005
C42   C     C_R   0.837667 0.699611 0.544456 -0.240002
C43   C     C_R   0.837648 0.300404 0.544454 -0.240004
C44   C     C_R   0.162352 0.699596 0.455546 -0.240005
C45   C     C_R   0.696693 0.794352 0.529115 0.241027
C46   C     C_R   0.303338 0.205677 0.470881 0.241023
C47   C     C_R   0.303331 0.794330 0.470881 0.241025
C48   C     C_R   0.696669 0.205670 0.529119 0.241025
C49   C     C_R   0.196669 0.294329 0.529118 0.241025
C50   C     C_R   0.803363 0.705701 0.470878 0.241022
C51   C     C_R   0.803337 0.294324 0.470881 0.241024
C52   C     C_R   0.196663 0.705676 0.529119 0.241024
C53   C     C_R   0.687513 0.827255 0.598575 -0.176560
C54   C     C_R   0.312513 0.172773 0.401421 -0.176558
C55   C     C_R   0.312505 0.827236 0.401422 -0.176557
C56   C     C_R   0.687495 0.172765 0.598578 -0.176558
C57   C     C_R   0.187492 0.327233 0.598578 -0.176558
C58   C     C_R   0.812534 0.672796 0.401417 -0.176556
C59   C     C_R   0.812510 0.327230 0.401421 -0.176557
C60   C     C_R   0.187490 0.672769 0.598578 -0.176557
C61   C     C_R   0.646916 0.868733 0.593304 -0.289338
C62   C     C_R   0.353099 0.131284 0.406693 -0.289330
C63   C     C_R   0.353093 0.868722 0.406695 -0.289336
C64   C     C_R   0.646906 0.131279 0.593305 -0.289334
C65   C     C_R   0.146904 0.368719 0.593306 -0.289331
C66   C     C_R   0.853111 0.631299 0.406692 -0.289321
C67   C     C_R   0.853096 0.368718 0.406694 -0.289332
C68   C     C_R   0.146904 0.631281 0.593305 -0.289332
C69   C     C_R   0.461848 0.000000 0.233502 -0.000758
C70   C     C_R   0.538152 1.000000 0.766498 -0.000755
C71   C     C_R   0.961848 0.500000 0.233502 -0.000758
C72   C     C_R   0.038152 0.500000 0.766498 -0.000755
C73   C     C_R   0.464010 0.000000 0.146494 -0.258553
C74   C     C_R   0.535990 1.000000 0.853506 -0.258551
C75   C     C_R   0.964010 0.500000 0.146494 -0.258553
C76   C     C_R   0.035990 0.500000 0.853506 -0.258553
H1    H     H_    0.332684 0.226178 0.598066 0.181568
H2    H     H_    0.667347 0.773843 0.401932 0.181567
H3    H     H_    0.667320 0.226175 0.401936 0.181568
H4    H     H_    0.332680 0.773824 0.598063 0.181568
H5    H     H_    0.832706 0.726193 0.598067 0.181568
H6    H     H_    0.167323 0.273827 0.401933 0.181567
H7    H     H_    0.167313 0.726180 0.401938 0.181567
H8    H     H_    0.832686 0.273821 0.598063 0.181567
H9    H     H_    0.713247 0.822033 0.655747 0.163231
H10   H     H_    0.286782 0.178001 0.344247 0.163231
H11   H     H_    0.286772 0.822010 0.344250 0.163231
H12   H     H_    0.713228 0.177990 0.655750 0.163231
H13   H     H_    0.213224 0.322006 0.655752 0.163231
H14   H     H_    0.786806 0.678030 0.344241 0.163231
H15   H     H_    0.786778 0.322003 0.344249 0.163231
H16   H     H_    0.213223 0.677996 0.655751 0.163231
H17   H     H_    0.641496 0.895251 0.646871 0.185298
H18   H     H_    0.358515 0.104765 0.353127 0.185299
H19   H     H_    0.358508 0.895242 0.353129 0.185297
H20   H     H_    0.641491 0.104758 0.646871 0.185297
H21   H     H_    0.141488 0.395238 0.646873 0.185299
H22   H     H_    0.858524 0.604780 0.353124 0.185301
H23   H     H_    0.858511 0.395239 0.353129 0.185298
H24   H     H_    0.141490 0.604760 0.646871 0.185297
H25   H     H_    0.578193 1.000000 0.738929 0.123834
H26   H     H_    0.421807 0.000000 0.261070 0.123835
H27   H     H_    0.078193 0.500000 0.738929 0.123835
H28   H     H_    0.921807 0.500000 0.261070 0.123836
H29   H     H_    0.574764 1.000000 0.891638 0.158767
H30   H     H_    0.425236 0.000000 0.108362 0.158767
H31   H     H_    0.074763 0.500000 0.891638 0.158767
H32   H     H_    0.925236 0.500000 0.108362 0.158767
H33   H     H_    0.605483 0.999999 0.138667 0.153711
H34   H     H_    0.394517 0.000000 0.861333 0.153711
H35   H     H_    0.105483 0.499999 0.138667 0.153711
H36   H     H_    0.894517 0.500000 0.861333 0.153711
H37   H     H_    0.598120 0.999999 0.291420 0.140203
H38   H     H_    0.401880 0.000000 0.708580 0.140202
H39   H     H_    0.098120 0.500000 0.291420 0.140202
H40   H     H_    0.901880 0.500000 0.708580 0.140202
N1    N     N_2   0.741690 0.756551 0.534583 -0.172634
N2    N     N_2   0.258345 0.243484 0.465413 -0.172634
N3    N     N_2   0.258337 0.756525 0.465414 -0.172634
N4    N     N_2   0.741663 0.243475 0.534586 -0.172634
N5    N     N_2   0.241662 0.256524 0.534586 -0.172634
N6    N     N_2   0.758373 0.743511 0.465410 -0.172635
N7    N     N_2   0.758344 0.256518 0.465413 -0.172634
N8    N     N_2   0.241656 0.743482 0.534587 -0.172634
N9    N     N_R   0.509690 0.000000 0.283730 -0.089227
N10   N     N_R   0.490310 0.000000 0.716270 -0.089226
N11   N     N_R   0.009690 0.500000 0.283730 -0.089226
N12   N     N_R   0.990310 0.500000 0.716270 -0.089225
N13   N     N_2   0.522372 1.000000 0.022180 -0.175917
N14   N     N_2   0.477628 0.000000 0.977820 -0.175917
N15   N     N_2   0.022372 0.500000 0.022180 -0.175917
N16   N     N_2   0.977628 0.500000 0.977820 -0.175917
O1    O     O_R   0.554580 0.058040 0.577230 -0.630229
O2    O     O_R   0.445420 0.941960 0.422770 -0.630230
O3    O     O_R   0.445420 0.058040 0.422770 -0.630228
O4    O     O_R   0.554580 0.941960 0.577230 -0.630228
O5    O     O_R   0.054580 0.558040 0.577230 -0.630227
O6    O     O_R   0.945420 0.441960 0.422770 -0.630228
O7    O     O_R   0.945420 0.558040 0.422770 -0.630229
O8    O     O_R   0.054580 0.441960 0.577230 -0.630229
O9    O     O_R   0.560810 0.058060 0.438340 -0.571706
O10   O     O_R   0.439190 0.941940 0.561660 -0.571706
O11   O     O_R   0.439190 0.058060 0.561660 -0.571704
O12   O     O_R   0.560810 0.941940 0.438340 -0.571708
O13   O     O_R   0.060810 0.558060 0.438340 -0.571707
O14   O     O_R   0.939190 0.441940 0.561660 -0.571705
O15   O     O_R   0.939190 0.558060 0.561660 -0.571700
O16   O     O_R   0.060810 0.441940 0.438340 -0.571705
Zn1   Zn    Zn3+2 0.495820 1.000000 0.592740 1.012756
Zn2   Zn    Zn3+2 0.504180 0.000000 0.407260 1.012754
Zn3   Zn    Zn3+2 0.995820 0.500000 0.592740 1.012759
Zn4   Zn    Zn3+2 0.004180 0.500000 0.407260 1.012756
F1    F     F_    0.410137 0.153053 0.622089 -0.648463
F2    F     F_    0.589874 0.846948 0.377915 -0.648463
F3    F     F_    0.589862 0.153055 0.377916 -0.648463
F4    F     F_    0.410139 0.846944 0.622084 -0.648463
F5    F     F_    0.910145 0.653053 0.622093 -0.648463
F6    F     F_    0.089865 0.346947 0.377912 -0.648463
F7    F     F_    0.089859 0.653056 0.377916 -0.648464
F8    F     F_    0.910140 0.346944 0.622085 -0.648463

loop_
_geom_bond_atom_site_label_1
_geom_bond_atom_site_label_2
_ccdc_geom_bond_type
C12   N16   S    
C71   C75   A    
C71   H28   S    
C8    C25   S    
C51   N7    S    
C14   C18   A    
C34   C42   A    
C48   C56   A    
C72   C76   A    
C44   H7    S    
C43   C51   A    
C18   H38   S    
C24   C32   A    
O4    Zn1   S    
C70   H25   S    
C17   H37   S    
C48   N4    S    
N3    N8    D    
C15   C19   A    
C30   C38   A    
C2    O2    A    
C7    C26   S    
C57   H13   S    
C72   N12   A    
O10   Zn1   S    
C39   C47   A    
C1    O9    A    
C28   C68   A    
C20   N12   A    
C6    O14   A    
N10   Zn1   S    
C61   H17   S    
C56   H12   S    
C20   H40   S    
O2    Zn2   S    
C63   H19   S    
O7    Zn4   S    
C49   C57   A    
C46   N2    S    
C40   C48   A    
C19   N11   A    
C9    C13   A    
C35   F8    S    
C13   H33   S    
C52   C60   A    
C36   F7    S    
C59   C67   A    
O6    Zn4   S    
C11   C15   A    
C58   C66   A    
C30   F1    S    
C12   C16   A    
C55   C63   A    
C70   C74   A    
O12   Zn2   S    
C56   C64   A    
C69   C73   A    
C35   C43   A    
C21   C61   A    
N4    N7    D    
C67   H23   S    
C4    O4    A    
C70   N10   A    
C23   C63   A    
C45   C53   A    
C75   H32   S    
C24   C64   A    
C43   H8    S    
C71   N11   A    
C8    O16   A    
C42   H5    S    
C53   C61   A    
C1    O1    A    
C41   C49   A    
C26   C34   A    
O9    Zn2   S    
C31   F4    S    
C7    O15   A    
C60   H16   S    
C5    O13   A    
C26   C66   A    
C15   H35   S    
C3    O11   A    
C64   H20   S    
C10   C14   A    
C54   H10   S    
C54   C62   A    
C27   C35   A    
C69   H26   S    
C21   C29   A    
N2    N5    D    
C23   C31   A    
C6    O6    A    
O15   Zn3   S    
N1    N6    D    
C10   N14   S    
N11   Zn4   S    
C22   C62   A    
C5    C28   S    
N12   Zn3   S    
C6    C27   S    
C19   H39   S    
C16   C20   A    
C49   N5    S    
C46   C54   A    
C40   H3    S    
O1    Zn1   S    
C59   H15   S    
C58   H14   S    
O8    Zn3   S    
C60   C68   A    
C42   C50   A    
C50   C58   A    
C72   H27   S    
C76   H31   S    
C62   H18   S    
C2    O10   A    
C36   C44   A    
C51   C59   A    
C37   C45   A    
N15   N16   D    
C33   F6    S    
C16   H36   S    
C47   C55   A    
N13   N14   D    
C45   N1    S    
C14   H34   S    
C22   C30   A    
C68   H24   S    
C9    C73   A    
O16   Zn4   S    
C57   C65   A    
C11   N15   S    
C44   C52   A    
C4    O12   A    
C5    O5    A    
C38   H1    S    
C9    N13   S    
O3    Zn2   S    
C37   H2    S    
C13   C17   A    
C8    O8    A    
C33   C41   A    
C39   H4    S    
C66   H22   S    
C12   C76   A    
C32   F3    S    
C65   H21   S    
C11   C75   A    
C18   N10   A    
C74   H29   S    
C7    O7    A    
C4    C21   S    
C10   C74   A    
C17   N9    A    
C73   H30   S    
C41   H6    S    
C52   N8    S    
C47   N3    S    
C31   C39   A    
C3    O3    A    
C32   C40   A    
C55   H11   S    
C38   C46   A    
O13   Zn4   S    
C27   C67   A    
N9    Zn2   S    
C69   N9    A    
O14   Zn3   S    
C34   F5    S    
O11   Zn1   S    
C50   N6    S    
C28   C36   A    
C1    C24   S    
C29   C37   A    
C2    C23   S    
C25   C65   A    
O5    Zn3   S    
C3    C22   S    
C53   H9    S    
C25   C33   A    
C29   F2    S    
