data_mof_unit_55229.cif
_audit_creation_date              2012-12-10T18:32:00-0500
_audit_creation_method            fapswitch 2.2
_symmetry_space_group_name_H-M    P1
_symmetry_Int_Tables_number       1
_space_group_crystal_system       triclinic
_cell_length_a                    10.635557
_cell_length_b                    14.978339
_cell_length_c                    15.482807
_cell_angle_alpha                 82.453569
_cell_angle_beta                  89.461132
_cell_angle_gamma                 104.252077
_cell_volume                      2367.60266656

loop_
_atom_site_label
_atom_site_type_symbol
_atom_type_description
_atom_site_fract_x
_atom_site_fract_y
_atom_site_fract_z
_atom_type_partial_charge
C1    C     C_R   0.478896 0.441915 0.662182 0.861833
C2    C     C_R   0.411795 0.448678 0.897845 0.092483
C3    C     C_R   0.362655 0.353042 0.929394 0.174897
C4    C     C_R   0.742123 0.500636 0.500130 0.828276
C5    C     C_R   0.420080 0.516500 0.954460 0.069854
C6    C     C_R   0.403027 0.486762 0.045031 0.069214
C7    C     C_R   0.348980 0.391236 0.075028 -0.230084
C8    C     C_R   0.326872 0.325697 0.017486 -0.235991
C9    C     C_R   0.446158 0.612880 0.923692 -0.241168
C10   C     C_R   0.471106 0.678419 0.981102 -0.238984
C11   C     C_R   0.475798 0.649853 0.070022 0.178080
C12   C     C_3   0.121242 0.500187 0.500099 0.178047
C13   C     C_R   0.443216 0.553618 0.102316 0.092727
C14   C     C_R   0.516035 0.716032 0.126942 -0.206500
C15   C     C_R   0.530118 0.687274 0.214912 -0.205324
C16   C     C_R   0.515173 0.558019 0.337929 0.864093
C17   C     C_R   0.462072 0.526659 0.189810 -0.270859
C18   C     C_R   0.681011 0.838324 0.646430 0.119195
C19   C     C_R   0.653321 0.750400 0.619196 -0.039060
C20   C     C_R   0.518674 0.794900 0.509046 -0.088282
C21   C     C_R   0.541974 0.885393 0.531609 -0.031482
C22   C     C_R   0.624467 0.906476 0.601950 0.093784
C23   C     C_3   0.068071 0.485134 0.409010 -0.408505
C24   C     C_R   0.485023 0.954477 0.487546 0.105744
C25   C     C_R   0.511230 0.044372 0.514607 0.097379
C26   C     C_R   0.591363 0.061776 0.585839 -0.242486
C27   C     C_R   0.646543 0.994545 0.628166 -0.209207
C28   C     C_R   0.257865 0.499701 0.500001 0.825159
C29   C     C_R   0.402548 0.936510 0.417445 -0.258251
C30   C     C_R   0.346718 0.003632 0.375549 -0.202453
C31   C     C_R   0.371492 0.092207 0.400615 0.156156
C32   C     C_R   0.455527 0.113792 0.469977 -0.040639
C33   C     C_R   0.314710 0.160179 0.356663 0.005764
C34   C     C_3   0.103883 0.595268 0.521944 -0.379638
C35   C     C_R   0.344366 0.248679 0.381991 -0.034515
C36   C     C_R   0.481409 0.205095 0.490986 -0.080752
C37   C     C_3   0.899619 0.422433 0.569947 -0.403394
C38   C     C_3   0.043766 0.421647 0.569658 -0.398721
C39   C     C_3   0.923967 0.486034 0.409071 -0.391719
C40   C     C_3   0.961284 0.595889 0.522112 -0.397834
C41   C     C_3   0.878935 0.501424 0.500355 0.179421
C42   C     C_3   0.786404 0.785068 0.779595 -0.811543
C43   C     C_R   0.446743 0.407739 0.754494 -0.064702
C44   C     C_R   0.505300 0.592174 0.246075 -0.063630
C45   C     C_R   0.352104 0.286158 0.872443 -0.205664
C46   C     C_R   0.392557 0.313552 0.784867 -0.203561
C47   C     C_R   0.459163 0.473583 0.811669 -0.264591
H1    H     H_    0.840805 0.353672 0.556232 0.177545
H2    H     H_    0.380956 0.261523 0.741176 0.158056
H3    H     H_    0.509046 0.544642 0.788319 0.157675
H4    H     H_    0.867550 0.432770 0.635767 0.155692
H5    H     H_    0.320066 0.365662 0.142570 0.140174
H6    H     H_    0.445165 0.639308 0.855445 0.150846
H7    H     H_    0.538928 0.789777 0.103097 0.136912
H8    H     H_    0.706039 0.012425 0.682733 0.154820
H9    H     H_    0.546151 0.229346 0.540525 0.132575
H10   H     H_    0.303135 0.302706 0.349560 0.125159
H11   H     H_    0.284285 0.985439 0.322368 0.164451
H12   H     H_    0.159056 0.653257 0.472944 0.173475
H13   H     H_    0.694288 0.695782 0.650298 0.148496
H14   H     H_    0.456350 0.771217 0.458149 0.134901
H15   H     H_    0.082021 0.431549 0.635353 0.160561
H16   H     H_    0.612981 0.126727 0.611895 0.134312
H17   H     H_    0.378257 0.870925 0.392582 0.135799
H18   H     H_    0.053977 0.352723 0.555524 0.180509
H19   H     H_    0.865746 0.418799 0.391514 0.184096
H20   H     H_    0.078785 0.417452 0.391737 0.176330
H21   H     H_    0.947881 0.653935 0.473129 0.179400
H22   H     H_    0.930616 0.608738 0.587417 0.173514
H23   H     H_    0.909490 0.542350 0.358566 0.157391
H24   H     H_    0.141838 0.608088 0.587214 0.181380
H25   H     H_    0.846180 0.913802 0.699856 0.223017
H26   H     H_    0.834579 0.814560 0.836471 0.247151
H27   H     H_    0.850584 0.747713 0.750285 0.229924
H28   H     H_    0.692377 0.736000 0.803254 0.247970
H29   H     H_    0.206505 0.200036 0.256402 0.170940
H30   H     H_    0.141742 0.095751 0.314346 0.181790
H31   H     H_    0.123906 0.540978 0.358445 0.158822
H32   H     H_    0.286286 0.253079 0.042583 0.149971
H33   H     H_    0.448468 0.454112 0.214521 0.161809
H34   H     H_    0.561598 0.739094 0.258047 0.157185
H35   H     H_    0.492555 0.751685 0.955383 0.152512
H36   H     H_    0.312663 0.212956 0.895628 0.136478
N1    N     N_R   0.573860 0.731700 0.552730 -0.118258
N2    N     N_R   0.426060 0.268290 0.447230 -0.107880
N3    N     N_2   0.765079 0.859741 0.716577 -0.313217
N4    N     N_3   0.228930 0.139572 0.286694 -0.476407
O1    O     O_R   0.462770 0.383110 0.605620 -0.617201
O2    O     O_R   0.510160 0.531900 0.639510 -0.621411
O3    O     O_R   0.661510 0.425600 0.483070 -0.622595
O4    O     O_R   0.708900 0.574390 0.516960 -0.626402
O5    O     O_R   0.489840 0.468100 0.360490 -0.619300
O6    O     O_R   0.537230 0.616890 0.394380 -0.616764
O7    O     O_R   0.291100 0.425610 0.483040 -0.624664
O8    O     O_R   0.338490 0.574400 0.516930 -0.625674
Zn1   Zn    Zn3+2 0.468350 0.400660 0.477370 0.929667
Zn2   Zn    Zn3+2 0.531650 0.599340 0.522630 0.925902

loop_
_geom_bond_atom_site_label_1
_geom_bond_atom_site_label_2
_ccdc_geom_bond_type
O1    Zn1   S    
C35   N2    A    
C7    C8    A    
C39   C41   S    
C45   C46   A    
C46   H2    S    
C16   O6    A    
C18   N3    S    
C12   C28   S    
C28   O8    A    
C34   C40   S    
N1    Zn2   S    
C32   C36   A    
C37   C38   S    
C7    H5    S    
C30   C31   A    
C37   H4    S    
C11   C14   A    
C27   H8    S    
C4    C41   S    
O5    Zn1   S    
C28   O7    A    
C18   C19   A    
C23   H20   S    
C20   H14   S    
C24   C29   A    
C33   C35   A    
C1    C43   S    
C8    H32   S    
C31   C33   A    
C42   N3    S    
C9    C10   A    
C16   C44   S    
C4    O4    A    
C1    O1    A    
C29   H17   S    
C21   C22   A    
C37   C41   S    
C45   H36   S    
C47   H3    S    
C4    O3    A    
C42   H27   S    
C40   H22   S    
C24   C25   A    
C15   H34   S    
C3    C8    A    
C25   C26   A    
C10   H35   S    
C17   H33   S    
O2    Zn2   S    
C26   H16   S    
C5    C9    A    
C29   C30   A    
C36   H9    S    
C31   C32   A    
C12   C23   S    
C38   H18   S    
C36   N2    A    
C42   H28   S    
O4    Zn2   S    
C37   H1    S    
O7    Zn1   S    
H29   N4    S    
C40   C41   S    
C14   H7    S    
C16   O5    A    
C22   C27   A    
C20   N1    A    
C26   C27   A    
C34   H12   S    
C19   H13   S    
C39   H19   S    
C2    C5    A    
C9    H6    S    
C12   C34   S    
C19   N1    A    
O6    Zn2   S    
C42   H26   S    
C1    O2    A    
C18   C22   A    
C15   C44   A    
H25   N3    S    
O8    Zn2   S    
O3    Zn1   S    
C6    C7    A    
C2    C47   A    
C13   C17   A    
C35   H10   S    
C2    C3    A    
C33   N4    S    
C17   C44   A    
C6    C13   A    
C11   C13   A    
C5    C6    A    
C25   C32   A    
C23   C39   S    
C30   H11   S    
N2    Zn1   S    
C39   H23   S    
C3    C45   A    
C23   H31   S    
C12   C38   S    
C43   C46   A    
C10   C11   A    
C20   C21   A    
H30   N4    S    
C40   H21   S    
C21   C24   A    
C14   C15   A    
C43   C47   A    
C34   H24   S    
C38   H15   S    
