data_mof_unit_14798.cif
_audit_creation_date              2013-03-05T16:00:43-0500
_audit_creation_method            fapswitch 2.2
_symmetry_space_group_name_H-M    P1
_symmetry_Int_Tables_number       1
_space_group_crystal_system       triclinic
_cell_length_a                    21.248653
_cell_length_b                    21.253961
_cell_length_c                    13.988241
_cell_angle_alpha                 89.999686
_cell_angle_beta                  90.002515
_cell_angle_gamma                 90.000081
_cell_volume                      6317.34200756

loop_
_atom_site_label
_atom_site_type_symbol
_atom_site_description
_atom_site_fract_x
_atom_site_fract_y
_atom_site_fract_z
_atom_type_partial_charge
O1    O     O_R   0.066090 0.433930 0.580280 -0.639050
O2    O     O_R   0.933910 0.566070 0.419720 -0.583141
O3    O     O_R   0.933910 0.566070 0.580280 -0.639095
O4    O     O_R   0.066090 0.433930 0.419720 -0.583236
O5    O     O_R   0.933910 0.433930 0.419720 -0.589104
O6    O     O_R   0.066090 0.566070 0.580280 -0.639651
O7    O     O_R   0.066090 0.566070 0.419720 -0.589154
O8    O     O_R   0.933910 0.433930 0.580280 -0.639674
O9    O     O_R   0.566090 0.933930 0.580280 -0.589101
O10   O     O_R   0.433910 0.066070 0.419720 -0.639656
O11   O     O_R   0.433910 0.066070 0.580280 -0.589150
O12   O     O_R   0.566090 0.933930 0.419720 -0.639678
O13   O     O_R   0.433910 0.933930 0.419720 -0.639056
O14   O     O_R   0.566090 0.066070 0.580280 -0.583143
O15   O     O_R   0.566090 0.066070 0.419720 -0.639094
O16   O     O_R   0.433910 0.933930 0.580280 -0.583214
C1    C     C_R   0.087477 0.414154 0.499799 0.922774
C2    C     C_R   0.912519 0.585843 0.499797 0.922940
C3    C     C_R   0.912815 0.413556 0.499561 0.917494
C4    C     C_R   0.087186 0.586441 0.499564 0.917395
C5    C     C_R   0.587184 0.913556 0.500440 0.917481
C6    C     C_R   0.412814 0.086442 0.500436 0.917433
C7    C     C_R   0.412523 0.914154 0.500201 0.922817
C8    C     C_R   0.587481 0.085843 0.500202 0.922938
Zn1   Zn    Zn3+2 1.000000 0.500000 0.607200 0.930234
Zn2   Zn    Zn3+2 1.000000 0.500000 0.392800 0.986956
Zn3   Zn    Zn3+2 0.500000 0.000000 0.607200 0.986973
Zn4   Zn    Zn3+2 0.500000 0.000000 0.392800 0.930236
C9    C     C_R   0.143689 0.671138 0.579460 -0.346272
C10   C     C_R   0.856274 0.328901 0.579488 -0.346345
C11   C     C_R   0.860009 0.673813 0.576286 -0.337980
C12   C     C_R   0.139909 0.326103 0.576209 -0.337931
C13   C     C_R   0.639980 0.173824 0.423726 -0.337991
C14   C     C_R   0.360090 0.826104 0.423789 -0.337945
C15   C     C_R   0.356317 0.171145 0.420542 -0.346275
C16   C     C_R   0.643734 0.828909 0.420506 -0.346336
C17   C     C_R   0.135658 0.634035 0.497996 -0.190089
C18   C     C_R   0.864352 0.365953 0.497985 -0.190115
C19   C     C_R   0.863703 0.632584 0.499043 -0.186778
C20   C     C_R   0.136283 0.367404 0.499040 -0.186727
C21   C     C_R   0.636295 0.132585 0.500958 -0.186780
C22   C     C_R   0.363720 0.867401 0.500962 -0.186736
C23   C     C_R   0.364344 0.134037 0.502004 -0.190087
C24   C     C_R   0.635646 0.865952 0.502017 -0.190124
C25   C     C_R   0.173186 0.643249 0.415792 0.447376
C26   C     C_R   0.826881 0.356678 0.415736 0.447525
C27   C     C_R   0.821752 0.636888 0.421325 0.459259
C28   C     C_R   0.178279 0.363150 0.421373 0.459108
C29   C     C_R   0.678253 0.136881 0.578668 0.459274
C30   C     C_R   0.321728 0.863142 0.578634 0.459132
C31   C     C_R   0.326813 0.143249 0.584207 0.447399
C32   C     C_R   0.673108 0.856667 0.584275 0.447515
C33   C     C_R   0.222519 0.686545 0.419691 0.005203
C34   C     C_R   0.777561 0.313369 0.419615 0.005172
C35   C     C_R   0.778363 0.686108 0.419030 0.008489
C36   C     C_R   0.221669 0.313931 0.419069 0.008491
C37   C     C_R   0.721643 0.186101 0.580964 0.008478
C38   C     C_R   0.278339 0.813921 0.580938 0.008487
C39   C     C_R   0.277482 0.186546 0.580308 0.005197
C40   C     C_R   0.722427 0.813358 0.580399 0.005166
C41   C     C_R   0.228718 0.725499 0.500931 0.022251
C42   C     C_R   0.771312 0.274471 0.500902 0.022266
C43   C     C_R   0.774289 0.727280 0.498101 0.016402
C44   C     C_R   0.225679 0.272690 0.498071 0.016361
C45   C     C_R   0.725708 0.227282 0.501903 0.016405
C46   C     C_R   0.274325 0.772685 0.501932 0.016371
C47   C     C_R   0.271287 0.225504 0.499071 0.022243
C48   C     C_R   0.728686 0.774468 0.499103 0.022264
C49   C     C_R   0.188808 0.717960 0.580585 0.131433
C50   C     C_R   0.811163 0.282072 0.580610 0.131434
C51   C     C_R   0.815202 0.720793 0.576867 0.130882
C52   C     C_R   0.184704 0.279109 0.576774 0.130905
C53   C     C_R   0.684787 0.220804 0.423147 0.130886
C54   C     C_R   0.315297 0.779109 0.423225 0.130904
C55   C     C_R   0.311200 0.217969 0.419419 0.131438
C56   C     C_R   0.688844 0.782079 0.419386 0.131434
C57   C     C_R   0.265213 0.692121 0.343511 -0.201459
C58   C     C_R   0.734927 0.307729 0.343370 -0.201426
C59   C     C_R   0.738662 0.694578 0.339861 -0.194504
C60   C     C_R   0.261442 0.305537 0.339963 -0.194383
C61   C     C_R   0.761352 0.194562 0.660124 -0.194495
C62   C     C_R   0.238573 0.805520 0.660048 -0.194417
C63   C     C_R   0.234785 0.192118 0.656486 -0.201447
C64   C     C_R   0.765052 0.807707 0.656656 -0.201418
C65   C     C_R   0.805512 0.242676 0.660199 -0.223041
C66   C     C_R   0.194407 0.757411 0.660125 -0.223059
C67   C     C_R   0.188666 0.238185 0.654644 -0.212000
C68   C     C_R   0.811170 0.761641 0.654813 -0.211995
C69   C     C_R   0.311331 0.738188 0.345353 -0.211999
C70   C     C_R   0.688809 0.261662 0.345212 -0.212003
C71   C     C_R   0.694503 0.742693 0.339786 -0.223037
C72   C     C_R   0.305607 0.257427 0.339884 -0.223068
H1    H     H_    0.113567 0.664690 0.641341 0.180738
H2    H     H_    0.886349 0.335397 0.641410 0.180771
H3    H     H_    0.892584 0.669705 0.635733 0.183332
H4    H     H_    0.107290 0.330167 0.635607 0.183262
H5    H     H_    0.607399 0.169722 0.364287 0.183325
H6    H     H_    0.392706 0.830172 0.364388 0.183268
H7    H     H_    0.386441 0.164699 0.358662 0.180733
H8    H     H_    0.613667 0.835412 0.358577 0.180772
H9    H     H_    0.262938 0.661255 0.282007 0.188959
H10   H     H_    0.737244 0.338548 0.281818 0.188983
H11   H     H_    0.741561 0.664164 0.277896 0.174040
H12   H     H_    0.258601 0.336012 0.278054 0.174068
H13   H     H_    0.758460 0.164140 0.722082 0.174044
H14   H     H_    0.241420 0.835989 0.721962 0.174059
H15   H     H_    0.237057 0.161248 0.717989 0.188959
H16   H     H_    0.762728 0.838519 0.718216 0.188988
H17   H     H_    0.835849 0.248513 0.721866 0.139698
H18   H     H_    0.164024 0.751624 0.721750 0.139708
H19   H     H_    0.156622 0.242321 0.714619 0.145260
H20   H     H_    0.843162 0.757448 0.714843 0.145276
H21   H     H_    0.343372 0.742328 0.285376 0.145263
H22   H     H_    0.656810 0.257476 0.285190 0.145276
H23   H     H_    0.664174 0.748538 0.278112 0.139694
H24   H     H_    0.335994 0.251645 0.278262 0.139709
C73   C     C_R   0.944183 0.501058 0.797837 -0.004430
C74   C     C_R   0.055725 0.496982 0.202168 0.007920
C75   C     C_R   0.055818 0.498941 0.797844 -0.004408
C76   C     C_R   0.944275 0.503015 0.202159 0.008019
C77   C     C_R   0.444274 0.996986 0.797832 0.007909
C78   C     C_R   0.555818 0.001052 0.202163 -0.004430
C79   C     C_R   0.555726 0.003010 0.797841 0.008127
C80   C     C_R   0.444182 0.998946 0.202156 -0.004408
N1    N     N_R   0.000000 0.500000 0.750030 -0.128129
N2    N     N_R   0.000000 0.500000 0.249970 -0.135368
N3    N     N_R   0.500000 0.000000 0.750030 -0.135390
N4    N     N_R   0.500000 0.000000 0.249970 -0.128129
C81   C     C_R   0.057405 0.498983 0.898695 -0.121260
C82   C     C_R   0.942650 0.502770 0.101339 -0.141434
C83   C     C_R   0.942597 0.501015 0.898687 -0.121302
C84   C     C_R   0.057351 0.497230 0.101348 -0.141372
C85   C     C_R   0.557351 0.002761 0.898661 -0.141398
C86   C     C_R   0.442595 0.998988 0.101304 -0.121267
C87   C     C_R   0.442649 0.997234 0.898652 -0.141378
C88   C     C_R   0.557404 0.001007 0.101312 -0.121269
C89   C     C_R   0.000001 0.499998 0.949406 -0.061550
C90   C     C_R   0.000000 0.499999 0.050630 -0.056731
C91   C     C_R   0.500000 0.999997 0.949369 -0.056758
C92   C     C_R   0.500000 0.999998 0.050594 -0.061541
C93   C     C_R   0.114794 0.498279 0.949568 0.411422
C94   C     C_R   0.885303 0.505349 0.050500 0.396454
C95   C     C_R   0.885207 0.501724 0.949549 0.411409
C96   C     C_R   0.114698 0.494659 0.050520 0.396338
C97   C     C_R   0.614699 0.005329 0.949497 0.396467
C98   C     C_R   0.385204 0.998287 0.050432 0.411425
C99   C     C_R   0.385301 0.994667 0.949480 0.396342
C100  C     C_R   0.614795 0.001707 0.050449 0.411367
H25   H     H_    0.901033 0.501994 0.756765 0.175544
H26   H     H_    0.098795 0.494841 0.243211 0.219565
H27   H     H_    0.098968 0.498007 0.756779 0.175543
H28   H     H_    0.901206 0.505151 0.243195 0.219402
H29   H     H_    0.401204 0.994848 0.756789 0.219550
H30   H     H_    0.598969 0.001983 0.243234 0.175547
H31   H     H_    0.598795 0.005143 0.756804 0.219443
H32   H     H_    0.401031 0.998016 0.243221 0.175543
O17   O     O_3   0.163912 0.607627 0.333969 -0.619444
C101  C     C_3   0.128582 0.643541 0.267908 -0.287433
H33   H     H_    0.153105 0.687692 0.247197 0.146803
H34   H     H_    0.081072 0.655000 0.296427 0.175482
H35   H     H_    0.122192 0.615483 0.201815 0.196398
O18   O     O_3   0.836198 0.392252 0.333879 -0.619382
C102  C     C_3   0.871605 0.356321 0.267949 -0.287462
H36   H     H_    0.847104 0.312164 0.247203 0.146809
H37   H     H_    0.919080 0.344869 0.296609 0.175439
H38   H     H_    0.878075 0.384360 0.201859 0.196287
O19   O     O_3   0.824314 0.594212 0.346601 -0.629068
C103  C     C_3   0.785744 0.542359 0.369713 -0.288414
H39   H     H_    0.736176 0.557022 0.382764 0.145297
H40   H     H_    0.804375 0.516323 0.432664 0.168604
H41   H     H_    0.785424 0.509474 0.308197 0.243188
O20   O     O_3   0.175772 0.405875 0.346699 -0.629016
C104  C     C_3   0.214270 0.457751 0.369999 -0.287988
H42   H     H_    0.263785 0.443107 0.383685 0.144975
H43   H     H_    0.195335 0.483899 0.432636 0.169053
H44   H     H_    0.214897 0.490520 0.308326 0.242991
O21   O     O_3   0.675700 0.094195 0.653381 -0.628977
C105  C     C_3   0.714263 0.042342 0.630240 -0.288436
H45   H     H_    0.763829 0.057004 0.617187 0.145292
H46   H     H_    0.695627 0.016321 0.567282 0.168549
H47   H     H_    0.714585 0.009445 0.691737 0.243173
O22   O     O_3   0.324242 0.905863 0.653311 -0.629004
C106  C     C_3   0.285721 0.957728 0.630041 -0.288093
H48   H     H_    0.236197 0.943073 0.616510 0.145043
H49   H     H_    0.304578 0.983843 0.567322 0.168945
H50   H     H_    0.285163 0.990532 0.691665 0.243055
O23   O     O_3   0.336087 0.107626 0.666031 -0.619449
C107  C     C_3   0.371416 0.143541 0.732094 -0.287447
H51   H     H_    0.346895 0.187693 0.752803 0.146806
H52   H     H_    0.418928 0.154999 0.703575 0.175484
H53   H     H_    0.377804 0.115483 0.798190 0.196399
O24   O     O_3   0.663782 0.892230 0.666141 -0.619354
C108  C     C_3   0.628362 0.856292 0.732047 -0.287410
H54   H     H_    0.652857 0.812132 0.752788 0.146805
H55   H     H_    0.580890 0.844847 0.703366 0.175421
H56   H     H_    0.621882 0.884323 0.798144 0.196279
O25   O     O_3   0.171416 0.497565 0.900848 -0.604078
C109  C     C_3   0.192947 0.560062 0.892187 -0.290367
H57   H     H_    0.202409 0.581354 0.963452 0.188658
H58   H     H_    0.159004 0.589628 0.851417 0.138200
H59   H     H_    0.237903 0.559784 0.851889 0.192124
O26   O     O_3   0.828743 0.507533 0.099302 -0.607671
C110  C     C_3   0.809512 0.570897 0.105580 -0.254370
H60   H     H_    0.800669 0.591377 0.033599 0.182281
H61   H     H_    0.844632 0.599843 0.145046 0.174847
H62   H     H_    0.764632 0.572939 0.145955 0.186831
O27   O     O_3   0.828586 0.502450 0.900821 -0.604023
C111  C     C_3   0.807043 0.439957 0.892157 -0.290286
H63   H     H_    0.797580 0.418664 0.963420 0.188661
H64   H     H_    0.840979 0.410386 0.851385 0.138151
H65   H     H_    0.762086 0.440246 0.851857 0.192122
O28   O     O_3   0.171255 0.492501 0.099342 -0.607730
C112  C     C_3   0.190533 0.429151 0.105592 -0.254148
H66   H     H_    0.199525 0.408752 0.033617 0.182427
H67   H     H_    0.155381 0.400133 0.144851 0.174559
H68   H     H_    0.235339 0.427116 0.146152 0.186808
O29   O     O_3   0.671257 0.007491 0.900683 -0.607679
C113  C     C_3   0.690544 0.070840 0.894471 -0.254328
H69   H     H_    0.699542 0.091221 0.966458 0.182479
H70   H     H_    0.655393 0.099873 0.855230 0.174591
H71   H     H_    0.735349 0.072881 0.853914 0.186823
O30   O     O_3   0.328582 0.997575 0.099153 -0.604071
C114  C     C_3   0.307053 0.060073 0.107811 -0.290359
H72   H     H_    0.297590 0.081364 0.036546 0.188659
H73   H     H_    0.340997 0.089640 0.148580 0.138196
H74   H     H_    0.262097 0.059796 0.148111 0.192120
O31   O     O_3   0.328743 0.992511 0.900659 -0.607735
C115  C     C_3   0.309464 0.929161 0.894406 -0.254168
H75   H     H_    0.300471 0.908759 0.966381 0.182427
H76   H     H_    0.344617 0.900143 0.855147 0.174573
H77   H     H_    0.264658 0.927127 0.853846 0.186810
O32   O     O_3   0.671417 0.002416 0.099177 -0.604088
C116  C     C_3   0.692942 0.939915 0.107842 -0.290345
H78   H     H_    0.702401 0.918620 0.036579 0.188672
H79   H     H_    0.658996 0.910353 0.148612 0.138172
H80   H     H_    0.737900 0.940191 0.148143 0.192123

loop_
_geom_bond_atom_site_label_1
_geom_bond_atom_site_label_2
_geom_bond_distance
_ccdc_geom_bond_type
C84   C96   1.411898 A    
C101  H34   1.112499 S    
C110  H60   1.112912 S    
O17   C101  1.414230 S    
C8    C21   1.436300 S    
C58   H10   1.082963 S    
C57   H9    1.083007 S    
C102  H36   1.111761 S    
C14   C22   1.393441 A    
C73   H25   1.082173 S    
C88   C92   1.411231 A    
C23   C31   1.413000 A    
C52   C67   1.396470 A    
C97   O29   1.383002 S    
C115  H76   1.113528 S    
C105  H45   1.113421 S    
O15   Zn4   2.021333 S    
C114  H74   1.109222 S    
C45   C53   1.410178 A    
C12   C52   1.379730 A    
C79   H31   1.081264 S    
C112  H66   1.112729 S    
O10   C6    1.289682 A    
C87   C91   1.411294 A    
C110  H61   1.113606 S    
C10   C18   1.396223 A    
O7    Zn2   2.021333 S    
C77   H29   1.081289 S    
C60   H12   1.083105 S    
C107  H53   1.108534 S    
C76   C82   1.410721 A    
C94   O26   1.382987 S    
C54   C69   1.396459 A    
C19   C27   1.408812 A    
C102  H37   1.112463 S    
C39   C63   1.404534 A    
C53   C70   1.396385 A    
C77   N3    1.361395 A    
C65   H17   1.083958 S    
C38   C62   1.403759 A    
C32   O24   1.386368 S    
C98   O30   1.382862 S    
C76   N2    1.361390 A    
C112  H68   1.109122 S    
O6    Zn1   2.021353 S    
C67   H19   1.084079 S    
C84   C90   1.411286 A    
C46   C54   1.410241 A    
C35   C59   1.403701 A    
O13   C7    1.284775 A    
O3    C2    1.284759 A    
C107  H52   1.112520 S    
Zn2   N2    1.997942 S    
O14   C8    1.279829 A    
C74   H26   1.081287 S    
C29   O21   1.385019 S    
Zn1   N1    1.997940 S    
O22   C106  1.411033 S    
C32   C40   1.395885 A    
C101  H35   1.108526 S    
C39   C47   1.412177 A    
C28   O20   1.385106 S    
C33   C41   1.412165 A    
C41   C46   1.394673 A    
C38   C46   1.413071 A    
C103  H41   1.108604 S    
C95   O27   1.382852 S    
C114  H72   1.113077 S    
C62   H14   1.083099 S    
C71   H23   1.083966 S    
C111  H63   1.113083 S    
C108  H55   1.112466 S    
C16   C56   1.381911 A    
C36   C44   1.413077 A    
O13   Zn4   2.021356 S    
C109  H57   1.113081 S    
C100  O32   1.382865 S    
O14   Zn3   2.021353 S    
C15   C23   1.396274 A    
C116  H78   1.113086 S    
C59   C71   1.387888 A    
C108  H54   1.111749 S    
O9    Zn3   2.021360 S    
C80   N4    1.361809 A    
C24   C32   1.412963 A    
O16   Zn3   2.021336 S    
C44   C52   1.410250 A    
C25   C33   1.395915 A    
C63   H15   1.083021 S    
O1    Zn1   2.021360 S    
O8    Zn1   2.021336 S    
C78   H30   1.082182 S    
C42   C50   1.409330 A    
C59   H11   1.083048 S    
C30   O22   1.385113 S    
Zn3   N3    1.997940 S    
C15   H7    1.085261 S    
C21   C29   1.408809 A    
C115  H75   1.112744 S    
C10   C50   1.381915 A    
C9    C49   1.381924 A    
C104  H43   1.112863 S    
C75   H27   1.082172 S    
C86   C98   1.411966 A    
C110  H62   1.109212 S    
C61   H13   1.083041 S    
O4    Zn2   2.021334 S    
C76   H28   1.081258 S    
O8    C3    1.289684 A    
O26   C110  1.410095 S    
C98   C99   1.414236 A    
C9    H1    1.085251 S    
O27   C111  1.410110 S    
C30   C38   1.394794 A    
C44   C47   1.394677 A    
O3    Zn1   2.021335 S    
C102  H38   1.108489 S    
C25   O17   1.386383 S    
O2    Zn2   2.021360 S    
C93   C96   1.414238 A    
O19   C103  1.410951 S    
C99   O31   1.382994 S    
C34   C42   1.412120 A    
O29   C113  1.410096 S    
C104  H42   1.113768 S    
O12   C5    1.289687 A    
C58   C70   1.385491 A    
O5    Zn2   2.021356 S    
C35   C43   1.413018 A    
C107  H51   1.111772 S    
C1    C20   1.436281 S    
C68   H20   1.084030 S    
C60   C72   1.387893 A    
C33   C57   1.404519 A    
C2    C19   1.436308 S    
C106  H48   1.113641 S    
C83   C89   1.411219 A    
C3    C18   1.443801 S    
C75   C81   1.411133 A    
C5    C24   1.443802 S    
C27   O19   1.385006 S    
C85   C97   1.411910 A    
C113  H70   1.113511 S    
C6    C23   1.443797 S    
C69   H21   1.084070 S    
O11   Zn3   2.021335 S    
C108  H56   1.108506 S    
C15   C55   1.381929 A    
C26   C34   1.395890 A    
C109  H59   1.109205 S    
C114  H73   1.113698 S    
C47   C55   1.409412 A    
C81   C89   1.411213 A    
C16   H8    1.085209 S    
C7    C22   1.436285 S    
C77   C87   1.410726 A    
C116  H79   1.113698 S    
C78   C88   1.411127 A    
C88   C100  1.411958 A    
C55   C72   1.398275 A    
C22   C30   1.408854 A    
O5    C3    1.278974 A    
O4    C1    1.279806 A    
C75   N1    1.361798 A    
C13   C53   1.379699 A    
C103  H39   1.113477 S    
C12   H4    1.085473 S    
C43   C51   1.410185 A    
O21   C105  1.410956 S    
O16   C7    1.279806 A    
C87   C99   1.411906 A    
C12   C20   1.393446 A    
C80   H32   1.082180 S    
C101  H33   1.111759 S    
C37   C61   1.403693 A    
C16   C24   1.396233 A    
C31   C39   1.395914 A    
C17   C25   1.412988 A    
C82   C90   1.411288 A    
C79   N3    1.361391 A    
C96   O28   1.382987 S    
C97   C100  1.414236 A    
C83   C95   1.411937 A    
O20   C104  1.411034 S    
O31   C115  1.410098 S    
C113  H71   1.109138 S    
C27   C35   1.394789 A    
O18   C102  1.414158 S    
C104  H44   1.108822 S    
O10   Zn4   2.021360 S    
C28   C36   1.394794 A    
C20   C28   1.408860 A    
O15   C8    1.284761 A    
C42   C45   1.394662 A    
C66   H18   1.084011 S    
C64   C68   1.385491 A    
C37   C45   1.413011 A    
O2    C2    1.279835 A    
C36   C60   1.403775 A    
C63   C67   1.385506 A    
C29   C37   1.394790 A    
C105  H46   1.112758 S    
C91   C92   1.415949 A    
C93   O25   1.382848 S    
C85   C91   1.411292 A    
C57   C69   1.385504 A    
C48   C56   1.409338 A    
O6    C4    1.289679 A    
C89   C90   1.415951 A    
C43   C48   1.394660 A    
O11   C6    1.278975 A    
O1    C1    1.284774 A    
C72   H24   1.084023 S    
C80   C86   1.411133 A    
C106  H50   1.108753 S    
C40   C48   1.412129 A    
C41   C49   1.409401 A    
O24   C108  1.414168 S    
C14   H6    1.085467 S    
C106  H49   1.112807 S    
C112  H67   1.113509 S    
C13   C21   1.393365 A    
O23   C107  1.414257 S    
C10   H2    1.085202 S    
C62   C66   1.387891 A    
C86   C92   1.411228 A    
C4    C17   1.443793 S    
C40   C64   1.404456 A    
O9    C5    1.278971 A    
C113  H69   1.112723 S    
C73   C83   1.411121 A    
C111  H65   1.109208 S    
C11   H3    1.085433 S    
C103  H40   1.112794 S    
O32   C116  1.410131 S    
C64   H16   1.082971 S    
C11   C19   1.393377 A    
C13   H5    1.085428 S    
C70   H22   1.084023 S    
C78   N4    1.361800 A    
O25   C109  1.410107 S    
C82   C94   1.411912 A    
C116  H80   1.109219 S    
C18   C26   1.412949 A    
C105  H47   1.108567 S    
C31   O23   1.386393 S    
C56   C71   1.398217 A    
C51   C68   1.396397 A    
C74   C84   1.410724 A    
C14   C54   1.379728 A    
C81   C93   1.411954 A    
O28   C112  1.410077 S    
C79   C85   1.410721 A    
C111  H64   1.113683 S    
O7    C4    1.278975 A    
C26   O18   1.386360 S    
C9    C17   1.396260 A    
C94   C95   1.414218 A    
C109  H58   1.113681 S    
C74   N2    1.361385 A    
O12   Zn4   2.021334 S    
C50   C65   1.398206 A    
C73   N1    1.361783 A    
O30   C114  1.410125 S    
C115  H77   1.109130 S    
C61   C65   1.387891 A    
C49   C66   1.398264 A    
Zn4   N4    1.997942 S    
C11   C51   1.379699 A    
C34   C58   1.404446 A    
