data_mof_unit_45320.cif
_audit_creation_date              2012-12-11T14:50:40-0500
_audit_creation_method            fapswitch 2.2
_symmetry_space_group_name_H-M    P1
_symmetry_Int_Tables_number       1
_space_group_crystal_system       triclinic
_cell_length_a                    10.903099
_cell_length_b                    10.871256
_cell_length_c                    18.706153
_cell_angle_alpha                 90.233212
_cell_angle_beta                  89.868738
_cell_angle_gamma                 60.238292
_cell_volume                      1924.74704218

loop_
_atom_site_label
_atom_site_type_symbol
_atom_type_description
_atom_site_fract_x
_atom_site_fract_y
_atom_site_fract_z
_atom_type_partial_charge
C1    C     C_R   0.235333 0.648291 0.610074 0.536299
C2    C     C_3   0.647741 0.574515 0.799346 -0.251514
C3    C     C_3   0.704264 0.677303 0.810451 0.047013
C4    C     C_3   0.675264 0.651342 0.674273 0.058981
C5    C     C_3   0.832342 0.600107 0.690754 -0.243721
C6    C     C_3   0.625601 0.563404 0.719320 -0.215437
C7    C     C_R   0.775334 0.073916 0.701430 -0.161407
C8    C     C_R   0.795937 0.049454 0.774552 -0.143985
C9    C     C_R   0.697128 0.146860 0.823553 0.030075
C10   C     C_R   0.577639 0.268089 0.799629 -0.149173
C11   C     C_R   0.557144 0.291901 0.726930 -0.135365
C12   C     C_R   0.656371 0.625313 0.599215 0.545406
C13   C     C_R   0.654928 0.194665 0.677868 0.034742
C14   C     C_R   0.187424 0.559507 0.721793 -0.204435
C15   C     C_R   0.180771 0.559900 0.795877 -0.226051
C16   C     C_R   0.185330 0.667366 0.835140 0.013817
C17   C     C_R   0.208016 0.767594 0.799907 0.360458
C18   C     C_R   0.189169 0.784377 0.726067 0.012806
C19   C     C_R   0.192115 0.670021 0.685814 -0.042582
C20   C     C_R   0.718329 0.504634 0.266751 -0.132811
C21   C     C_R   0.728316 0.524393 0.194635 -0.128262
C22   C     C_R   0.644784 0.658473 0.164049 0.031612
C23   C     C_R   0.627795 0.228535 0.603007 0.532967
C24   C     C_R   0.538255 0.767623 0.205171 -0.131673
C25   C     C_R   0.523758 0.745114 0.277491 -0.128249
C26   C     C_R   0.618789 0.614871 0.309262 0.030278
C27   C     C_R   0.551643 0.143169 0.290048 -0.129850
C28   C     C_R   0.549854 0.139898 0.216789 -0.131196
C29   C     C_R   0.652343 0.153048 0.177636 0.040281
C30   C     C_R   0.755599 0.171133 0.212675 -0.148173
C31   C     C_R   0.758917 0.171516 0.286420 -0.148784
C32   C     C_R   0.652061 0.166039 0.325062 0.038624
C33   C     C_R   0.079251 0.817730 0.307609 -0.131231
C34   C     C_R   0.217663 0.651120 0.402195 0.544370
C35   C     C_R   0.039119 0.838461 0.236908 -0.127095
C36   C     C_R   0.047164 0.726900 0.195839 0.030107
C37   C     C_R   0.082785 0.597303 0.228355 -0.127791
C38   C     C_R   0.127166 0.574895 0.299216 -0.129319
C39   C     C_R   0.133094 0.683060 0.337644 0.029888
C40   C     C_R   0.702444 0.102436 0.896478 0.535409
C41   C     C_R   0.726148 0.689783 0.887058 0.551214
C42   C     C_R   0.121583 0.704278 0.906414 0.570853
C43   C     C_R   0.674506 0.107326 0.104231 0.539696
C44   C     C_R   0.693264 0.687806 0.096471 0.542927
C45   C     C_R   0.615300 0.589288 0.385853 0.568000
C46   C     C_R   0.025058 0.747547 0.119049 0.562443
C47   C     C_R   0.619436 0.224847 0.396150 0.543332
C48   C     C_3   0.598172 0.823826 0.777262 -0.223882
C49   C     C_3   0.588117 0.809469 0.695929 -0.245377
C50   C     C_3   0.848193 0.620457 0.770612 -0.227972
Cr1   Cr    Cr6+3 0.392930 0.397900 0.502230 1.007055
Cr2   Cr    Cr6+3 0.398240 0.708600 0.501260 0.996400
Cr3   Cr    Cr6+3 0.708800 0.393470 0.496460 1.001320
Cr4   Cr    Cr6+3 0.937620 0.938540 0.007640 1.039948
Cr5   Cr    Cr6+3 0.625150 0.937450 0.994520 1.029879
Cr6   Cr    Cr6+3 0.937990 0.625080 0.001190 1.009841
H1    H     H_    0.632990 0.902457 0.788107 0.142321
H2    H     H_    0.686331 0.449847 0.703288 0.144158
H3    H     H_    0.928837 0.516844 0.792918 0.140559
H4    H     H_    0.899991 0.485890 0.676980 0.139723
H5    H     H_    0.849158 0.997221 0.663614 0.100905
H6    H     H_    0.884661 0.951093 0.792871 0.121262
H7    H     H_    0.498784 0.341387 0.836961 0.120976
H8    H     H_    0.465426 0.386995 0.708504 0.134015
H9    H     H_    0.189375 0.472273 0.692606 0.146898
H10   H     H_    0.166667 0.479295 0.822280 0.145386
H11   H     H_    0.491626 0.865196 0.801795 0.181665
H12   H     H_    0.793002 0.404482 0.289915 0.123168
H13   H     H_    0.810530 0.437207 0.164291 0.129496
H14   H     H_    0.472522 0.871937 0.182826 0.123886
H15   H     H_    0.443446 0.831440 0.309015 0.130846
H16   H     H_    0.469005 0.136271 0.318935 0.130275
H17   H     H_    0.471197 0.121653 0.191205 0.130399
H18   H     H_    0.837451 0.178268 0.183175 0.113945
H19   H     H_    0.840625 0.182993 0.313133 0.112962
H20   H     H_    0.079738 0.903951 0.336628 0.127537
H21   H     H_    0.476059 0.854566 0.681180 0.133555
H22   H     H_    0.011343 0.939130 0.212979 0.129686
H23   H     H_    0.085790 0.510749 0.198047 0.133241
H24   H     H_    0.166424 0.470539 0.321918 0.130056
H25   H     H_    0.628806 0.871799 0.667481 0.119455
H26   H     H_    0.887258 0.696858 0.777559 0.123940
H27   H     H_    0.870499 0.660486 0.658576 0.114499
H28   H     H_    0.723962 0.467952 0.820607 0.129371
H29   H     H_    0.545927 0.612901 0.828518 0.151128
H30   H     H_    0.511782 0.601056 0.709305 0.129932
O1    O     O_R   0.507430 0.255570 0.581420 -0.518627
O2    O     O_R   0.524460 0.695920 0.424060 -0.503943
O3    O     O_R   0.736530 0.504260 0.414810 -0.517931
O4    O     O_R   0.691460 0.277160 0.422180 -0.523850
O5    O     O_3   0.499990 0.499990 0.499980 -0.259218
O6    O     O_R   0.089490 0.825610 0.930610 -0.435421
O7    O     O_R   0.818370 0.054540 0.929880 -0.499728
O8    O     O_R   0.605870 0.077310 0.915530 -0.515455
O9    O     O_R   0.646440 0.806700 0.917570 -0.494173
O10   O     O_R   0.837200 0.593290 0.915250 -0.526071
O11   O     O_R   0.065330 0.635370 0.931590 -0.520412
O12   O     O_R   0.280190 0.527390 0.578910 -0.500147
O13   O     O_R   0.068300 0.828790 0.091860 -0.514029
O14   O     O_R   0.798730 0.057480 0.079370 -0.528474
O15   O     O_R   0.584680 0.080480 0.076790 -0.522400
O16   O     O_R   0.626790 0.809640 0.067050 -0.497620
O17   O     O_R   0.816010 0.596460 0.076500 -0.532097
O18   O     O_R   0.045680 0.638310 0.081070 -0.502259
O19   O     O_3   0.833590 0.833690 0.001120 -0.279360
O20   O     O_R   0.260310 0.739740 0.584580 -0.539598
O21   O     O_R   0.532250 0.695150 0.573830 -0.507412
O22   O     O_R   0.744930 0.503430 0.576380 -0.522548
O23   O     O_R   0.699250 0.276390 0.571950 -0.503575
O24   O     O_R   0.499020 0.256400 0.419850 -0.524051
O25   O     O_R   0.272400 0.528160 0.429140 -0.502666
O26   O     O_R   0.251910 0.740570 0.423020 -0.532368
F1    F     F_    0.240347 0.853467 0.838727 -0.658257
C51   C     C_3   0.162867 0.923034 0.690798 -0.231851
C52   C     C_3   0.113060 0.054255 0.738793 -0.389901
H31   H     H_    0.033375 0.063422 0.778407 0.201164
H32   H     H_    0.204150 0.051394 0.766777 0.197568
H33   H     H_    0.064455 0.151088 0.705309 0.108004
H34   H     H_    0.259434 0.906860 0.663332 0.166315
H35   H     H_    0.079959 0.951920 0.649632 0.144436

loop_
_geom_bond_atom_site_label_1
_geom_bond_atom_site_label_2
_ccdc_geom_bond_type
C46   O13   A    
C34   O26   A    
C6    H2    S    
C2    H28   S    
C35   C36   A    
C40   O7    A    
C18   C51   S    
C51   C52   S    
C24   H14   S    
C48   H1    S    
C41   O9    A    
C37   H23   S    
Cr5   O16   S    
C29   C30   A    
C20   C26   A    
Cr5   O19   S    
C50   H3    S    
C36   C37   A    
C3    C41   S    
C38   C39   A    
C5    H27   S    
C41   O10   A    
Cr2   O26   S    
C52   H31   S    
C3    C48   S    
C13   C23   S    
C2    H29   S    
C18   C19   A    
C49   H25   S    
C7    H5    S    
Cr4   O7    S    
C26   C45   S    
Cr1   O5    S    
C44   O17   A    
C22   C44   S    
C10   H7    S    
Cr2   O21   S    
C32   C47   S    
C8    C9    A    
C52   H32   S    
Cr3   O5    S    
C36   C46   S    
C25   H15   S    
C4    C12   S    
C45   O3    A    
C9    C10   A    
C51   H34   S    
C5    H4    S    
C1    O20   A    
Cr1   O12   S    
Cr2   O20   S    
C23   O1    A    
C21   C22   A    
C29   C43   S    
C34   O25   A    
Cr4   O14   S    
C2    C6    S    
Cr6   O11   S    
Cr5   O8    S    
C28   H17   S    
C3    C50   S    
C23   O23   A    
C1    C19   S    
C17   F1    S    
C34   C39   S    
Cr2   O2    S    
C45   O2    A    
C43   O14   A    
Cr6   O18   S    
C4    C6    S    
C11   H8    S    
C42   O11   A    
Cr1   O1    S    
C12   O22   A    
C44   O16   A    
C16   C17   A    
C25   C26   A    
C15   H10   S    
C46   O18   A    
C9    C40   S    
C21   H13   S    
C43   O15   A    
Cr4   O6    S    
C37   C38   A    
C33   H20   S    
C31   H19   S    
C31   C32   A    
C52   H33   S    
C17   C18   A    
C33   C39   A    
C24   C25   A    
Cr5   O9    S    
C48   C49   S    
Cr1   O24   S    
Cr3   O3    S    
C47   O4    A    
C22   C24   A    
C5    C50   S    
C16   C42   S    
Cr3   O4    S    
C50   H26   S    
Cr3   O23   S    
Cr6   O10   S    
C28   C29   A    
Cr1   O25   S    
Cr4   O19   S    
C27   C32   A    
C14   C19   A    
C20   H12   S    
Cr6   O17   S    
C40   O8    A    
C4    C5    S    
C1    O12   A    
C12   O21   A    
C47   O24   A    
Cr5   O15   S    
C35   H22   S    
C6    H30   S    
C4    C49   S    
C2    C3    S    
C11   C13   A    
Cr3   O22   S    
C30   C31   A    
C38   H24   S    
C30   H18   S    
C33   C35   A    
C14   H9    S    
C49   H21   S    
C42   O6    A    
C48   H11   S    
Cr4   O13   S    
Cr6   O19   S    
C7    C8    A    
C10   C11   A    
C7    C13   A    
C20   C21   A    
C27   C28   A    
C14   C15   A    
Cr2   O5    S    
C51   H35   S    
C27   H16   S    
C15   C16   A    
C8    H6    S    
