data_mof_unit_67557.cif
_audit_creation_date              2013-03-05T15:41:21-0500
_audit_creation_method            fapswitch 2.2
_symmetry_space_group_name_H-M    P1
_symmetry_Int_Tables_number       1
_space_group_crystal_system       triclinic
_cell_length_a                    10.616407
_cell_length_b                    8.713307
_cell_length_c                    7.59807
_cell_angle_alpha                 102.691824
_cell_angle_beta                  96.335741
_cell_angle_gamma                 95.502935
_cell_volume                      676.238722615

loop_
_atom_site_label
_atom_site_type_symbol
_atom_site_description
_atom_site_fract_x
_atom_site_fract_y
_atom_site_fract_z
_atom_type_partial_charge
O1    O     O_R   0.509190 0.286130 0.619780 -0.589222
O2    O     O_R   0.490810 0.713870 0.380220 -0.593389
O3    O     O_R   0.485310 0.256770 0.308360 -0.593702
O4    O     O_R   0.514690 0.743230 0.691640 -0.592115
C1    C     C_R   0.496596 0.200389 0.453711 0.860089
C2    C     C_R   0.508346 0.800143 0.546480 0.875240
O5    O     O_R   0.328790 0.514640 0.655680 -0.593274
O6    O     O_R   0.671210 0.485360 0.344320 -0.589421
O7    O     O_R   0.304910 0.485280 0.344260 -0.590480
O8    O     O_R   0.695090 0.514720 0.655740 -0.590901
C3    C     C_R   0.259057 0.490211 0.497113 0.791767
C4    C     C_R   0.740590 0.510173 0.502931 0.771239
Cu1   Cu    Cu3+1 0.514140 0.517380 0.684380 0.919906
Cu2   Cu    Cu3+1 0.485860 0.482620 0.315620 0.919610
N1    N     N_2   0.464560 0.456420 0.038510 -0.051374
N2    N     N_2   0.535440 0.543580 0.961490 -0.052602
C5    C     C_3   0.042482 0.417252 0.622164 -0.261000
C6    C     C_3   0.955563 0.580097 0.376899 -0.263929
C7    C     C_3   0.935126 0.352700 0.460017 0.186447
C8    C     C_3   0.062574 0.644267 0.540216 0.184585
H1    H     H_    0.082574 0.351403 0.720222 0.143835
H2    H     H_    0.914495 0.646987 0.280608 0.144813
C9    C     C_3   0.877555 0.509058 0.505692 -0.140162
C10   C     C_3   0.121177 0.488526 0.493653 -0.120557
C11   C     C_3   0.982980 0.573475 0.666786 0.154121
C12   C     C_3   0.014557 0.421999 0.331158 0.188293
C13   C     C_2   0.492083 0.032203 0.428999 -0.389033
C14   C     C_2   0.520346 0.969147 0.570899 -0.371819
H3    H     H_    0.458919 0.959734 0.293710 0.169408
H4    H     H_    0.552855 0.041800 0.706504 0.164332
C15   C     C_3   0.847306 0.196217 0.429947 -0.377599
C16   C     C_3   0.920780 0.054479 0.401950 -0.904467
H5    H     H_    0.962898 0.041504 0.273185 0.259062
H6    H     H_    0.997288 0.071264 0.518339 0.262717
H7    H     H_    0.855757 0.945002 0.395246 0.243586
H8    H     H_    0.798137 0.198287 0.552067 0.202621
H9    H     H_    0.772784 0.184063 0.311603 0.213152
C17   C     C_3   0.138381 0.810084 0.604642 -0.394373
C18   C     C_3   0.191081 0.870857 0.451647 -0.895146
H10   H     H_    0.253408 0.788827 0.382865 0.283478
H11   H     H_    0.112609 0.883792 0.350826 0.258895
H12   H     H_    0.245989 0.989652 0.508336 0.247005
H13   H     H_    0.075730 0.893832 0.670155 0.199764
H14   H     H_    0.219644 0.807036 0.708591 0.222756
C19   C     C_3   0.964777 0.659017 0.858355 -0.382651
C20   C     C_3   0.092728 0.706874 0.981903 -0.876000
H15   H     H_    0.168735 0.637557 0.929240 0.272187
H16   H     H_    0.124757 0.835117 0.999290 0.236966
H17   H     H_    0.081514 0.683002 0.115853 0.255503
H18   H     H_    0.916574 0.765767 0.852181 0.185808
H19   H     H_    0.901725 0.578869 0.914909 0.220713
C21   C     C_3   0.036630 0.332387 0.141765 -0.386435
C22   C     C_3   0.911408 0.269437 0.015263 -0.842268
H20   H     H_    0.865244 0.161538 0.047695 0.247553
H21   H     H_    0.843987 0.359753 0.026441 0.263773
H22   H     H_    0.930743 0.235826 0.872354 0.236545
H23   H     H_    0.095785 0.412625 0.080311 0.218942
H24   H     H_    0.090955 0.231884 0.155137 0.188034
C23   C     C_3   0.400025 0.305261 0.934966 -0.377874
H25   H     H_    0.332158 0.259261 0.017625 0.148062
H26   H     H_    0.341329 0.313875 0.809762 0.183276
H27   H     H_    0.469975 0.219504 0.909769 0.170071
C24   C     C_3   0.600303 0.694532 0.064784 -0.376690
H28   H     H_    0.668887 0.739642 0.982468 0.149161
H29   H     H_    0.530564 0.780551 0.088263 0.168667
H30   H     H_    0.658228 0.686216 0.190698 0.184501

loop_
_geom_bond_atom_site_label_1
_geom_bond_atom_site_label_2
_geom_bond_distance
_ccdc_geom_bond_type
C7    C9    1.532609 S    
O7    Cu2   1.958793 S    
C24   H29   1.103892 S    
C17   H14   1.109967 S    
N2    C24   1.439986 S    
C12   C21   1.533350 S    
C13   H3    1.082406 S    
C8    C17   1.534296 S    
C16   H7    1.110697 S    
C15   H8    1.111354 S    
C15   C16   1.511587 S    
C6    C12   1.553657 S    
O6    C4    1.304106 A    
C7    C15   1.533897 S    
C16   H5    1.107953 S    
C22   H22   1.108111 S    
C14   H4    1.083728 S    
C24   H30   1.099024 S    
C5    C11   1.541527 S    
C23   H25   1.108753 S    
C18   H11   1.099385 S    
C1    C13   1.431349 S    
C19   C20   1.529112 S    
O5    C3    1.305821 A    
O7    C3    1.301729 A    
C20   H17   1.099227 S    
O2    C2    1.303664 A    
O3    Cu2   1.955948 S    
C21   H24   1.110337 S    
C19   H18   1.111044 S    
C2    C14   1.434543 S    
O1    C1    1.302899 A    
O8    C4    1.300071 A    
C5    C7    1.547845 S    
C10   C12   1.546881 S    
C18   H12   1.108924 S    
C6    C8    1.550888 S    
C22   H21   1.109460 S    
C17   C18   1.517228 S    
O2    Cu2   1.960390 S    
C17   H13   1.108700 S    
C23   H26   1.099291 S    
C5    C10   1.544051 S    
O1    Cu1   1.960389 S    
C8    C11   1.536036 S    
C19   H19   1.107296 S    
C6    C9    1.540563 S    
C18   H10   1.106663 S    
C20   H16   1.110879 S    
C11   C19   1.524637 S    
C3    C10   1.459726 S    
O5    Cu1   1.952987 S    
C9    C11   1.530102 S    
C21   C22   1.529218 S    
O4    C2    1.302790 A    
C21   H23   1.106876 S    
Cu1   N2    2.051875 S    
O4    Cu1   1.955949 S    
C7    C12   1.542280 S    
C8    C10   1.534040 S    
C20   H15   1.111111 S    
C23   H27   1.105170 S    
C4    C9    1.452899 S    
Cu2   N1    2.051875 S    
O6    Cu2   1.952989 S    
Cu1   Cu2   2.730626 S    
O3    C1    1.302246 A    
C6    H2    1.109400 S    
N1    C23   1.440741 S    
C5    H1    1.109124 S    
N1    N2    1.291646 D    
C22   H20   1.106749 S    
C15   H9    1.109390 S    
C24   H28   1.108811 S    
C13   C14   1.332233 D    
O8    Cu1   1.958792 S    
C16   H6    1.106809 S    
