data_mof_unit_31331.cif
_audit_creation_date              2012-12-11T14:27:02-0500
_audit_creation_method            fapswitch 2.2
_symmetry_space_group_name_H-M    P1
_symmetry_Int_Tables_number       1
_space_group_crystal_system       triclinic
_cell_length_a                    15.108626
_cell_length_b                    14.998157
_cell_length_c                    14.91074
_cell_angle_alpha                 110.349549
_cell_angle_beta                  109.711049
_cell_angle_gamma                 108.817218
_cell_volume                      2585.64338673

loop_
_atom_site_label
_atom_site_type_symbol
_atom_type_description
_atom_site_fract_x
_atom_site_fract_y
_atom_site_fract_z
_atom_type_partial_charge
C1    C     C_R   0.001723 0.803241 0.095124 -0.117108
C2    C     C_R   0.213822 0.793879 0.308302 -0.134584
C3    C     C_R   0.975281 0.411975 0.224791 -0.107328
C4    C     C_R   0.778772 0.257115 0.687026 -0.097596
C5    C     C_R   0.314610 0.590890 0.060665 -0.143565
C6    C     C_R   0.052978 0.506028 0.327382 0.107368
C7    C     C_R   0.324879 0.498034 0.039419 0.050989
C8    C     C_R   0.313286 0.847787 0.319596 0.060722
C9    C     C_R   0.987872 0.164057 0.982009 0.125299
C10   C     C_3   0.553694 0.532179 0.981882 -0.360987
C11   C     C_3   0.446986 0.524035 0.969191 -0.509161
C12   C     C_R   0.678138 0.234108 0.675990 0.152334
C13   C     C_3   0.516431 0.382354 0.027947 -0.463296
C14   C     C_3   0.624488 0.577792 0.182902 -0.390197
C15   C     C_3   0.601836 0.499652 0.066600 0.307761
C16   C     C_R   0.078382 0.590265 0.784673 -0.138761
C17   C     C_3   0.424757 0.496216 0.052948 0.233102
C18   C     C_3   0.413758 0.381207 0.025467 0.351575
C19   C     C_3   0.521775 0.583592 0.172157 -0.322910
C20   C     C_2   0.391860 0.036763 0.458376 -0.243987
C21   C     C_2   0.405210 0.948969 0.418181 -0.116709
C22   C     C_2   0.479664 0.144220 0.556844 -0.003911
C23   C     C_R   0.043605 0.498304 0.687674 0.049463
C24   C     C_2   0.579270 0.181566 0.569365 -0.216907
C25   C     C_2   0.098872 0.440030 0.550261 -0.059315
C26   C     C_2   0.063790 0.501966 0.600357 -0.175342
C27   C     C_2   0.091548 0.429366 0.446246 -0.087665
C28   C     C_R   0.702682 0.410637 0.005500 -0.109779
C29   C     C_2   0.110445 0.516215 0.433724 -0.203154
C30   C     C_2   0.114315 0.102231 0.033733 -0.081467
C31   C     C_2   0.014944 0.089073 0.007117 -0.223852
C32   C     C_2   0.143366 0.026964 0.058586 -0.065583
C33   C     C_2   0.097535 0.979121 0.103761 -0.203209
C34   C     C_R   0.699766 0.502374 0.065564 -0.068637
C35   C     C_R   0.996653 0.407687 0.696314 -0.065464
C36   C     C_R   0.790778 0.593055 0.093656 -0.027114
C37   C     C_R   0.688318 0.254830 0.778142 -0.023149
C38   C     C_R   0.090643 0.800411 0.002618 -0.103959
C39   C     C_R   0.062997 0.864679 0.066123 0.110065
C40   C     C_2   0.502802 0.942655 0.475806 1.033088
C41   C     C_2   0.453484 0.207575 0.635185 0.994450
C42   C     C_2   0.972356 0.294882 0.628277 0.930213
C43   C     C_2   0.840402 0.707209 0.181039 0.907757
C44   C     C_R   0.064291 0.594539 0.314556 -0.068522
C45   C     C_R   0.222986 0.407319 0.966001 -0.071275
C46   C     C_R   0.306708 0.792869 0.219385 -0.067211
C47   C     C_R   0.933947 0.211394 0.020252 -0.133440
C48   C     C_R   0.026210 0.213097 0.930540 -0.063412
Cl1   Cl    Cl    0.387696 0.340481 0.117923 -0.713375
H1    H     H_    0.982036 0.835955 0.157552 0.138463
H2    H     H_    0.610509 0.617392 0.008943 0.212104
H3    H     H_    0.451015 0.603322 0.982212 0.193860
H4    H     H_    0.795898 0.247865 0.621187 0.113923
H5    H     H_    0.380115 0.459468 0.882769 0.175312
H6    H     H_    0.492826 0.323410 0.942424 0.143066
H7    H     H_    0.345645 0.317052 0.940000 0.052498
H8    H     H_    0.648923 0.546893 0.239605 0.187123
H9    H     H_    0.690557 0.662148 0.223017 0.188725
H10   H     H_    0.536651 0.667197 0.190266 0.170151
H11   H     H_    0.504594 0.570962 0.234972 0.211122
H12   H     H_    0.201411 0.322875 0.923376 0.106144
H13   H     H_    0.551399 0.353951 0.083358 0.206925
H14   H     H_    0.312865 0.029119 0.417144 0.166022
H15   H     H_    0.130500 0.674542 0.811642 0.109159
H16   H     H_    0.586989 0.145014 0.497323 0.137149
H17   H     H_    0.118769 0.386805 0.576629 0.142251
H18   H     H_    0.043712 0.555090 0.573721 0.144436
H19   H     H_    0.052282 0.347314 0.375951 0.142562
H20   H     H_    0.156283 0.598170 0.506462 0.139672
H21   H     H_    0.171388 0.162640 0.027712 0.185587
H22   H     H_    0.955629 0.027683 0.010252 0.151880
H23   H     H_    0.365173 0.822358 0.195691 0.112722
H24   H     H_    0.184703 0.996715 0.019767 0.126937
H25   H     H_    0.651137 0.326515 0.979098 0.103167
H26   H     H_    0.063182 0.015568 0.148833 0.147496
H27   H     H_    0.625707 0.242368 0.799437 0.103662
H28   H     H_    0.149610 0.826577 0.978435 0.087244
H29   H     H_    0.115867 0.679472 0.379295 0.109056
H30   H     H_    0.602186 0.882533 0.461343 0.327928
H31   H     H_    0.350568 0.205125 0.693403 0.314689
H32   H     H_    0.966803 0.157155 0.623876 0.326578
H33   H     H_    0.964032 0.831815 0.333036 0.324429
H34   H     H_    0.884694 0.183136 0.053329 0.103110
H35   H     H_    0.058943 0.185066 0.879585 0.108066
H36   H     H_    0.187582 0.824410 0.365527 0.134219
H37   H     H_    0.944254 0.328923 0.207376 0.100281
H38   H     H_    0.378923 0.674940 0.106643 0.112198
H39   H     H_    0.539831 0.477549 0.899420 0.200901
N1    N     N_R   0.993980 0.704500 0.053430 -0.048487
N2    N     N_R   0.053690 0.556380 0.849240 -0.051598
N3    N     N_R   0.790390 0.443640 0.997160 -0.050075
N4    N     N_R   0.998260 0.443670 0.792970 -0.064287
N5    N     N_R   0.845830 0.556350 0.053430 -0.061503
N6    N     N_R   0.792820 0.295510 0.849240 -0.064816
N7    N     N_R   0.051260 0.704510 0.997160 -0.048455
N8    N     N_R   0.001740 0.556330 0.207030 -0.035883
N9    N     N_R   0.154170 0.443650 0.946570 -0.035915
N10   N     N_R   0.207180 0.704490 0.150760 -0.052408
N11   N     N_R   0.948740 0.295490 0.002840 -0.049497
N12   N     N_R   0.006020 0.295500 0.946570 -0.037295
N13   N     N_R   0.149890 0.704480 0.207030 -0.042082
N14   N     N_R   0.946310 0.443620 0.150760 -0.053469
N15   N     N_R   0.209610 0.556360 0.002840 -0.047848
N16   N     N_R   0.850110 0.295520 0.792970 -0.039362
Ni1   Ni    Ni4+2 0.997880 0.629240 0.129060 0.256784
Ni2   Ni    Ni4+2 0.002120 0.370760 0.870940 0.269646
Ni3   Ni    Ni4+2 0.129260 0.629260 0.000000 0.208244
Ni4   Ni    Ni4+2 0.870740 0.370740 0.000000 0.224317
O1    O     O_2   0.550418 0.984612 0.576672 -0.643223
O2    O     O_R   0.536161 0.882708 0.413416 -0.816580
O3    O     O_2   0.511371 0.307164 0.695576 -0.664710
O4    O     O_R   0.360141 0.153397 0.637123 -0.802348
O5    O     O_2   0.934254 0.253241 0.528031 -0.640234
O6    O     O_R   0.988073 0.233966 0.678690 -0.818616
O7    O     O_2   0.800323 0.763407 0.166269 -0.666901
O8    O     O_R   0.936210 0.752176 0.279444 -0.816471

loop_
_geom_bond_atom_site_label_1
_geom_bond_atom_site_label_2
_ccdc_geom_bond_type
N8    Ni1   S    
C5    N15   A    
C16   N2    A    
N8    N14   A    
C4    H4    S    
C27   C29   D    
C3    C6    A    
C28   H25   S    
N16   Ni2   S    
N11   Ni4   S    
C10   H39   S    
C33   C39   S    
C13   C18   S    
C26   H18   S    
C7    C45   A    
N2    Ni3   S    
C10   C15   S    
C30   C31   D    
C22   C41   S    
C47   N11   A    
C2    H36   S    
C23   C26   S    
C12   C37   A    
C35   C42   S    
C11   H3    S    
N5    Ni1   S    
C36   N5    A    
C33   H26   S    
C13   H13   S    
C7    C17   S    
C41   O4    S    
C38   N7    A    
N14   Ni4   S    
C27   H19   S    
C47   H34   S    
C4    C12   A    
C1    H1    S    
C15   C34   S    
C46   H23   S    
C18   H7    S    
C43   O7    D    
C35   N4    A    
C31   H22   S    
C46   N10   A    
N6    N16   A    
C6    C44   A    
C3    H37   S    
C48   N12   A    
C10   H2    S    
C14   C19   S    
C30   H21   S    
C42   O6    S    
C8    C21   S    
C29   H20   S    
N13   Ni1   S    
C14   H9    S    
C32   H24   S    
C5    C7    A    
C9    C31   S    
C40   O2    S    
C2    N13   A    
C19   H10   S    
C25   C26   D    
N10   Ni3   S    
C48   H35   S    
H32   O6    S    
C44   N8    A    
C43   O8    S    
N3    N5    A    
C42   O5    D    
N2    N4    A    
N11   N12   A    
N6    Ni4   S    
N1    N7    A    
H31   O4    S    
C17   C18   S    
N9    N15   A    
C11   H5    S    
N7    Ni3   S    
C24   H16   S    
N9    Ni2   S    
C3    N14   A    
N4    Ni2   S    
C37   H27   S    
C20   C22   S    
C9    C47   A    
C16   C23   A    
C23   C35   A    
C13   C15   S    
C22   C24   D    
C14   H8    S    
C11   C17   S    
C1    N1    A    
H30   O2    S    
N3    Ni4   S    
C2    C8    A    
C25   H17   S    
C40   O1    D    
C38   H28   S    
C19   H11   S    
C25   C27   S    
N10   N13   A    
C12   C24   S    
N12   Ni2   S    
C32   C33   D    
C20   H14   S    
C44   H29   S    
H33   O8    S    
C45   N9    A    
C30   C32   S    
C38   C39   A    
C21   C40   S    
C4    N16   A    
C45   H12   S    
C17   C19   S    
C37   N6    A    
C28   N3    A    
C34   C36   A    
C8    C46   A    
C10   C11   S    
C1    C39   A    
C28   C34   A    
C5    H38   S    
C6    C29   S    
C20   C21   D    
C9    C48   A    
C41   O3    D    
N1    Ni1   S    
C14   C15   S    
C36   C43   S    
N15   Ni3   S    
C16   H15   S    
C18   Cl1   S    
C13   H6    S    
