data_mof_unit_47962.cif
_audit_creation_date              2012-12-10T20:26:29-0500
_audit_creation_method            fapswitch 2.2
_symmetry_space_group_name_H-M    P1
_symmetry_Int_Tables_number       1
_space_group_crystal_system       triclinic
_cell_length_a                    10.713399
_cell_length_b                    10.6771
_cell_length_c                    9.865133
_cell_angle_alpha                 89.88563
_cell_angle_beta                  90.1597
_cell_angle_gamma                 90.361036
_cell_volume                      1128.42415854

loop_
_atom_site_label
_atom_site_type_symbol
_atom_type_description
_atom_site_fract_x
_atom_site_fract_y
_atom_site_fract_z
_atom_type_partial_charge
C1    C     C_R   0.499042 0.260444 0.499908 0.880113
C2    C     C_R   0.596641 0.550760 0.071803 0.618499
C3    C     C_R   0.596852 0.550060 0.927919 -0.253098
C4    C     C_R   0.262487 0.500364 0.499694 0.916419
C5    C     C_R   0.395915 0.463881 0.928527 0.196599
C6    C     C_3   0.331489 0.340116 0.921593 -0.489999
C7    C     C_3   0.334209 0.337469 0.075583 -0.506794
C8    C     C_R   0.497511 0.739681 0.499434 0.882400
C9    C     C_R   0.737274 0.494118 0.500267 0.947661
C10   C     C_2   0.932768 0.472101 0.386700 -0.152395
C11   C     C_2   0.867997 0.473338 0.501887 -0.336833
C12   C     C_R   0.500988 0.128944 0.496725 -0.113283
C13   C     C_2   0.067036 0.465275 0.390007 -0.186811
C14   C     C_2   0.130398 0.504247 0.498909 -0.336099
C15   C     C_R   0.575826 0.063694 0.586716 0.070969
C16   C     C_R   0.704302 0.134278 0.787323 0.192910
C17   C     C_R   0.820936 0.114817 0.725225 -0.148383
C18   C     C_R   0.926928 0.179675 0.770442 -0.149440
C19   C     C_R   0.917995 0.263802 0.878190 -0.122898
C20   C     C_R   0.803135 0.283084 0.941133 -0.131283
C21   C     C_R   0.696783 0.218892 0.895981 -0.125345
C22   C     C_R   0.356221 0.874364 0.287010 0.148281
C23   C     C_R   0.438083 0.066705 0.392153 -0.266056
C24   C     C_R   0.392033 0.877412 0.150164 -0.120457
C25   C     C_R   0.320118 0.815236 0.052407 -0.160925
C26   C     C_R   0.211422 0.751320 0.090287 -0.118069
C27   C     C_R   0.174296 0.749614 0.225962 -0.104298
C28   C     C_R   0.246627 0.810366 0.324368 -0.137959
C29   C     C_R   0.434478 0.937110 0.391043 -0.023141
C30   C     C_R   0.498087 0.871864 0.495394 -0.127261
C31   C     C_R   0.576058 0.935966 0.585019 0.072386
C32   C     C_3   0.590799 0.926635 0.735753 -0.505928
C33   C     C_3   0.586490 0.069277 0.737816 -0.199387
C34   C     C_R   0.396388 0.462695 0.070902 0.133809
F1    F     F_    0.695074 0.601608 0.138722 -0.675376
H1    H     H_    0.887790 0.479123 0.288145 0.208053
H2    H     H_    0.385017 0.118541 0.317171 0.158516
H3    H     H_    0.508848 0.882147 0.785557 0.199359
H4    H     H_    0.682318 0.886012 0.765100 0.204921
H5    H     H_    0.499480 0.103758 0.785510 0.146330
H6    H     H_    0.829785 0.050337 0.641300 0.132289
H7    H     H_    0.016033 0.164858 0.721754 0.135135
H8    H     H_    0.000060 0.313931 0.913087 0.121558
H9    H     H_    0.796452 0.347987 0.024908 0.145700
H10   H     H_    0.608625 0.235456 0.945944 0.111156
H11   H     H_    0.476333 0.926318 0.119699 0.134649
H12   H     H_    0.676037 0.588280 0.873701 0.181145
H13   H     H_    0.348546 0.816413 0.947305 0.127362
H14   H     H_    0.155848 0.703329 0.014476 0.128521
H15   H     H_    0.089459 0.701175 0.254806 0.151306
H16   H     H_    0.217537 0.807491 0.429403 0.105760
H17   H     H_    0.235753 0.348103 0.878937 0.194106
H18   H     H_    0.389594 0.266883 0.874300 0.200488
H19   H     H_    0.239729 0.341519 0.121260 0.196088
H20   H     H_    0.395979 0.263571 0.117555 0.205444
H21   H     H_    0.910105 0.456047 0.600243 0.158515
H22   H     H_    0.114144 0.433499 0.299174 0.165408
H23   H     H_    0.086673 0.542428 0.588602 0.144961
N1    N     N_R   0.499170 0.499140 0.142800 -0.155252
N2    N     N_R   0.499170 0.499180 0.857150 -0.135184
O1    O     O_R   0.500020 0.316790 0.614690 -0.622010
O2    O     O_R   0.500000 0.316760 0.385350 -0.630898
O3    O     O_R   0.319080 0.500020 0.614640 -0.623608
O4    O     O_R   0.319070 0.499980 0.385300 -0.611815
O5    O     O_R   0.500000 0.683240 0.614650 -0.624455
O6    O     O_R   0.499980 0.683210 0.385310 -0.578910
O7    O     O_R   0.680930 0.500020 0.614700 -0.625702
O8    O     O_R   0.680920 0.499980 0.385360 -0.555205
Zn1   Zn    Zn3+2 0.500010 0.500020 0.653130 0.938730
Zn2   Zn    Zn3+2 0.499990 0.499980 0.346870 0.999012

loop_
_geom_bond_atom_site_label_1
_geom_bond_atom_site_label_2
_ccdc_geom_bond_type
C2    F1    S    
C10   H1    S    
C24   C25   A    
C9    O7    A    
C8    O6    A    
C16   C21   A    
C22   C29   S    
O4    Zn2   S    
C16   C33   S    
C4    O4    A    
C31   C32   S    
C12   C23   A    
C12   C15   A    
C7    H20   S    
C30   C31   A    
C8    C30   S    
C3    N2    A    
C19   C20   A    
C17   C18   A    
C25   C26   A    
C9    O8    A    
C24   H11   S    
C8    O5    A    
O6    Zn2   S    
C13   C14   D    
C5    C34   A    
C15   C31   A    
C9    C11   S    
C4    O3    A    
C26   C27   A    
C29   C30   A    
C1    C12   S    
N2    Zn1   S    
C27   H15   S    
O5    Zn1   S    
C23   C29   A    
C3    H12   S    
C20   H9    S    
C19   H8    S    
C2    C3    A    
C6    C7    S    
C21   H10   S    
C32   H3    S    
C18   H7    S    
C4    C14   S    
C5    C6    S    
C14   H23   S    
C7    C34   S    
C22   C24   A    
C32   H4    S    
C17   H6    S    
C13   H22   S    
C10   C11   D    
N1    Zn2   S    
C33   H5    S    
C7    H19   S    
C20   C21   A    
O2    Zn2   S    
C1    O2    A    
O8    Zn2   S    
C18   C19   A    
C26   H14   S    
O1    Zn1   S    
C27   C28   A    
C2    N1    A    
C22   C28   A    
C6    H18   S    
C5    N2    A    
C6    H17   S    
C28   H16   S    
C23   H2    S    
C34   N1    A    
C25   H13   S    
C15   C33   S    
C11   H21   S    
O3    Zn1   S    
C32   C33   S    
C16   C17   A    
O7    Zn1   S    
C10   C13   S    
C1    O1    A    
