data_mof_unit_52449.cif
_audit_creation_date              2012-12-10T17:10:21-0500
_audit_creation_method            fapswitch 2.2
_symmetry_space_group_name_H-M    P1
_symmetry_Int_Tables_number       1
_space_group_crystal_system       triclinic
_cell_length_a                    15.766963
_cell_length_b                    10.760774
_cell_length_c                    10.069499
_cell_angle_alpha                 90.668297
_cell_angle_beta                  88.89392
_cell_angle_gamma                 90.218397
_cell_volume                      1707.99326585

loop_
_atom_site_label
_atom_site_type_symbol
_atom_type_description
_atom_site_fract_x
_atom_site_fract_y
_atom_site_fract_z
_atom_type_partial_charge
C1    C     C_R   0.494985 0.263225 0.499114 0.846758
C2    C     C_2   0.529271 0.868043 0.503323 0.219263
C3    C     C_2   0.537340 0.069672 0.407610 0.300417
C4    C     C_R   0.338302 0.497459 0.501088 0.840336
C5    C     C_2   0.484620 0.130697 0.492405 0.294140
C6    C     C_2   0.559674 0.550277 0.924713 0.531939
C7    C     C_2   0.546646 0.574196 0.073745 0.535295
C8    C     C_R   0.507025 0.737184 0.500669 0.817487
C9    C     C_R   0.661853 0.499456 0.498706 0.914572
C10   C     C_3   0.973366 0.384285 0.506344 0.238775
C11   C     C_3   0.031434 0.435444 0.395881 0.287421
C12   C     C_3   0.084438 0.503643 0.502263 -0.212290
C13   C     C_1   0.249818 0.495610 0.503579 -0.168568
C14   C     C_1   0.750572 0.498675 0.495159 -0.142072
C15   C     C_3   0.025813 0.451572 0.612482 0.211194
C16   C     C_3   0.007654 0.319903 0.203163 0.131866
C17   C     C_3   0.012291 0.178337 0.191853 -0.329415
C18   C     C_3   0.947699 0.128609 0.093263 -0.930600
C19   C     C_3   0.371377 0.129673 0.653396 0.081730
C20   C     C_3   0.414656 0.105297 0.785635 -0.288741
C21   C     C_3   0.362990 0.158221 0.902628 -0.924497
C22   C     C_3   0.013249 0.635179 0.180317 0.140217
C23   C     C_3   0.968277 0.567146 0.602109 0.379160
C24   C     C_3   0.007997 0.770780 0.138171 -0.339310
C25   C     C_3   0.075604 0.800834 0.032471 -0.987308
C26   C     C_3   0.127470 0.781066 0.476311 0.082861
C27   C     C_3   0.165784 0.791725 0.614864 -0.340201
C28   C     C_3   0.259573 0.825896 0.605725 -0.925385
C29   C     C_3   0.920895 0.590110 0.823175 0.077882
C30   C     C_3   0.848921 0.493678 0.824091 -0.383482
C31   C     C_3   0.830651 0.446194 0.963918 -0.902414
C32   C     C_3   0.448403 0.936482 0.197966 0.107128
C33   C     C_3   0.362621 0.886016 0.248109 -0.364409
C34   C     C_3   0.916326 0.500035 0.494795 -0.165345
C35   C     C_3   0.289131 0.942957 0.173948 -0.972712
C36   C     C_3   0.026982 0.620205 0.491888 0.338867
C37   C     C_3   0.975174 0.552253 0.385271 0.291540
C38   C     C_1   0.174849 0.497239 0.504174 0.114783
C39   C     C_1   0.825687 0.498609 0.493102 0.145755
C40   C     C_2   0.525496 0.936010 0.392235 0.378850
H1    H     H_    0.022757 0.358972 0.103922 0.141489
H2    H     H_    0.421423 0.003408 0.798876 0.234188
H3    H     H_    0.479038 0.147354 0.785341 0.258503
H4    H     H_    0.353338 0.259415 0.890737 0.290267
H5    H     H_    0.397287 0.142963 0.996181 0.267180
H6    H     H_    0.300186 0.111405 0.909736 0.256829
H7    H     H_    0.676597 0.604177 0.932212 0.310177
H8    H     H_    0.384699 0.469476 0.840691 0.373225
H9    H     H_    0.604423 0.732829 0.064592 0.315901
H10   H     H_    0.450428 0.345029 0.163572 0.371716
H11   H     H_    0.993212 0.210439 0.529078 0.352894
H12   H     H_    0.941151 0.346943 0.230166 0.166273
H13   H     H_    0.007121 0.575000 0.090983 0.132743
H14   H     H_    0.077579 0.618867 0.221014 0.138235
H15   H     H_    0.944229 0.789256 0.097821 0.231062
H16   H     H_    0.017180 0.832321 0.226125 0.249766
H17   H     H_    0.139737 0.778818 0.069010 0.272310
H18   H     H_    0.073501 0.901165 0.008490 0.277606
H19   H     H_    0.064300 0.746200 0.940230 0.276990
H20   H     H_    0.131991 0.873854 0.429414 0.160863
H21   H     H_    0.163747 0.717737 0.408537 0.119949
H22   H     H_    0.131506 0.864878 0.673103 0.237846
H23   H     H_    0.077062 0.150187 0.158187 0.227230
H24   H     H_    0.158351 0.702939 0.668944 0.236575
H25   H     H_    0.296169 0.751655 0.553563 0.257617
H26   H     H_    0.285079 0.839034 0.706971 0.273805
H27   H     H_    0.267560 0.913343 0.549907 0.269209
H28   H     H_    0.903796 0.664491 0.896064 0.180274
H29   H     H_    0.981267 0.550721 0.857928 0.166177
H30   H     H_    0.790914 0.536776 0.784926 0.276274
H31   H     H_    0.865777 0.413170 0.759189 0.231746
H32   H     H_    0.886841 0.396704 0.000835 0.249595
H33   H     H_    0.776257 0.380395 0.962061 0.285266
H34   H     H_    0.999170 0.136724 0.290549 0.250887
H35   H     H_    0.814652 0.524393 0.032801 0.278948
H36   H     H_    0.011867 0.339788 0.759160 0.340278
H37   H     H_    0.456213 0.910343 0.091368 0.174763
H38   H     H_    0.449673 0.039857 0.201879 0.131404
H39   H     H_    0.361000 0.783315 0.235030 0.248121
H40   H     H_    0.354436 0.907954 0.355364 0.231184
H41   H     H_    0.289928 0.045775 0.185160 0.276998
H42   H     H_    0.228213 0.907510 0.215887 0.260896
H43   H     H_    0.293335 0.917415 0.066829 0.274031
H44   H     H_    0.560719 0.862800 0.691481 0.359760
H45   H     H_    0.882487 0.156567 0.124509 0.281586
H46   H     H_    0.633530 0.067562 0.284547 0.357954
H47   H     H_    0.950325 0.025760 0.089377 0.272169
H48   H     H_    0.961863 0.164798 0.992321 0.265578
H49   H     H_    0.306439 0.090204 0.660411 0.166375
H50   H     H_    0.360660 0.229893 0.635574 0.134242
N1    N     N_2   0.500900 0.501330 0.852150 0.061768
N2    N     N_2   0.500930 0.501360 0.147810 0.061499
O1    O     O_R   0.499990 0.319060 0.613040 -0.638125
O2    O     O_3   0.414413 0.067305 0.547522 -0.704255
O3    O     O_3   0.635040 0.583168 0.862962 -0.795835
O4    O     O_3   0.422578 0.506577 0.907002 -0.703978
O5    O     O_3   0.585266 0.674392 0.134383 -0.740015
O6    O     O_3   0.484021 0.389016 0.094786 -0.688895
O7    O     O_3   0.942638 0.262544 0.514326 -0.740741
O8    O     O_3   0.945039 0.607316 0.268757 -0.618921
O9    O     O_3   0.040794 0.750153 0.486093 -0.589260
O10   O     O_3   0.930798 0.647565 0.698581 -0.590529
O11   O     O_3   0.057113 0.396671 0.726893 -0.763610
O12   O     O_R   0.500010 0.319100 0.386900 -0.605358
O13   O     O_3   0.515983 0.881920 0.267031 -0.619264
O14   O     O_3   0.555061 0.925014 0.620648 -0.786589
O15   O     O_3   0.602102 0.130123 0.339094 -0.761190
O16   O     O_R   0.376760 0.499970 0.613050 -0.636940
O17   O     O_R   0.376790 0.500010 0.386910 -0.621926
O18   O     O_R   0.499990 0.680900 0.613100 -0.617827
O19   O     O_R   0.500010 0.680940 0.386960 -0.541019
O20   O     O_R   0.623210 0.499990 0.613090 -0.560439
O21   O     O_R   0.623240 0.500030 0.386950 -0.573299
O22   O     O_3   0.069435 0.364146 0.292332 -0.630219
Zn1   Zn    Zn3+2 0.499980 0.499970 0.650990 1.020334
Zn2   Zn    Zn3+2 0.500020 0.500030 0.349010 1.058193

loop_
_geom_bond_atom_site_label_1
_geom_bond_atom_site_label_2
_ccdc_geom_bond_type
C4    O17   A    
C34   C37   S    
H46   O15   S    
C30   H31   S    
C35   H41   S    
N2    O6    S    
C22   H14   S    
C24   H15   S    
C4    O16   A    
C26   C27   S    
C1    C5    S    
O16   Zn1   S    
C36   C37   S    
C26   H21   S    
C10   C15   S    
C26   O9    S    
C30   C31   S    
C31   H33   S    
C23   O10   S    
C6    N1    D    
C29   H28   S    
O1    Zn1   S    
C4    C13   S    
C11   C37   S    
C11   O22   S    
O17   Zn2   S    
N1    O4    S    
O12   Zn2   S    
C19   C20   S    
C16   C17   S    
H44   O14   S    
O19   Zn2   S    
C12   C36   S    
H8    O4    S    
C29   H29   S    
O21   Zn2   S    
C9    O20   A    
C15   C23   S    
C14   C39   T    
C25   H17   S    
C30   H30   S    
C35   H42   S    
C5    O2    S    
C22   H13   S    
C21   H5    S    
H11   O7    S    
H10   O6    S    
C18   H45   S    
C22   O8    S    
C34   C39   S    
C28   H27   S    
C24   C25   S    
C10   C11   S    
C8    O19   A    
C35   H43   S    
C33   H39   S    
C3    O15   S    
C32   H38   S    
C2    O14   S    
C18   H48   S    
C36   O9    S    
C28   H26   S    
C9    C14   S    
C29   C30   S    
C19   H49   S    
C27   H22   S    
C8    O18   A    
C21   H4    S    
C31   H35   S    
C12   C15   S    
C23   C34   S    
C17   C18   S    
C10   C34   S    
N2    Zn2   S    
C1    O12   A    
C13   C38   T    
C19   O2    S    
C31   H32   S    
C3    C40   S    
C23   C36   S    
C32   O13   S    
C17   H34   S    
C22   C24   S    
C25   H18   S    
C20   H3    S    
C21   H6    S    
C7    O5    S    
C2    C8    S    
C16   H12   S    
C3    C5    D    
C16   O22   S    
C20   H2    S    
C11   C12   S    
C33   H40   S    
C6    C7    S    
C24   H16   S    
C18   H47   S    
C9    O21   A    
C32   C33   S    
C28   H25   S    
C19   H50   S    
C17   H23   S    
H36   O11   S    
C7    N2    D    
C16   H1    S    
C33   C35   S    
N1    Zn1   S    
C29   O10   S    
O20   Zn1   S    
C12   C38   S    
C10   O7    S    
C32   H37   S    
C27   H24   S    
H9    O5    S    
C2    C40   D    
C20   C21   S    
C1    O1    A    
C6    O3    S    
C27   C28   S    
H7    O3    S    
C25   H19   S    
C15   O11   S    
C26   H20   S    
O18   Zn1   S    
C37   O8    S    
C40   O13   S    
