data_mof_unit_59821.cif
_audit_creation_date              2012-12-10T17:04:37-0500
_audit_creation_method            fapswitch 2.2
_symmetry_space_group_name_H-M    P1
_symmetry_Int_Tables_number       1
_space_group_crystal_system       triclinic
_cell_length_a                    14.94145
_cell_length_b                    10.671271
_cell_length_c                    10.04021
_cell_angle_alpha                 89.531006
_cell_angle_beta                  90.696351
_cell_angle_gamma                 90.400919
_cell_volume                      1600.64392974

loop_
_atom_site_label
_atom_site_type_symbol
_atom_type_description
_atom_site_fract_x
_atom_site_fract_y
_atom_site_fract_z
_atom_type_partial_charge
C1    C     C_R   0.499738 0.262456 0.500311 0.996205
C2    C     C_R   0.187616 0.377447 0.512104 0.051843
C3    C     C_R   0.231812 0.493711 0.499047 -0.146661
C4    C     C_R   0.327362 0.498340 0.499227 0.850725
C5    C     C_R   0.186118 0.607542 0.495378 -0.107445
C6    C     C_2   0.545928 0.938174 0.388744 0.129098
C7    C     C_2   0.527406 0.868876 0.498614 -0.384662
C8    C     C_2   0.550526 0.073474 0.406619 -0.093093
C9    C     C_2   0.501691 0.129794 0.499119 -0.345140
C10   C     C_2   0.550565 0.573897 0.924601 -0.061921
C11   C     C_2   0.559052 0.558975 0.073430 -0.124647
C12   C     C_R   0.908668 0.609754 0.538743 0.088315
C13   C     C_R   0.506736 0.737506 0.499072 0.887334
C14   C     C_R   0.672787 0.502004 0.501070 0.929142
C15   C     C_R   0.815212 0.613157 0.525544 -0.078861
C16   C     C_R   0.768769 0.500147 0.506687 -0.183116
C17   C     C_R   0.812113 0.384040 0.502546 -0.062914
C18   C     C_R   0.905221 0.378444 0.525137 0.015927
C19   C     C_R   0.953741 0.493548 0.531789 0.009540
C20   C     C_2   0.764660 0.733433 0.524021 0.336044
C21   C     C_2   0.409966 0.491226 0.104051 0.585816
C22   C     C_2   0.759926 0.272954 0.459631 0.366589
C23   C     C_R   0.952326 0.263652 0.544657 0.071600
C24   C     C_3   0.909439 0.139147 0.586077 -0.389220
C25   C     C_3   0.866089 0.147852 0.723657 -0.302585
C26   C     C_3   0.818213 0.025907 0.760882 -0.828370
C27   C     C_3   0.239980 0.254929 0.501290 -0.423487
C28   C     C_3   0.226227 0.196405 0.363056 -0.352321
C29   C     C_3   0.279469 0.075890 0.349058 -0.825366
C30   C     C_2   0.231572 0.719811 0.438498 0.413418
C31   C     C_3   0.098440 0.835080 0.624380 -0.446210
C32   C     C_3   0.157432 0.803526 0.746338 -0.333685
C33   C     C_3   0.203635 0.920899 0.800511 -0.858117
C34   C     C_R   0.045365 0.265708 0.539101 -0.250205
C35   C     C_3   0.558691 0.882303 0.250204 -0.325044
C36   C     C_3   0.588901 0.975047 0.141285 -0.401370
C37   C     C_3   0.598645 0.909801 0.007528 -0.874139
C38   C     C_R   0.093781 0.377812 0.524579 0.086058
C39   C     C_R   0.047781 0.493201 0.529583 -0.012668
C40   C     C_R   0.095466 0.608715 0.529156 0.085402
C41   C     C_R   0.050939 0.719546 0.568035 0.129550
C42   C     C_R   0.957794 0.718846 0.567684 -0.200939
H1    H     H_    0.530219 0.910173 0.597106 0.154406
H2    H     H_    0.371031 0.409387 0.132600 0.017867
H3    H     H_    0.777145 0.225166 0.368551 0.058283
H4    H     H_    0.764583 0.004329 0.686773 0.295196
H5    H     H_    0.866474 0.947298 0.765383 0.243953
H6    H     H_    0.787347 0.035459 0.860292 0.243074
H7    H     H_    0.918833 0.167705 0.799819 0.209772
H8    H     H_    0.817141 0.225453 0.726077 0.256095
H9    H     H_    0.862866 0.102147 0.509534 0.227511
H10   H     H_    0.960580 0.064715 0.593598 0.180023
H11   H     H_    0.352006 0.097574 0.345883 0.253021
H12   H     H_    0.590498 0.129846 0.338981 0.170188
H13   H     H_    0.265975 0.010967 0.433555 0.266732
H14   H     H_    0.260198 0.028894 0.254608 0.277976
H15   H     H_    0.154415 0.174665 0.344742 0.233844
H16   H     H_    0.248117 0.264195 0.285090 0.229138
H17   H     H_    0.312696 0.269035 0.517503 0.190516
H18   H     H_    0.221199 0.188468 0.581975 0.187746
H19   H     H_    0.299126 0.744794 0.469659 0.051188
H20   H     H_    0.247655 0.963152 0.723581 0.246114
H21   H     H_    0.153204 0.990877 0.830684 0.258559
H22   H     H_    0.245305 0.895725 0.888945 0.274197
H23   H     H_    0.458812 0.080639 0.568894 0.125025
H24   H     H_    0.115291 0.761356 0.825697 0.239532
H25   H     H_    0.209811 0.734991 0.720656 0.229864
H26   H     H_    0.137082 0.885720 0.547536 0.235889
H27   H     H_    0.048564 0.903990 0.658161 0.187234
H28   H     H_    0.650545 0.835971 0.014897 0.254929
H29   H     H_    0.533920 0.866884 0.975951 0.274160
H30   H     H_    0.619184 0.979256 0.930613 0.256362
H31   H     H_    0.538727 0.050893 0.129158 0.224644
H32   H     H_    0.654775 0.016836 0.169345 0.234416
H33   H     H_    0.610131 0.807669 0.258053 0.225731
H34   H     H_    0.590470 0.645665 0.875885 0.139837
H35   H     H_    0.494001 0.840583 0.216412 0.235535
H36   H     H_    0.476332 0.421128 0.896180 0.159719
H37   H     H_    0.618659 0.597520 0.120761 0.146639
H38   H     H_    0.079501 0.177376 0.548903 0.151063
H39   H     H_    0.923893 0.804160 0.593633 0.175990
H40   H     H_    0.702602 0.740767 0.578242 0.063011
N1    N     N_2   0.500970 0.501330 0.852150 -0.167057
N2    N     N_2   0.500990 0.501360 0.147810 -0.176008
O1    O     O_R   0.499990 0.319060 0.613040 -0.602921
O2    O     O_2   0.373099 0.577021 0.043960 -0.584552
O3    O     O_2   0.699106 0.232636 0.527930 -0.587641
O4    O     O_2   0.195017 0.781209 0.350546 -0.568744
O5    O     O_R   0.500010 0.319100 0.386900 -0.640332
O6    O     O_R   0.367830 0.499950 0.613080 -0.608161
O7    O     O_R   0.367860 0.499990 0.386940 -0.624991
O8    O     O_R   0.499990 0.680900 0.613100 -0.616845
O9    O     O_R   0.500010 0.680940 0.386960 -0.621855
O10   O     O_R   0.632140 0.500010 0.613060 -0.609467
O11   O     O_R   0.632170 0.500050 0.386920 -0.628531
O12   O     O_2   0.789596 0.822765 0.456969 -0.580044
Zn1   Zn    Zn3+2 0.499980 0.499970 0.650990 0.968040
Zn2   Zn    Zn3+2 0.500020 0.500030 0.349010 0.943712

loop_
_geom_bond_atom_site_label_1
_geom_bond_atom_site_label_2
_ccdc_geom_bond_type
C24   H10   S    
C20   H40   S    
C41   C42   A    
C35   C36   S    
O11   Zn2   S    
C28   H15   S    
C36   H32   S    
C35   H33   S    
C19   C39   A    
C36   C37   S    
C33   H20   S    
C27   H18   S    
C38   C39   A    
C15   C16   A    
C10   N1    D    
C6    C35   S    
C18   C19   A    
C25   H8    S    
C12   C42   A    
C34   H38   S    
C10   H34   S    
H36   N1    S    
C8    C9    D    
C23   C24   S    
C12   C15   A    
C2    C27   S    
C7    H1    S    
O6    Zn1   S    
C26   H6    S    
C4    O7    A    
C24   H9    S    
C20   O12   D    
C37   H28   S    
C15   C20   S    
C42   H39   S    
O8    Zn1   S    
C4    O6    A    
C1    O1    A    
C31   H26   S    
C18   C23   A    
C1    C9    S    
C24   C25   S    
C10   C11   S    
C8    H12   S    
C39   C40   A    
C16   C17   A    
C6    C8    S    
C29   H13   S    
O10   Zn1   S    
C25   C26   S    
C35   H35   S    
C13   O9    A    
C21   H2    S    
C2    C38   A    
C31   C32   S    
C21   N2    S    
C31   H27   S    
C33   H21   S    
C23   C34   A    
C9    H23   S    
C17   C18   A    
C22   O3    D    
C11   H37   S    
C26   H5    S    
C32   H25   S    
C40   C41   A    
C37   H29   S    
C13   O8    A    
C14   C16   S    
C37   H30   S    
C30   O4    D    
C3    C4    S    
C14   O11   A    
C32   H24   S    
C5    C30   S    
C21   O2    D    
C28   C29   S    
C1    O5    A    
C31   C41   S    
C34   C38   A    
C3    C5    A    
C6    C7    D    
C29   H14   S    
C28   H16   S    
C11   N2    D    
C17   C22   S    
O5    Zn2   S    
N2    Zn2   S    
C32   C33   S    
C2    C3    A    
C27   H17   S    
C29   H11   S    
C33   H22   S    
C12   C19   A    
O7    Zn2   S    
C25   H7    S    
O1    Zn1   S    
C36   H31   S    
C26   H4    S    
C7    C13   S    
C22   H3    S    
N1    Zn1   S    
C30   H19   S    
C27   C28   S    
C5    C40   A    
O9    Zn2   S    
C14   O10   A    
