data_mof_unit_21803.cif
_audit_creation_date              2012-12-10T18:59:18-0500
_audit_creation_method            fapswitch 2.2
_symmetry_space_group_name_H-M    P1
_symmetry_Int_Tables_number       1
_space_group_crystal_system       triclinic
_cell_length_a                    10.784696
_cell_length_b                    10.816772
_cell_length_c                    9.538176
_cell_angle_alpha                 89.921564
_cell_angle_beta                  90.020682
_cell_angle_gamma                 90.22764
_cell_volume                      1112.67172754

loop_
_atom_site_label
_atom_site_type_symbol
_atom_type_description
_atom_site_fract_x
_atom_site_fract_y
_atom_site_fract_z
_atom_type_partial_charge
C1    C     C_R   0.502164 0.262239 0.500123 0.777849
C2    C     C_R   0.065061 0.396064 0.579491 0.104867
C3    C     C_R   0.128739 0.486948 0.500054 -0.101163
C4    C     C_R   0.064134 0.571580 0.417468 -0.202450
C5    C     C_R   0.936246 0.571625 0.417500 -0.212845
C6    C     C_R   0.871015 0.486899 0.499947 -0.101806
C7    C     C_R   0.514574 0.063362 0.626436 0.128899
C8    C     C_R   0.514879 0.129147 0.500331 -0.139239
C9    C     C_R   0.534420 0.064755 0.374264 -0.209276
C10   C     C_R   0.535503 0.935872 0.374076 -0.223718
C11   C     C_R   0.516738 0.870669 0.499930 -0.094984
C12   C     C_R   0.262526 0.495679 0.500059 0.788552
C13   C     C_R   0.514960 0.935849 0.626010 0.070280
C14   C     C_3   0.426598 0.925746 0.746162 -0.502094
C15   C     C_3   0.424194 0.066387 0.746277 0.069614
C16   C     C_R   0.562183 0.589902 0.073511 0.252993
C17   C     C_R   0.428365 0.419327 0.074534 -0.075236
C18   C     C_R   0.427908 0.419764 0.925566 -0.037085
C19   C     C_R   0.562241 0.589812 0.926156 0.248695
C20   C     C_3   0.697689 0.617384 0.920140 -0.490862
C21   C     C_3   0.697712 0.617431 0.079302 -0.511576
C22   C     C_R   0.503135 0.737655 0.499880 0.809518
C23   C     C_R   0.737401 0.495743 0.500023 0.788113
C24   C     C_R   0.128415 0.302928 0.654845 -0.195097
C25   C     C_R   0.063251 0.213116 0.729855 -0.144830
C26   C     C_R   0.934401 0.212531 0.728943 -0.134763
C27   C     C_R   0.869826 0.302089 0.653557 -0.190979
C28   C     C_R   0.933916 0.395849 0.579164 0.096685
Cu1   Cu    Cu3+1 0.499990 0.499980 0.640670 0.940345
Cu2   Cu    Cu3+1 0.500010 0.500020 0.359330 0.936501
H1    H     H_    0.113127 0.640023 0.355239 0.151174
H2    H     H_    0.470157 0.883206 0.840064 0.202075
H3    H     H_    0.332737 0.104989 0.716078 0.104274
H4    H     H_    0.372424 0.352299 0.130469 0.138831
H5    H     H_    0.370966 0.353760 0.869672 0.149084
H6    H     H_    0.752668 0.540332 0.875103 0.227437
H7    H     H_    0.716937 0.709919 0.873999 0.189767
H8    H     H_    0.752710 0.540397 0.124583 0.226643
H9    H     H_    0.717146 0.709954 0.125107 0.184632
H10   H     H_    0.228260 0.296725 0.654410 0.135140
H11   H     H_    0.112863 0.142495 0.787284 0.123283
H12   H     H_    0.884411 0.141182 0.785295 0.127813
H13   H     H_    0.769907 0.295108 0.652004 0.146694
H14   H     H_    0.887764 0.640127 0.355334 0.146845
H15   H     H_    0.542872 0.113195 0.275236 0.165313
H16   H     H_    0.544597 0.887957 0.274967 0.160086
H17   H     H_    0.336424 0.883637 0.715241 0.174145
N1    N     N_R   0.500790 0.500930 0.147930 -0.186382
N2    N     N_R   0.500790 0.500890 0.852020 -0.187436
O1    O     O_R   0.500000 0.319640 0.618810 -0.579062
O2    O     O_R   0.500010 0.319680 0.381230 -0.585648
O3    O     O_R   0.319640 0.499980 0.618820 -0.585927
O4    O     O_R   0.319650 0.500020 0.381230 -0.577630
O5    O     O_R   0.499990 0.680320 0.618770 -0.574025
O6    O     O_R   0.500000 0.680360 0.381190 -0.586687
O7    O     O_R   0.680350 0.499980 0.618770 -0.588122
O8    O     O_R   0.680360 0.500020 0.381180 -0.579803
N3    N     N_2   0.471740 0.121119 0.875413 -0.412962
H18   H     H_    0.414653 0.106335 0.960581 0.241305
C29   C     C_3   0.602709 0.112791 0.908367 -0.647538
H19   H     H_    0.621537 0.162324 0.008119 0.212028
H20   H     H_    0.658649 0.157827 0.825105 0.231661
H21   H     H_    0.631101 0.014821 0.920788 0.208088

loop_
_geom_bond_atom_site_label_1
_geom_bond_atom_site_label_2
_ccdc_geom_bond_type
C10   H16   S    
Cu2   O2    S    
C9    H15   S    
C14   H17   S    
Cu1   O7    S    
C1    C8    S    
C11   C13   A    
Cu2   O6    S    
C19   N2    A    
C11   C22   S    
C12   O4    A    
C21   H9    S    
C17   N1    A    
Cu1   O5    S    
C16   N1    A    
C7    C15   S    
C17   C18   A    
N3    H18   S    
C22   O6    A    
C7    C8    A    
C22   O5    A    
Cu1   N2    S    
C13   C14   S    
C20   C21   S    
C29   H20   S    
C20   H7    S    
C1    O2    A    
C23   O7    A    
C26   C27   A    
C16   C21   S    
C29   H21   S    
C6    C23   S    
C18   H5    S    
Cu2   N1    S    
C12   O3    A    
C5    H14   S    
C1    O1    A    
C2    C3    A    
Cu1   O1    S    
C16   C19   A    
C2    C24   A    
C5    C6    A    
C15   N3    S    
C4    H1    S    
C17   H4    S    
Cu1   Cu2   S    
C3    C4    A    
C20   H6    S    
Cu2   O8    S    
C27   H13   S    
C7    C13   A    
C14   H2    S    
C24   C25   A    
C26   H12   S    
Cu2   O4    S    
C10   C11   A    
C25   H11   S    
C27   C28   A    
C23   O8    A    
C14   C15   S    
C29   H19   S    
C2    C28   A    
C3    C12   S    
C24   H10   S    
C25   C26   A    
C4    C5    A    
N3    C29   S    
C15   H3    S    
C6    C28   A    
C21   H8    S    
C19   C20   S    
C18   N2    A    
C9    C10   A    
C8    C9    A    
Cu1   O3    S    
