data_mof_unit_18984.cif
_audit_creation_date              2012-12-10T17:33:14-0500
_audit_creation_method            fapswitch 2.2
_symmetry_space_group_name_H-M    P1
_symmetry_Int_Tables_number       1
_space_group_crystal_system       triclinic
_cell_length_a                    15.465129
_cell_length_b                    15.456363
_cell_length_c                    17.868223
_cell_angle_alpha                 91.10662
_cell_angle_beta                  110.079344
_cell_angle_gamma                 68.964689
_cell_volume                      3717.78587154

loop_
_atom_site_label
_atom_site_type_symbol
_atom_type_description
_atom_site_fract_x
_atom_site_fract_y
_atom_site_fract_z
_atom_type_partial_charge
Br1   Br    Br    0.850401 0.291655 0.989029 -0.266467
Br2   Br    Br    0.501695 0.956171 0.763301 -0.406242
Br3   Br    Br    0.516698 0.233026 0.282927 -0.381994
Br4   Br    Br    0.660659 0.163168 0.640098 -0.440605
Br5   Br    Br    0.227871 0.596180 0.629045 -0.501698
Br6   Br    Br    0.268068 0.765880 0.205884 -0.262059
C1    C     C_R   0.464433 0.740351 0.533276 0.507142
C2    C     C_R   0.581432 0.390825 0.076242 -0.083700
C3    C     C_R   0.649256 0.340980 0.040848 0.264386
C4    C     C_R   0.532759 0.260267 0.467307 0.562933
C5    C     C_R   0.635023 0.373045 0.962226 0.043900
C6    C     C_R   0.540051 0.439969 0.914865 -0.029381
C7    C     C_R   0.710148 0.342572 0.927985 0.217515
C8    C     C_R   0.685385 0.365411 0.846134 -0.078319
C9    C     C_R   0.515575 0.453664 0.831334 -0.118572
C10   C     C_R   0.487587 0.933932 0.654224 0.165660
C11   C     C_R   0.454973 0.835039 0.550219 0.009872
C12   C     C_R   0.324480 0.660423 0.154010 0.158803
C13   C     C_R   0.519837 0.150276 0.364017 0.163060
C14   C     C_R   0.497106 0.073642 0.337026 -0.071426
C15   C     C_R   0.485179 0.015483 0.387341 -0.122230
C16   C     C_R   0.758310 0.448034 0.532974 0.500822
C17   C     C_R   0.503174 0.028025 0.469158 0.009107
C18   C     C_R   0.536607 0.100883 0.499710 0.010610
C19   C     C_R   0.488774 0.970411 0.521374 0.010094
C20   C     C_R   0.505377 0.988064 0.602660 0.023113
C21   C     C_R   0.547354 0.053659 0.632705 -0.051534
C22   C     C_R   0.568917 0.105073 0.583791 0.157962
C23   C     C_R   0.462807 0.518679 0.159084 -0.135152
C24   C     C_R   0.462670 0.893004 0.496434 -0.108056
C25   C     C_R   0.463760 0.857356 0.627814 -0.066072
C26   C     C_R   0.536091 0.167030 0.445108 0.046701
C27   C     C_R   0.021166 0.407910 0.654304 -0.102190
C28   C     C_R   0.241544 0.549778 0.465257 0.596401
C29   C     C_R   0.862898 0.430542 0.550740 0.035707
C30   C     C_R   0.077795 0.577651 0.353530 0.196367
C31   C     C_R   0.986930 0.564501 0.327497 0.252091
C32   C     C_R   0.971057 0.507912 0.377506 0.181412
C33   C     C_R   0.018475 0.501686 0.461933 -0.046192
C34   C     C_R   0.436523 0.531106 0.075360 0.002294
C35   C     C_R   0.100303 0.531268 0.492307 -0.041933
C36   C     C_R   0.986631 0.468238 0.517357 0.070093
C37   C     C_R   0.047345 0.447595 0.599776 0.019470
C38   C     C_R   0.126843 0.476716 0.628529 -0.071351
C39   C     C_R   0.147409 0.525904 0.576991 0.185373
C40   C     C_R   0.561221 0.440228 0.712106 0.529776
C41   C     C_R   0.891238 0.464829 0.495126 -0.044888
C42   C     C_R   0.929696 0.398622 0.629599 -0.091889
C43   C     C_R   0.136192 0.559514 0.437358 -0.024561
C44   C     C_R   0.440520 0.559947 0.287139 0.550370
C45   C     C_R   0.348995 0.607892 0.030496 0.014440
C46   C     C_R   0.408919 0.581744 0.198966 -0.007140
C47   C     C_R   0.587655 0.417155 0.797609 0.010074
C48   C     C_R   0.288319 0.667735 0.069408 0.202603
C49   C     C_R   0.497559 0.471591 0.035657 0.011286
C50   C     C_R   0.473757 0.493134 0.952476 0.032685
C51   C     C_R   0.388383 0.571778 0.910530 -0.107519
C52   C     C_R   0.327497 0.626935 0.948402 -0.060352
H1    H     H_    0.267022 0.688694 0.912784 0.205342
H2    H     H_    0.068400 0.389929 0.717150 0.141855
H3    H     H_    0.835248 0.496927 0.437195 0.170259
H4    H     H_    0.742697 0.343170 0.820229 0.159452
H5    H     H_    0.528718 0.462468 0.195969 0.171484
H6    H     H_    0.368835 0.596060 0.848622 0.142432
H7    H     H_    0.595052 0.362780 0.135604 0.173164
H8    H     H_    0.104346 0.576487 0.155927 0.359959
H9    H     H_    0.928155 0.288111 0.369400 0.394112
H10   H     H_    0.842614 0.750772 0.159421 0.384812
H11   H     H_    0.816851 0.097601 0.060084 0.402060
H12   H     H_    0.458090 0.811569 0.669569 0.161113
H13   H     H_    0.083261 0.717043 0.076287 0.359257
H14   H     H_    0.570263 0.061313 0.696024 0.205825
H15   H     H_    0.457289 0.870169 0.438286 0.127262
H16   H     H_    0.460595 0.962031 0.359339 0.139238
H17   H     H_    0.482912 0.061757 0.274750 0.183001
H18   H     H_    0.907704 0.373561 0.673620 0.145047
H19   H     H_    0.441123 0.493503 0.790869 0.147080
H20   H     H_    0.167153 0.469291 0.692602 0.151793
O1    O     O_3   0.500000 0.500000 0.500000 -0.480363
O2    O     O_R   0.596500 0.492780 0.688380 -0.537511
O3    O     O_R   0.388780 0.611210 0.325000 -0.469643
O4    O     O_R   0.499860 0.410860 0.661600 -0.495687
O5    O     O_R   0.514860 0.485140 0.325020 -0.526151
O6    O     O_2   0.126635 0.693799 0.280734 -0.174098
O7    O     O_2   0.230969 0.527257 0.300809 -0.314543
O8    O     O_3   0.060616 0.583490 0.187019 -0.426265
O9    O     O_2   0.812864 0.462693 0.297444 -0.244836
O10   O     O_2   0.962256 0.390356 0.264890 -0.161206
O11   O     O_3   0.963494 0.327980 0.398330 -0.512711
O12   O     O_R   0.707110 0.418540 0.472990 -0.508819
O13   O     O_2   0.886654 0.564245 0.170775 -0.150181
O14   O     O_2   0.790740 0.650543 0.250696 -0.248472
O15   O     O_3   0.897974 0.723751 0.211345 -0.436601
O16   O     O_2   0.830252 0.241121 0.147239 -0.175792
O17   O     O_2   0.695552 0.191027 0.141838 -0.232933
O18   O     O_3   0.763749 0.155046 0.026538 -0.457790
O19   O     O_2   0.174423 0.837674 0.987640 -0.180368
O20   O     O_2   0.118269 0.710804 0.939417 -0.274932
O21   O     O_3   0.091766 0.775883 0.066798 -0.392800
O22   O     O_R   0.267620 0.606720 0.435250 -0.457227
O23   O     O_R   0.540230 0.674660 0.578090 -0.536960
O24   O     O_R   0.485030 0.300080 0.513670 -0.514561
O25   O     O_R   0.403610 0.721990 0.472930 -0.513746
O26   O     O_R   0.571130 0.303270 0.435320 -0.485183
O27   O     O_R   0.717650 0.497270 0.578120 -0.543942
O28   O     O_R   0.307610 0.477470 0.513630 -0.514353
S1    S     S_3+6 0.126413 0.596660 0.280264 0.101638
S2    S     S_3+6 0.924489 0.421904 0.331775 0.078312
S3    S     S_3+6 0.887327 0.625099 0.237442 0.140796
S4    S     S_3+6 0.737279 0.230178 0.092243 0.096482
S5    S     S_3+6 0.166373 0.749635 0.013033 0.080970
Zn1   Zn    Zn3+2 0.572030 0.427990 0.434470 1.036817
Zn2   Zn    Zn3+2 0.587090 0.540470 0.584680 0.977460
Zn3   Zn    Zn3+2 0.449010 0.423430 0.546420 1.030292
Zn4   Zn    Zn3+2 0.391880 0.608100 0.434430 1.079768

loop_
_geom_bond_atom_site_label_1
_geom_bond_atom_site_label_2
_ccdc_geom_bond_type
C49   C50   A    
C23   H5    S    
O1    Zn4   S    
O23   Zn2   S    
C42   H18   S    
O8    S1    S    
O12   Zn1   S    
H11   O18   S    
C29   C41   A    
C12   C46   A    
C33   C35   A    
C10   C25   A    
C16   C29   S    
C20   C21   A    
O1    Zn1   S    
O28   Zn3   S    
C9    C47   A    
O27   Zn2   S    
C30   C31   A    
C4    O26   A    
C32   C33   A    
O10   S2    D    
O14   S3    D    
C13   C26   A    
C8    H4    S    
H9    O11   S    
O6    S1    D    
C50   C51   A    
C40   C47   S    
C40   O4    A    
C25   H12   S    
O9    S2    D    
C13   C14   A    
C2    C3    A    
C1    C11   S    
C44   C46   S    
C17   C18   A    
Br3   C13   S    
Br2   C10   S    
C31   S3    S    
C2    H7    S    
C1    O25   A    
C7    C8    A    
C30   S1    S    
C11   C24   A    
O22   Zn4   S    
C29   C42   A    
C2    C49   A    
C35   C43   A    
Br4   C22   S    
C44   O5    A    
C33   C36   A    
C10   C20   A    
Br6   C12   S    
C28   O28   A    
C4    O24   A    
O4    Zn3   S    
O26   Zn1   S    
C24   H15   S    
C19   C20   A    
Br5   C39   S    
C15   H16   S    
O16   S4    D    
C14   H17   S    
C27   C37   A    
O25   Zn4   S    
C37   C38   A    
C18   C26   A    
C41   H3    S    
C31   C32   A    
O24   Zn3   S    
C28   O22   A    
C6    C9    A    
C34   C49   A    
O21   S5    S    
O3    Zn4   S    
C16   O12   A    
C45   C52   A    
C14   C15   A    
C3    C5    A    
C6    C50   A    
C27   H2    S    
O1    Zn2   S    
C11   C25   A    
Br1   C7    S    
C36   C37   A    
C16   O27   A    
C38   C39   A    
C51   H6    S    
C19   C24   A    
C28   C43   S    
O20   S5    D    
C18   C22   A    
O17   S4    D    
H8    O8    S    
C5    C6    A    
C3    S4    S    
C34   C45   A    
H10   O15   S    
C45   C48   A    
O13   S3    D    
C15   C17   A    
C52   H1    S    
C30   C43   A    
C40   O2    A    
C5    C7    A    
C51   C52   A    
C9    H19   S    
H13   O21   S    
O19   S5    D    
O11   S2    S    
C38   H20   S    
C48   S5    S    
C36   C41   A    
C17   C19   A    
C32   S2    S    
C12   C48   A    
C4    C26   S    
C8    C47   A    
O2    Zn2   S    
C1    O23   A    
O1    Zn3   S    
C21   C22   A    
O18   S4    S    
C27   C42   A    
C35   C39   A    
O5    Zn1   S    
C23   C34   A    
O7    S1    D    
C21   H14   S    
C44   O3    A    
O15   S3    S    
C23   C46   A    
