data_mof_unit_46229.cif
_audit_creation_date              2012-12-10T20:39:56-0500
_audit_creation_method            fapswitch 2.2
_symmetry_space_group_name_H-M    P1
_symmetry_Int_Tables_number       1
_space_group_crystal_system       triclinic
_cell_length_a                    22.851136
_cell_length_b                    10.694353
_cell_length_c                    9.857051
_cell_angle_alpha                 90.132658
_cell_angle_beta                  89.689936
_cell_angle_gamma                 90.010082
_cell_volume                      2408.80578013

loop_
_atom_site_label
_atom_site_type_symbol
_atom_type_description
_atom_site_fract_x
_atom_site_fract_y
_atom_site_fract_z
_atom_type_partial_charge
C1    C     C_R   0.501528 0.260091 0.500013 0.880447
C2    C     C_R   0.971988 0.622712 0.225179 0.156089
C3    C     C_R   0.033054 0.619987 0.231057 -0.199499
C4    C     C_R   0.062600 0.641072 0.352822 -0.041812
C5    C     C_R   0.031502 0.677133 0.470184 -0.057189
C6    C     C_R   0.061908 0.706502 0.591792 -0.032351
C7    C     C_R   0.029622 0.753366 0.705534 0.160380
C8    C     C_R   0.968375 0.752073 0.700583 -0.214398
C9    C     C_R   0.122810 0.622530 0.360704 0.498799
C10   C     C_R   0.122759 0.681964 0.594420 0.484748
C11   C     C_R   0.253375 0.685436 0.464411 -0.141109
C12   C     C_R   0.389043 0.501394 0.500132 0.872349
C13   C     C_R   0.311500 0.651520 0.469106 -0.274960
C14   C     C_R   0.327099 0.528674 0.499467 -0.088955
C15   C     C_R   0.284388 0.436183 0.525056 0.027194
C16   C     C_R   0.224482 0.471733 0.523020 0.122303
C17   C     C_R   0.210049 0.597439 0.491452 0.289511
C18   C     C_R   0.747756 0.673119 0.409229 -0.102578
C19   C     C_R   0.690251 0.632271 0.412333 -0.240693
C20   C     C_R   0.673421 0.532790 0.496778 -0.060277
C21   C     C_R   0.715245 0.473295 0.579933 0.060837
C22   C     C_R   0.773357 0.514979 0.574303 -0.138672
C23   C     C_R   0.500185 0.740004 0.500088 0.868149
C24   C     C_R   0.789496 0.614208 0.489409 0.292213
C25   C     C_R   0.503689 0.064232 0.623104 0.094416
C26   C     C_R   0.509034 0.128648 0.501183 -0.102311
C27   C     C_R   0.522603 0.064201 0.381203 -0.226743
C28   C     C_R   0.521289 0.934972 0.381148 -0.222663
C29   C     C_R   0.505851 0.871744 0.500725 -0.110229
C30   C     C_R   0.500744 0.937002 0.622626 0.090946
C31   C     C_3   0.455328 0.934662 0.733923 -0.097466
C32   C     C_3   0.459337 0.076949 0.734044 -0.509200
C33   C     C_R   0.465153 0.579518 0.072528 0.167889
C34   C     C_R   0.611309 0.501803 0.499506 0.853520
C35   C     C_R   0.538553 0.427094 0.071224 -0.121125
C36   C     C_R   0.538738 0.427745 0.927129 -0.144781
C37   C     C_R   0.462927 0.574758 0.930582 0.195562
C38   C     C_3   0.396590 0.580206 0.934895 -0.098116
C39   C     C_3   0.400834 0.593272 0.088490 -0.504572
C40   C     C_R   0.877848 0.695935 0.587662 0.509345
C41   C     C_R   0.878518 0.623977 0.358062 0.496236
C42   C     C_R   0.939508 0.643451 0.347182 -0.051883
C43   C     C_R   0.969842 0.678720 0.466888 -0.053419
C44   C     C_R   0.938588 0.710218 0.585424 -0.033569
H1    H     H_    0.658429 0.680072 0.349889 0.161156
H2    H     H_    0.806639 0.468403 0.633632 0.137331
H3    H     H_    0.530946 0.112852 0.286762 0.166763
H4    H     H_    0.529394 0.885587 0.286810 0.168729
H5    H     H_    0.472396 0.891753 0.828529 0.157406
H6    H     H_    0.419391 0.126483 0.699238 0.199315
H7    H     H_    0.478887 0.115122 0.828494 0.189748
H8    H     H_    0.568740 0.367376 0.124983 0.146297
H9    H     H_    0.057578 0.598647 0.139376 0.187294
H10   H     H_    0.568715 0.368343 0.871822 0.156572
H11   H     H_    0.379848 0.666996 0.888073 0.141752
H12   H     H_    0.388743 0.688021 0.125874 0.174763
H13   H     H_    0.380638 0.515527 0.146805 0.235506
H14   H     H_    0.943599 0.782501 0.788718 0.180798
H15   H     H_    0.241687 0.780741 0.439327 0.141076
H16   H     H_    0.344689 0.721416 0.448049 0.146859
H17   H     H_    0.760154 0.749554 0.343160 0.147809
N1    N     N_R   0.849760 0.648587 0.477229 -0.347237
N2    N     N_R   0.150518 0.636458 0.481705 -0.347577
N3    N     N_R   0.499610 0.499140 0.142800 -0.101040
N4    N     N_R   0.499610 0.499180 0.857150 -0.103519
O1    O     O_R   0.500010 0.316790 0.614690 -0.625155
O2    O     O_2   0.848235 0.574109 0.254293 -0.575895
O3    O     O_2   0.153374 0.585964 0.249881 -0.572609
O4    O     O_2   0.154106 0.698109 0.708399 -0.596812
O5    O     O_R   0.500000 0.316760 0.385350 -0.620329
O6    O     O_R   0.416160 0.499980 0.614700 -0.624381
O7    O     O_R   0.416150 0.499940 0.385360 -0.614771
O8    O     O_R   0.500000 0.683240 0.614650 -0.622155
O9    O     O_R   0.499990 0.683210 0.385310 -0.619704
O10   O     O_R   0.583850 0.500060 0.614640 -0.608661
O11   O     O_R   0.583840 0.500020 0.385300 -0.613510
O12   O     O_2   0.847046 0.725534 0.700519 -0.573853
Zn1   Zn    Zn3+2 0.500000 0.500020 0.653130 0.929356
Zn2   Zn    Zn3+2 0.500000 0.499980 0.346870 0.934740
C45   C     C_3   0.945089 0.606618 0.085733 -0.348011
C46   C     C_3   0.938478 0.468682 0.048301 -0.766016
H18   H     H_    0.982189 0.423574 0.041530 0.234310
H19   H     H_    0.911720 0.418334 0.124909 0.288389
H20   H     H_    0.916835 0.460525 0.948065 0.244247
H21   H     H_    0.903053 0.657362 0.076122 0.250790
H22   H     H_    0.973848 0.650759 0.008336 0.164708
C47   C     C_3   0.700868 0.362251 0.669059 -0.435945
C48   C     C_3   0.701856 0.398908 0.819581 -0.299775
C49   C     C_3   0.693323 0.284862 0.910444 -0.890671
H23   H     H_    0.652342 0.234764 0.884223 0.251449
H24   H     H_    0.730847 0.219671 0.898504 0.271036
H25   H     H_    0.690723 0.315169 0.018139 0.255968
H26   H     H_    0.744411 0.443167 0.845317 0.237387
H27   H     H_    0.666557 0.467868 0.840533 0.233785
H28   H     H_    0.657546 0.321575 0.643973 0.199297
H29   H     H_    0.733670 0.287436 0.649432 0.206093
C50   C     C_3   0.395053 0.883543 0.691242 -0.379781
C51   C     C_3   0.347528 0.916346 0.796341 -0.395039
C52   C     C_3   0.289175 0.855225 0.761291 -0.799523
H30   H     H_    0.273393 0.889900 0.661950 0.252850
H31   H     H_    0.293756 0.751885 0.757121 0.271731
H32   H     H_    0.256105 0.879237 0.840078 0.263398
H33   H     H_    0.361245 0.884899 0.898719 0.217469
H34   H     H_    0.340978 0.019200 0.800383 0.229367
H35   H     H_    0.382551 0.921032 0.590656 0.207350
H36   H     H_    0.398157 0.780350 0.681476 0.208499
C53   C     C_3   0.359486 0.464531 0.894213 -0.305300
C54   C     C_3   0.388773 0.337322 0.913649 -0.854783
H37   H     H_    0.424064 0.324052 0.837697 0.282888
H38   H     H_    0.406767 0.328016 0.017474 0.259321
H39   H     H_    0.355997 0.262077 0.897866 0.221814
H40   H     H_    0.318353 0.465713 0.955021 0.204448
H41   H     H_    0.344854 0.473475 0.788156 0.216276
C55   C     C_3   0.057210 0.807618 0.832899 -0.343607
C56   C     C_3   0.087643 0.932081 0.803875 -0.805735
H42   H     H_    0.122115 0.922309 0.724992 0.277435
H43   H     H_    0.055070 0.001819 0.768755 0.246363
H44   H     H_    0.108187 0.967769 0.898168 0.244034
H45   H     H_    0.023392 0.827158 0.911574 0.168088
H46   H     H_    0.087070 0.739815 0.881630 0.249202
C57   C     C_3   0.303435 0.300578 0.541259 -0.465989
C58   C     C_3   0.310939 0.239030 0.401391 -0.312871
C59   C     C_3   0.334613 0.106377 0.413332 -0.908464
H47   H     H_    0.378942 0.108300 0.458695 0.263123
H48   H     H_    0.304928 0.048543 0.476976 0.259332
H49   H     H_    0.337871 0.063301 0.310976 0.252982
H50   H     H_    0.268074 0.236077 0.348747 0.224095
H51   H     H_    0.341811 0.294447 0.338036 0.231753
H52   H     H_    0.345242 0.295533 0.597986 0.201032
H53   H     H_    0.272052 0.245749 0.603046 0.212564
C60   C     C_3   0.176151 0.377976 0.553322 -0.430560
C61   C     C_3   0.167425 0.362451 0.706880 -0.329363
C62   C     C_3   0.123896 0.258167 0.737958 -0.898514
H54   H     H_    0.080725 0.279352 0.692111 0.266953
H55   H     H_    0.140409 0.167893 0.697114 0.264226
H56   H     H_    0.118180 0.249257 0.849457 0.258402
H57   H     H_    0.209602 0.340589 0.757049 0.218208
H58   H     H_    0.150605 0.451119 0.751044 0.259897
H59   H     H_    0.133947 0.407543 0.508551 0.204292
H60   H     H_    0.185933 0.286806 0.504250 0.206676

loop_
_geom_bond_atom_site_label_1
_geom_bond_atom_site_label_2
_ccdc_geom_bond_type
C47   C48   S    
C21   C47   S    
C11   C13   A    
C41   C42   A    
C19   C20   A    
O11   Zn2   S    
C57   H53   S    
C10   N2    A    
C55   C56   S    
C59   H47   S    
C41   O2    S    
C13   H16   S    
C26   C27   A    
C37   C38   S    
C18   C24   A    
C23   C29   S    
C7    C55   S    
C28   C29   A    
C46   H18   S    
C31   H5    S    
O7    Zn2   S    
C30   C31   S    
C59   H48   S    
C61   H58   S    
C15   C16   A    
C39   H13   S    
C58   H50   S    
C40   N1    A    
C54   H37   S    
C18   C19   A    
C53   H40   S    
C38   C53   S    
C16   C60   S    
C53   H41   S    
C45   H22   S    
C60   H60   S    
C8    H14   S    
C28   H4    S    
C38   H11   S    
C31   C32   S    
C16   C17   A    
C56   H43   S    
C47   H28   S    
C62   H56   S    
C53   C54   S    
C35   N3    A    
C49   H24   S    
C29   C30   A    
C55   H45   S    
C34   O10   A    
C50   H35   S    
C25   C32   S    
C5    C43   A    
C21   C22   A    
C41   N1    A    
C23   O8    A    
C11   H15   S    
C46   H19   S    
C50   C51   S    
C38   C39   S    
O1    Zn1   S    
C48   H27   S    
C7    C8    A    
C36   H10   S    
C60   H59   S    
C36   N4    A    
C45   C46   S    
C59   H49   S    
C25   C26   A    
C33   C37   A    
C37   N4    A    
C35   C36   A    
C43   C44   A    
C32   H7    S    
C45   H21   S    
C62   H54   S    
C39   H12   S    
C4    C9    A    
O8    Zn1   S    
C56   H44   S    
C47   H29   S    
C1    O1    A    
C33   C39   S    
C20   C21   A    
C49   H25   S    
C32   H6    S    
C57   C58   S    
C50   H36   S    
C52   H31   S    
C12   O6    A    
C12   C14   S    
O9    Zn2   S    
C1    C26   S    
N3    Zn2   S    
C22   C24   A    
C42   C43   A    
C23   O9    A    
C3    C4    A    
C35   H8    S    
C46   H20   S    
C27   H3    S    
C25   C30   A    
C48   H26   S    
C11   C17   A    
C24   N1    S    
N4    Zn1   S    
C15   C57   S    
C22   H2    S    
O5    Zn2   S    
C9    N2    A    
C8    C44   A    
C57   H52   S    
C4    C5    A    
C6    C10   A    
C19   H1    S    
C18   H17   S    
C58   C59   S    
C6    C7    A    
C1    O5    A    
C54   H39   S    
C2    C3    A    
C61   H57   S    
C9    O3    S    
C20   C34   S    
C52   H30   S    
C17   N2    S    
C3    H9    S    
C40   O12   S    
C56   H42   S    
C5    C6    A    
C2    C42   A    
C33   N3    A    
C51   H34   S    
C54   H38   S    
C61   C62   S    
C31   C50   S    
C58   H51   S    
C60   C61   S    
C12   O7    A    
O10   Zn1   S    
C2    C45   S    
C10   O4    S    
C40   C44   A    
C52   H32   S    
C48   C49   S    
C51   C52   S    
C27   C28   A    
C62   H55   S    
C14   C15   A    
C49   H23   S    
C13   C14   A    
O6    Zn1   S    
C55   H46   S    
C51   H33   S    
C34   O11   A    
