data_mof_unit_40526.cif
_audit_creation_date              2012-12-11T15:37:08-0500
_audit_creation_method            fapswitch 2.2
_symmetry_space_group_name_H-M    P1
_symmetry_Int_Tables_number       1
_space_group_crystal_system       triclinic
_cell_length_a                    15.046295
_cell_length_b                    15.071911
_cell_length_c                    34.800988
_cell_angle_alpha                 91.563171
_cell_angle_beta                  91.604334
_cell_angle_gamma                 60.161252
_cell_volume                      6842.29410655

loop_
_atom_site_label
_atom_site_type_symbol
_atom_type_description
_atom_site_fract_x
_atom_site_fract_y
_atom_site_fract_z
_atom_type_partial_charge
C1    C     C_R   0.611118 0.302343 0.443871 0.549809
C2    C     C_R   0.594344 0.101912 0.763474 -0.115641
C3    C     C_R   0.070116 0.778018 0.882215 -0.175723
C4    C     C_R   0.088568 0.771682 0.843030 -0.146022
C5    C     C_R   0.097879 0.688272 0.821249 -0.018001
C6    C     C_R   0.094529 0.608228 0.839494 -0.092647
C7    C     C_R   0.078120 0.612689 0.879016 0.269061
C8    C     C_R   0.182711 0.596426 0.761138 -0.123897
C9    C     C_R   0.191383 0.592478 0.721437 -0.085642
C10   C     C_R   0.124768 0.677060 0.699102 0.056566
C11   C     C_R   0.051211 0.767173 0.717186 -0.124295
C12   C     C_R   0.042868 0.771425 0.757153 -0.116412
C13   C     C_R   0.595655 0.174294 0.789562 0.028836
C14   C     C_R   0.640127 0.742772 0.160155 -0.171845
C15   C     C_R   0.108259 0.685684 0.779297 0.027571
C16   C     C_R   0.162389 0.740767 0.640130 -0.183520
C17   C     C_R   0.208924 0.717990 0.604331 -0.149318
C18   C     C_R   0.190892 0.567153 0.599308 -0.114232
C19   C     C_R   0.149995 0.585827 0.636230 0.276532
C20   C     C_R   0.139578 0.671345 0.657310 0.040973
C21   C     C_R   0.228434 0.627915 0.584652 -0.021359
C22   C     C_R   0.672985 0.080157 0.906506 0.022143
C23   C     C_R   0.597460 0.066806 0.886934 -0.134090
C24   C     C_R   0.544259 0.201694 0.641552 -0.126071
C25   C     C_R   0.567570 0.102356 0.849459 -0.129241
C26   C     C_3   0.490757 0.799771 0.092684 -0.000943
C27   C     C_3   0.396321 0.882073 0.072025 -0.362979
C28   C     C_3   0.997888 0.521868 0.168929 0.007567
C29   C     C_3   0.062049 0.423195 0.145695 -0.262130
C30   C     C_3   0.164602 0.411655 0.134566 -0.486422
C31   C     C_3   0.971293 0.850778 0.190036 0.004456
C32   C     C_3   0.876529 0.884477 0.163676 -0.283634
C33   C     C_3   0.791575 0.878270 0.184040 -0.481952
C34   C     C_3   0.530994 0.433654 0.186085 0.006657
C35   C     C_R   0.819468 0.609498 0.158622 0.259985
C36   C     C_3   0.507847 0.517615 0.216503 -0.269246
C37   C     C_3   0.508169 0.609392 0.199191 -0.483903
C38   C     C_3   0.918564 0.091909 0.340240 -0.003326
C39   C     C_3   0.995674 0.065489 0.308379 -0.379568
C40   C     C_3   0.858799 0.086798 0.429242 -0.013990
C41   C     C_3   0.825111 0.091273 0.470747 -0.242116
C42   C     C_3   0.885583 0.987290 0.489842 -0.487433
C43   C     C_3   0.404029 0.707923 0.738888 -0.023958
C44   C     C_3   0.320138 0.741317 0.708431 -0.369213
C45   C     C_3   0.814064 0.402247 0.850711 -0.010169
C46   C     C_R   0.547144 0.224226 0.603102 -0.129182
C47   C     C_3   0.898620 0.305117 0.832334 -0.369641
C48   C     C_3   0.162789 0.463404 0.912235 0.026602
C49   C     C_3   0.224901 0.375380 0.883953 -0.277742
C50   C     C_3   0.321623 0.290994 0.903070 -0.482718
C51   C     C_3   0.193696 0.419877 0.652267 -0.002555
C52   C     C_3   0.159817 0.356063 0.627593 -0.255692
C53   C     C_3   0.242501 0.243400 0.626779 -0.490375
C54   C     C_R   0.692265 0.248387 0.617746 -0.123939
C55   C     C_R   0.688405 0.227239 0.656201 -0.118732
C56   C     C_R   0.612337 0.207077 0.668566 0.030590
C57   C     C_R   0.618969 0.251295 0.591130 0.023086
C58   C     C_R   0.047530 0.738425 0.047590 0.531653
C59   C     C_R   0.728309 0.668421 0.178928 -0.014537
C60   C     C_R   0.746006 0.745741 0.063607 0.554480
C61   C     C_R   0.750732 0.041095 0.050713 0.535567
C62   C     C_R   0.015996 0.722662 0.939273 0.551474
C63   C     C_R   0.717590 0.729764 0.954877 0.541103
C64   C     C_R   0.821005 0.630245 0.119468 -0.179137
C65   C     C_R   0.721395 0.024615 0.942155 0.542786
C66   C     C_R   0.752176 0.567433 0.237773 -0.072714
C67   C     C_R   0.744843 0.563040 0.277409 -0.122459
C68   C     C_R   0.711956 0.651729 0.300413 0.027079
C69   C     C_R   0.688793 0.744096 0.283340 -0.120270
C70   C     C_R   0.612136 0.152457 0.831199 0.033350
C71   C     C_R   0.694809 0.748670 0.243786 -0.133012
C72   C     C_R   0.726015 0.660630 0.220769 0.054519
C73   C     C_R   0.600183 0.728068 0.357041 -0.122860
C74   C     C_R   0.593584 0.609934 0.449504 0.544258
C75   C     C_R   0.571692 0.718747 0.393698 -0.127243
C76   C     C_R   0.729147 0.556552 0.400604 -0.119798
C77   C     C_R   0.757777 0.566099 0.363945 -0.115668
C78   C     C_R   0.691651 0.650022 0.341373 0.029484
C79   C     C_R   0.633909 0.630842 0.415106 0.019176
C80   C     C_R   0.108058 0.728803 0.082498 -0.022986
C81   C     C_R   0.682097 0.172045 0.851986 -0.122760
C82   C     C_R   0.190541 0.634204 0.093463 -0.162623
C83   C     C_R   0.230447 0.621178 0.130925 -0.184867
C84   C     C_R   0.184781 0.701044 0.158200 0.018671
C85   C     C_R   0.101490 0.796069 0.147011 0.276157
C86   C     C_R   0.306379 0.589610 0.441827 0.539749
C87   C     C_R   0.069395 0.811337 0.108601 -0.108277
C88   C     C_R   0.237508 0.742241 0.221954 -0.086594
C89   C     C_R   0.247451 0.730803 0.261835 -0.127207
C90   C     C_R   0.228174 0.659274 0.279588 0.023524
C91   C     C_R   0.201846 0.597706 0.256274 -0.117921
C92   C     C_R   0.712145 0.136301 0.889202 -0.129209
C93   C     C_R   0.195797 0.606660 0.216548 -0.126132
C94   C     C_R   0.211380 0.680214 0.199188 0.037512
C95   C     C_R   0.268886 0.549906 0.337401 -0.122622
C96   C     C_R   0.281553 0.535159 0.376762 -0.120111
C97   C     C_R   0.234633 0.712522 0.387054 -0.133109
C98   C     C_R   0.605275 0.300870 0.553788 0.533958
C99   C     C_R   0.218073 0.728420 0.347404 -0.120592
C100  C     C_R   0.237620 0.646410 0.321987 0.034933
C101  C     C_R   0.267830 0.615194 0.401971 0.024981
C102  C     C_R   0.719494 0.106109 0.085877 0.008332
C103  C     C_R   0.593503 0.261606 0.775212 -0.121454
C104  C     C_R   0.786278 0.134991 0.103871 -0.139846
C105  C     C_R   0.767418 0.176186 0.141153 -0.144107
C106  C     C_R   0.680998 0.190268 0.160755 0.034703
C107  C     C_R   0.609541 0.170265 0.141618 -0.095550
C108  C     C_R   0.628664 0.128337 0.104467 -0.137466
C109  C     C_R   0.590429 0.287390 0.220971 0.276572
C110  C     C_R   0.587569 0.606686 0.559072 0.543211
C111  C     C_R   0.584649 0.290078 0.261219 -0.093893
C112  C     C_R   0.662878 0.212542 0.283541 0.020180
C113  C     C_R   0.746087 0.131563 0.264973 -0.100551
C114  C     C_R   0.596754 0.272974 0.735770 -0.118528
C115  C     C_R   0.754145 0.130163 0.225280 -0.175284
C116  C     C_R   0.675858 0.205838 0.202815 0.021290
C117  C     C_R   0.743685 0.194833 0.349623 0.285899
C118  C     C_R   0.732538 0.205657 0.390145 0.278679
C119  C     C_R   0.551601 0.259637 0.382551 -0.199498
C120  C     C_R   0.563888 0.241464 0.343160 -0.197547
C121  C     C_R   0.657324 0.215268 0.326107 0.000806
C122  C     C_R   0.296261 0.589892 0.551284 0.548983
C123  C     C_R   0.633476 0.248913 0.405986 -0.014174
C124  C     C_R   0.694414 0.688347 0.919530 -0.029022
C125  C     C_R   0.600746 0.198046 0.709922 0.023225
C126  C     C_R   0.770257 0.595150 0.903559 -0.093156
C127  C     C_R   0.761633 0.568133 0.865457 0.271620
C128  C     C_R   0.677433 0.636352 0.842667 0.026213
C129  C     C_R   0.597085 0.724142 0.859725 -0.174047
C130  C     C_R   0.605296 0.749845 0.897903 -0.150815
C131  C     C_R   0.589852 0.629176 0.782092 -0.131928
C132  C     C_R   0.581052 0.631686 0.741694 0.278249
C133  C     C_R   0.662757 0.623353 0.719969 0.034751
C134  C     C_R   0.734903 0.710943 0.101485 -0.024244
C135  C     C_R   0.751542 0.611893 0.738655 -0.182113
C136  C     C_R   0.596226 0.114086 0.723912 -0.119883
C137  C     C_R   0.757962 0.612550 0.778708 -0.094527
C138  C     C_R   0.676408 0.622763 0.800599 0.002908
C139  C     C_R   0.726178 0.547256 0.654985 -0.118071
C140  C     C_R   0.708875 0.544305 0.615448 -0.125579
C141  C     C_R   0.552379 0.707902 0.620370 -0.127988
C142  C     C_R   0.569692 0.710589 0.659860 -0.079422
C143  C     C_R   0.654298 0.628260 0.677632 0.065035
C144  C     C_R   0.619481 0.622591 0.598017 0.020215
C145  C     C_R   0.060072 0.701228 0.900417 0.012768
C146  C     C_R   0.641886 0.763106 0.121486 0.242217
Cr1   Cr    Cr6+3 0.426010 0.422500 0.497000 1.003092
Cr2   Cr    Cr6+3 0.651300 0.426310 0.501970 1.021406
Cr3   Cr    Cr6+3 0.422670 0.651170 0.501050 1.009011
Cr4   Cr    Cr6+3 0.905130 0.911420 0.992650 1.002710
Cr5   Cr    Cr6+3 0.911860 0.682710 0.002320 1.012307
Cr6   Cr    Cr6+3 0.682710 0.906840 0.004710 1.021294
H1    H     H_    0.497974 0.777282 0.404184 0.128873
H2    H     H_    0.890380 0.586370 0.103339 0.133403
H3    H     H_    0.968559 0.962536 0.491081 0.144848
H4    H     H_    0.405684 0.777547 0.749658 0.110222
H5    H     H_    0.384625 0.673129 0.762698 0.137062
H6    H     H_    0.319892 0.672937 0.695954 0.180994
H7    H     H_    0.244623 0.793343 0.721424 0.098896
H8    H     H_    0.333925 0.781873 0.685187 0.140597
H9    H     H_    0.741474 0.424471 0.834294 0.127705
H10   H     H_    0.805466 0.385343 0.880925 0.119946
H11   H     H_    0.972111 0.279917 0.848269 0.157065
H12   H     H_    0.878700 0.243446 0.833066 0.084503
H13   H     H_    0.172885 0.560272 0.199426 0.094676
H14   H     H_    0.907896 0.319333 0.801949 0.159250
H15   H     H_    0.145191 0.431813 0.937553 0.157653
H16   H     H_    0.209582 0.497679 0.923403 0.107905
H17   H     H_    0.176962 0.342772 0.872934 0.178732
H18   H     H_    0.247498 0.404425 0.859215 0.148444
H19   H     H_    0.372540 0.320997 0.913086 0.153746
H20   H     H_    0.363541 0.227890 0.882000 0.151707
H21   H     H_    0.301593 0.259941 0.927905 0.141762
H22   H     H_    0.203751 0.393572 0.682412 0.145416
H23   H     H_    0.270587 0.405109 0.643184 0.115300
H24   H     H_    0.288085 0.483802 0.319120 0.098798
H25   H     H_    0.088544 0.363504 0.639465 0.170200
H26   H     H_    0.142967 0.384767 0.597719 0.161406
H27   H     H_    0.313162 0.233954 0.613605 0.142187
H28   H     H_    0.214821 0.198870 0.609370 0.144600
H29   H     H_    0.260706 0.212703 0.656377 0.141787
H30   H     H_    0.309080 0.458566 0.387114 0.125964
H31   H     H_    0.224156 0.775337 0.405860 0.110198
H32   H     H_    0.856743 0.119068 0.090324 0.134501
H33   H     H_    0.575380 0.107544 0.091292 0.136507
H34   H     H_    0.498132 0.254077 0.325604 0.122045
H35   H     H_    0.518837 0.352854 0.274955 0.117871
H36   H     H_    0.829547 0.505947 0.352630 0.117138
H37   H     H_    0.779116 0.488392 0.416687 0.141817
H38   H     H_    0.823611 0.190776 0.155671 0.120377
H39   H     H_    0.803763 0.067693 0.281102 0.123845
H40   H     H_    0.819743 0.067064 0.211849 0.124840
H41   H     H_    0.543024 0.179624 0.156477 0.139032
H42   H     H_    0.475816 0.289339 0.394175 0.140746
H43   H     H_    0.839361 0.545752 0.919780 0.156655
H44   H     H_    0.545546 0.821912 0.909407 0.134302
H45   H     H_    0.514508 0.774790 0.676886 0.112970
H46   H     H_    0.760793 0.491380 0.289835 0.119886
H47   H     H_    0.529213 0.633073 0.799336 0.088815
H48   H     H_    0.220843 0.569556 0.073617 0.122426
H49   H     H_    0.814496 0.605724 0.722200 0.128162
H50   H     H_    0.825184 0.608467 0.792621 0.162111
H51   H     H_    0.792323 0.483428 0.668209 0.105029
H52   H     H_    0.762256 0.477625 0.599024 0.122570
H53   H     H_    0.531147 0.776777 0.842707 0.107765
H54   H     H_    0.483088 0.769594 0.607869 0.121140
H55   H     H_    0.058641 0.845945 0.897851 0.135561
H56   H     H_    0.774726 0.499204 0.220282 0.141209
H57   H     H_    0.251987 0.523940 0.708176 0.109232
H58   H     H_    0.235152 0.530285 0.777753 0.097333
H59   H     H_    0.004239 0.884290 0.100634 0.136748
H60   H     H_    0.092949 0.833266 0.829512 0.112747
H61   H     H_    0.000422 0.833626 0.700417 0.106885
H62   H     H_    0.984561 0.840969 0.770743 0.112284
H63   H     H_    0.152848 0.807816 0.655869 0.108230
H64   H     H_    0.234645 0.767620 0.593159 0.132214
H65   H     H_    0.100868 0.543653 0.822795 0.123795
H66   H     H_    0.569856 0.787282 0.175915 0.126026
H67   H     H_    0.199267 0.501178 0.583147 0.129902
H68   H     H_    0.565989 0.023785 0.899646 0.123201
H69   H     H_    0.770094 0.148212 0.903711 0.121338
H70   H     H_    0.191717 0.804420 0.336740 0.094249
H71   H     H_    0.742616 0.230158 0.676620 0.105450
H72   H     H_    0.597770 0.339606 0.725407 0.128361
H73   H     H_    0.592407 0.319674 0.794542 0.100013
H74   H     H_    0.512341 0.087541 0.834299 0.096333
H75   H     H_    0.598905 0.055709 0.704338 0.104982
H76   H     H_    0.597363 0.033174 0.773615 0.104641
H77   H     H_    0.485281 0.185904 0.650601 0.098603
H78   H     H_    0.663921 0.813228 0.300505 0.102807
H79   H     H_    0.489607 0.226001 0.583224 0.116677
H80   H     H_    0.718848 0.209302 0.838702 0.096246
H81   H     H_    0.270222 0.777932 0.278587 0.099676
H82   H     H_    0.748187 0.269351 0.609500 0.124992
H83   H     H_    0.673793 0.821413 0.231074 0.105461
H84   H     H_    0.547376 0.793204 0.340077 0.102265
H85   H     H_    0.465012 0.775015 0.117932 0.118272
H86   H     H_    0.531455 0.733668 0.072416 0.124898
H87   H     H_    0.419391 0.907383 0.046321 0.160699
H88   H     H_    0.345649 0.851217 0.062708 0.093844
H89   H     H_    0.353287 0.948772 0.091604 0.154837
H90   H     H_    0.038718 0.516065 0.196635 0.146063
H91   H     H_    0.991755 0.589821 0.154385 0.118159
H92   H     H_    0.249126 0.799983 0.208860 0.126290
H93   H     H_    0.076224 0.356511 0.163113 0.173262
H94   H     H_    0.019633 0.422671 0.119148 0.160894
H95   H     H_    0.151874 0.476414 0.116405 0.160709
H96   H     H_    0.208905 0.339369 0.117887 0.147423
H97   H     H_    0.210017 0.409109 0.160633 0.153005
H98   H     H_    0.947357 0.893832 0.217726 0.146903
H99   H     H_    0.003639 0.768828 0.197354 0.131915
H100  H     H_    0.847781 0.963894 0.154214 0.186650
H101  H     H_    0.896881 0.833801 0.137815 0.154041
H102  H     H_    0.819720 0.798457 0.193060 0.157213
H103  H     H_    0.292146 0.546767 0.139395 0.128084
H104  H     H_    0.724911 0.901546 0.164133 0.171722
H105  H     H_    0.766345 0.929698 0.209723 0.144916
H106  H     H_    0.481017 0.468815 0.160451 0.152361
H107  H     H_    0.611471 0.399934 0.176184 0.125553
H108  H     H_    0.431669 0.543063 0.229048 0.195798
H109  H     H_    0.566568 0.486637 0.239962 0.154769
H110  H     H_    0.582551 0.584856 0.185288 0.149599
H111  H     H_    0.496529 0.666524 0.222196 0.155175
H112  H     H_    0.445389 0.646022 0.177434 0.142590
H113  H     H_    0.901967 0.027880 0.342469 0.092031
H114  H     H_    0.183031 0.544096 0.268578 0.103864
H115  H     H_    0.956089 0.098849 0.367074 0.174876
H116  H     H_    0.015723 0.126823 0.306224 0.164902
H117  H     H_    0.066503 0.992379 0.314910 0.085844
H118  H     H_    0.963903 0.056924 0.280285 0.155226
H119  H     H_    0.943420 0.052800 0.429601 0.134861
H120  H     H_    0.842174 0.033413 0.411649 0.092573
H121  H     H_    0.837102 0.148166 0.487675 0.196657
H122  H     H_    0.742616 0.114598 0.471063 0.150132
H123  H     H_    0.874248 0.929111 0.473592 0.149344
H124  H     H_    0.858481 0.992860 0.519636 0.151664
O1    O     O_R   0.324990 0.503440 0.453910 -0.522960
O2    O     O_R   0.675430 0.831160 0.051290 -0.455696
O3    O     O_R   0.698870 0.998880 0.039560 -0.498561
O4    O     O_R   0.522030 0.339050 0.458320 -0.514906
O5    O     O_R   0.811290 0.006780 0.950620 -0.517590
O6    O     O_R   0.980960 0.812920 0.953200 -0.510706
O7    O     O_R   0.001480 0.656720 0.955830 -0.474532
O8    O     O_R   0.809240 0.683250 0.968050 -0.496888
O9    O     O_R   0.652500 0.818540 0.967340 -0.522718
O10   O     O_R   0.677620 0.987170 0.961730 -0.503410
O11   O     O_3   0.833240 0.833660 0.999890 -0.239495
O12   O     O_R   0.639980 0.519500 0.542640 -0.503115
O13   O     O_R   0.676180 0.324490 0.458320 -0.464745
O14   O     O_R   0.643570 0.521510 0.464260 -0.498894
O15   O     O_R   0.504630 0.675350 0.460920 -0.520226
O16   O     O_R   0.339850 0.642450 0.459830 -0.499563
O17   O     O_R   0.321120 0.501280 0.538470 -0.521448
O18   O     O_R   0.518440 0.337050 0.536710 -0.500723
O19   O     O_R   0.672300 0.322330 0.542880 -0.531039
O20   O     O_3   0.554262 0.840130 0.104420 -0.533960
O21   O     O_3   0.902632 0.530301 0.177679 -0.575055
O22   O     O_3   0.044467 0.871629 0.173804 -0.580770
O23   O     O_R   0.500750 0.673190 0.545480 -0.519311
O24   O     O_3   0.508120 0.359907 0.199858 -0.586363
O25   O     O_3   0.829835 0.186543 0.332288 -0.542816
O26   O     O_3   0.815867 0.186324 0.413675 -0.548984
O27   O     O_3   0.497639 0.634429 0.722423 -0.559450
O28   O     O_3   0.840701 0.479694 0.849782 -0.553076
O29   O     O_3   0.068170 0.535389 0.895222 -0.543414
O30   O     O_3   0.115899 0.524271 0.651781 -0.568908
O31   O     O_R   0.336260 0.640450 0.538210 -0.497613
O32   O     O_3   0.499990 0.499990 0.500010 -0.235926
O33   O     O_R   0.834210 0.019400 0.034570 -0.522896
O34   O     O_R   0.002210 0.824620 0.031030 -0.504371
O35   O     O_R   0.024400 0.669340 0.039790 -0.519506
O36   O     O_R   0.830490 0.694950 0.045870 -0.519453

loop_
_geom_bond_atom_site_label_1
_geom_bond_atom_site_label_2
_ccdc_geom_bond_type
C126  C127  A    
Cr3   O15   S    
C18   C21   A    
C46   H79   S    
C19   C20   A    
C76   C79   A    
C12   H62   S    
C2    H76   S    
C13   C70   S    
C14   C59   A    
C30   H96   S    
C5    C6    A    
Cr6   O10   S    
C137  H50   S    
C118  O26   S    
C86   O1    A    
C45   H9    S    
C141  H54   S    
C33   H102  S    
C126  H43   S    
C66   C72   A    
C10   C20   S    
C62   C145  S    
C32   H101  S    
C50   H19   S    
C13   C103  A    
C39   H118  S    
C42   H124  S    
C99   H70   S    
C73   C75   A    
C19   O30   S    
C28   H90   S    
C113  H39   S    
C104  C105  A    
Cr1   O1    S    
C27   H88   S    
C97   H31   S    
C45   C47   S    
C134  C146  A    
C64   C134  A    
C51   C52   S    
C140  C144  A    
C62   O7    A    
C24   H77   S    
C141  C144  A    
C146  O20   S    
C17   C21   A    
C16   H63   S    
C43   C44   S    
C6    H65   S    
C16   C20   A    
C31   H99   S    
C122  O17   A    
C47   H12   S    
C74   C79   S    
C24   C56   A    
C43   H4    S    
C60   C134  S    
C41   H121  S    
C135  C137  A    
C92   H69   S    
C4    C5    A    
Cr5   O11   S    
C60   O36   A    
C139  C140  A    
C6    C7    A    
C119  C123  A    
C103  H73   S    
C3    H55   S    
C36   H109  S    
C24   C46   A    
C131  C138  A    
C124  C130  A    
C26   H85   S    
C74   O15   A    
C5    C15   S    
C63   O9    A    
Cr3   O31   S    
C34   O24   S    
C88   C89   A    
C106  C107  A    
C33   H105  S    
C133  C135  A    
C44   H7    S    
C22   C23   A    
C14   H66   S    
C75   C79   A    
C113  C115  A    
Cr5   O35   S    
C29   H94   S    
C98   O19   A    
C58   O34   A    
C67   H46   S    
C128  C129  A    
Cr6   O9    S    
C63   C124  S    
C135  H49   S    
C36   C37   S    
Cr5   O7    S    
C109  C111  A    
C49   H18   S    
C45   O28   S    
C115  C116  A    
C89   H81   S    
C128  C138  S    
C52   H25   S    
C73   H84   S    
C81   C92   A    
C139  C143  A    
C31   C32   S    
C132  O27   S    
C107  C108  A    
C71   H83   S    
C9    C10   A    
C66   C67   A    
Cr4   O34   S    
C26   O20   S    
C8    H58   S    
C53   H27   S    
C63   O8    A    
C40   H120  S    
C88   C94   A    
C103  C114  A    
C80   C82   A    
C127  O28   S    
C16   C17   A    
Cr1   O32   S    
Cr4   O5    S    
C51   H22   S    
C38   H115  S    
C22   C65   S    
C29   C30   S    
Cr6   O3    S    
C75   H1    S    
C83   C84   A    
Cr2   O14   S    
C3    C145  A    
Cr2   O12   S    
C142  H45   S    
C54   H82   S    
C3    C4    A    
C120  C121  A    
C124  C126  A    
C129  C130  A    
Cr2   O19   S    
C54   C55   A    
C87   H59   S    
C43   H5    S    
C127  C128  A    
Cr1   O18   S    
C30   H97   S    
C106  C116  S    
C37   H112  S    
C71   C72   A    
C117  C118  A    
C48   H15   S    
C34   C36   S    
C36   H108  S    
C10   C11   A    
C85   O22   S    
C7    O29   S    
C49   C50   S    
C77   H36   S    
C22   C92   A    
C50   H20   S    
C114  H72   S    
C39   H117  S    
C7    C145  A    
C54   C57   A    
C55   C56   A    
C44   H6    S    
C41   C42   S    
Cr1   O4    S    
C27   H87   S    
C77   C78   A    
C52   C53   S    
C26   C27   S    
C50   H21   S    
C40   O26   S    
C28   C29   S    
C38   H113  S    
C130  H44   S    
C34   H106  S    
C35   C59   A    
C18   C19   A    
C21   C122  S    
C109  C116  A    
C111  C112  A    
C68   C69   A    
C17   H64   S    
C58   C80   S    
C59   C72   S    
C47   H11   S    
Cr3   O16   S    
C60   O2    A    
C96   C101  A    
C61   O3    A    
C27   H89   S    
C68   C78   S    
C30   H95   S    
C67   C68   A    
C108  H33   S    
C84   C85   A    
C47   H14   S    
C39   H116  S    
Cr3   O23   S    
C43   O27   S    
C83   H103  S    
C65   O10   A    
C95   H24   S    
C1    C123  S    
C31   O22   S    
C91   C93   A    
C51   O30   S    
C66   H56   S    
C26   H86   S    
C12   C15   A    
C110  O23   A    
C84   C94   S    
C56   C125  S    
C51   H23   S    
Cr6   O2    S    
C11   H61   S    
C115  H40   S    
C125  C136  A    
C48   C49   S    
C104  H32   S    
C136  H75   S    
C8    C15   A    
C44   H8    S    
C131  C132  A    
C55   H71   S    
C14   C146  A    
C23   H68   S    
C48   O29   S    
C38   O25   S    
C95   C100  A    
C29   H93   S    
C105  H38   S    
C33   H104  S    
C62   O6    A    
C96   H30   S    
C58   O35   A    
C88   H92   S    
C119  C120  A    
C105  C106  A    
C111  H35   S    
C32   C33   S    
C140  H52   S    
C42   H3    S    
C139  H51   S    
C49   H17   S    
C90   C91   A    
C38   C39   S    
C57   C98   S    
C118  C123  A    
C52   H26   S    
C112  C121  S    
C82   C83   A    
C117  O25   S    
C142  C143  A    
C65   O5    A    
C25   C70   A    
C89   C90   A    
C69   H78   S    
C41   H122  S    
C93   C94   A    
C95   C96   A    
C45   H10   S    
Cr6   O11   S    
Cr2   O32   S    
C80   C87   A    
C64   H2    S    
C25   H74   S    
C129  H53   S    
C69   C71   A    
Cr4   O6    S    
C74   O14   A    
C2    C13   A    
C117  C121  A    
C76   H37   S    
C37   H110  S    
Cr3   O32   S    
C9    H57   S    
C8    C9    A    
C81   H80   S    
C73   C78   A    
C109  O24   S    
C102  C108  A    
C35   C64   A    
C28   H91   S    
C91   H114  S    
C93   H13   S    
Cr5   O36   S    
C98   O18   A    
C18   H67   S    
C90   C100  S    
C112  C113  A    
C97   C99   A    
C85   C87   A    
C35   O21   S    
C133  C143  S    
C86   O16   A    
C1    O13   A    
C76   C77   A    
C1    O4    A    
C114  C125  A    
C132  C133  A    
Cr1   O17   S    
C2    C136  A    
C31   H98   S    
C131  H47   S    
C37   H111  S    
C82   H48   S    
C53   H29   S    
C61   O33   A    
C99   C100  A    
C48   H16   S    
C102  C104  A    
C40   C41   S    
Cr4   O33   S    
C46   C57   A    
C122  O31   A    
Cr4   O11   S    
C42   H123  S    
C53   H28   S    
C28   O21   S    
C107  H41   S    
C40   H119  S    
C120  H34   S    
C11   C12   A    
C137  C138  A    
C32   H100  S    
Cr5   O8    S    
C4    H60   S    
C119  H42   S    
C61   C102  S    
C141  C142  A    
Cr2   O13   S    
C34   H107  S    
C23   C25   A    
C110  O12   A    
C70   C81   A    
C86   C101  S    
C97   C101  A    
C110  C144  S    
