data_mof_unit_67224.cif
_audit_creation_date              2013-03-05T16:01:25-0500
_audit_creation_method            fapswitch 2.2
_symmetry_space_group_name_H-M    P1
_symmetry_Int_Tables_number       1
_space_group_crystal_system       triclinic
_cell_length_a                    20.208912
_cell_length_b                    20.227433
_cell_length_c                    8.53043
_cell_angle_alpha                 89.953254
_cell_angle_beta                  91.566888
_cell_angle_gamma                 90.416693
_cell_volume                      3485.62482197

loop_
_atom_site_label
_atom_site_type_symbol
_atom_site_description
_atom_site_fract_x
_atom_site_fract_y
_atom_site_fract_z
_atom_type_partial_charge
P1    P     P_3+3 0.136530 0.426510 0.931350 0.458089
P2    P     P_3+3 0.136530 0.573490 0.431350 0.443684
P3    P     P_3+3 0.636530 0.926510 0.931350 0.454010
P4    P     P_3+3 0.636530 0.073490 0.431350 0.465961
O1    O     O_2   0.130070 0.404060 0.104920 -0.357480
O2    O     O_2   0.130070 0.595940 0.604920 -0.372097
O3    O     O_2   0.630070 0.904060 0.104920 -0.348364
O4    O     O_2   0.630070 0.095940 0.604920 -0.368834
O5    O     O_3   0.075780 0.466370 0.861070 -0.408356
O6    O     O_3   0.075780 0.533630 0.361070 -0.401117
O7    O     O_3   0.575780 0.966370 0.861070 -0.411061
O8    O     O_3   0.575780 0.033630 0.361070 -0.394856
O9    O     O_3   0.022320 0.344950 0.359800 -0.391302
O10   O     O_3   0.022320 0.655050 0.859800 -0.399200
O11   O     O_3   0.522320 0.844950 0.359800 -0.392641
O12   O     O_3   0.522320 0.155050 0.859800 -0.408333
O13   O     O_2   0.134181 0.295189 0.263234 -0.342537
O14   O     O_2   0.136619 0.701877 0.767365 -0.352775
O15   O     O_2   0.633960 0.794364 0.262035 -0.353016
O16   O     O_2   0.631323 0.206564 0.733155 -0.351561
O17   O     O_3   0.206808 0.477424 0.940313 -0.582549
O18   O     O_3   0.206075 0.522308 0.438091 -0.573343
O19   O     O_3   0.708427 0.975200 0.939474 -0.590953
O20   O     O_3   0.704039 0.019793 0.438456 -0.591819
O21   O     O_3   0.046045 0.207168 0.343420 -0.503541
O22   O     O_3   0.050313 0.792601 0.835866 -0.440321
O23   O     O_3   0.545478 0.707641 0.346709 -0.478250
O24   O     O_3   0.554035 0.290603 0.866556 -0.475897
H1    H     H_    0.953354 0.248361 0.294710 0.150579
H2    H     H_    0.955700 0.753077 0.798653 0.139475
H3    H     H_    0.454098 0.750585 0.293378 0.149907
H4    H     H_    0.471087 0.257530 0.743045 0.176711
C1    C     C_3   0.945998 0.143005 0.318095 -0.376548
C2    C     C_3   0.951759 0.858554 0.817615 -0.313087
C3    C     C_3   0.443716 0.646867 0.326677 -0.306120
C4    C     C_3   0.452034 0.351609 0.854516 -0.403047
H5    H     H_    0.949169 0.137485 0.190574 0.250629
H6    H     H_    0.957038 0.865730 0.690916 0.251165
H7    H     H_    0.450799 0.637140 0.201139 0.259983
H8    H     H_    0.481315 0.386351 0.783799 0.256005
P5    P     P_3+3 0.863410 0.426100 0.379280 0.450273
P6    P     P_3+3 0.863410 0.573900 0.879280 0.459532
P7    P     P_3+3 0.363410 0.926100 0.379280 0.441411
P8    P     P_3+3 0.363410 0.073900 0.879280 0.449937
P9    P     P_3+3 0.914103 0.286310 0.919816 0.440261
P10   P     P_3+3 0.918214 0.716887 0.421656 0.402016
P11   P     P_3+3 0.412042 0.788151 0.923386 0.441387
P12   P     P_3+3 0.412493 0.213432 0.423779 0.434162
O25   O     O_2   0.869860 0.403670 0.205810 -0.366326
O26   O     O_2   0.869860 0.596330 0.705810 -0.382218
O27   O     O_2   0.369860 0.903670 0.205810 -0.386440
O28   O     O_2   0.369860 0.096330 0.705810 -0.361621
O29   O     O_3   0.977590 0.344880 0.951200 -0.324323
O30   O     O_3   0.977590 0.655120 0.451200 -0.367345
O31   O     O_3   0.477590 0.844880 0.951200 -0.320949
O32   O     O_3   0.477590 0.155120 0.451200 -0.322879
O33   O     O_2   0.861744 0.300190 0.043594 -0.408936
O34   O     O_2   0.867200 0.705223 0.550497 -0.402248
O35   O     O_2   0.360075 0.803656 0.046676 -0.409389
O36   O     O_2   0.358841 0.193976 0.540227 -0.425529
O37   O     O_3   0.793180 0.476093 0.363128 -0.576053
O38   O     O_3   0.789181 0.529452 0.875065 -0.588790
O39   O     O_3   0.293690 0.976715 0.364194 -0.585287
O40   O     O_3   0.295051 0.021908 0.842974 -0.579623
O41   O     O_3   0.942923 0.208378 0.975512 -0.613673
O42   O     O_3   0.953724 0.792354 0.480415 -0.612129
O43   O     O_3   0.438988 0.710313 0.983621 -0.616762
O44   O     O_3   0.434509 0.293043 0.493636 -0.610928
C5    C     C_3   0.981043 0.178172 0.859356 0.813081
C6    C     C_3   0.990089 0.823994 0.362446 0.698788
C7    C     C_3   0.474153 0.677416 0.866774 0.818107
C8    C     C_3   0.465894 0.330405 0.377480 0.677480
H9    H     H_    0.989712 0.210081 0.755824 -0.088640
H10   H     H_    0.999265 0.791570 0.260329 -0.077909
H11   H     H_    0.479010 0.706051 0.756618 -0.085120
H12   H     H_    0.440383 0.324042 0.261441 -0.043743
C9    C     C_3   0.945028 0.113820 0.808235 0.098441
C10   C     C_3   0.951037 0.885734 0.309387 0.144939
C11   C     C_3   0.436825 0.612369 0.832370 0.075762
C12   C     C_3   0.462991 0.404072 0.414739 0.150274
H13   H     H_    0.927139 0.087482 0.913239 0.128573
H14   H     H_    0.930862 0.910757 0.413264 0.116195
H15   H     H_    0.424650 0.587503 0.944151 0.141262
H16   H     H_    0.493027 0.414556 0.522705 0.136565
H17   H     H_    0.900685 0.126613 0.736388 -0.015920
H18   H     H_    0.908192 0.869802 0.235260 -0.020176
H19   H     H_    0.389194 0.623919 0.771625 0.006698
H20   H     H_    0.410845 0.417246 0.436667 0.089047
C13   C     C_3   0.797101 0.462646 0.841560 0.293888
C14   C     C_3   0.809877 0.543371 0.352143 0.411630
C15   C     C_3   0.293698 0.969951 0.950590 0.290944
C16   C     C_3   0.311942 0.043605 0.370555 0.425662
H21   H     H_    0.803496 0.456759 0.713548 0.071824
H22   H     H_    0.809825 0.557835 0.226877 0.059605
H23   H     H_    0.331689 0.932741 0.921728 0.127293
H24   H     H_    0.333143 0.058904 0.258524 0.000988
H25   H     H_    0.840016 0.440695 0.906571 0.125579
H26   H     H_    0.858799 0.556918 0.404728 0.111425
H27   H     H_    0.302821 0.988623 0.070212 0.111164
H28   H     H_    0.349510 0.053785 0.462355 0.145043
C17   C     C_3   0.733255 0.428721 0.893871 -0.451295
C18   C     C_3   0.758751 0.582306 0.441050 -0.481131
C19   C     C_3   0.224363 0.938620 0.944806 -0.456711
C20   C     C_3   0.250921 0.084215 0.406830 -0.463161
H29   H     H_    0.690238 0.462580 0.879536 0.233572
H30   H     H_    0.749953 0.557207 0.554776 0.201351
H31   H     H_    0.186111 0.977355 0.930392 0.229316
H32   H     H_    0.236420 0.072708 0.528737 0.181764
H33   H     H_    0.738045 0.417568 0.021001 0.191567
H34   H     H_    0.778332 0.632189 0.468404 0.181643
H35   H     H_    0.214935 0.913959 0.057858 0.174259
H36   H     H_    0.262382 0.137864 0.399928 0.175916
Ba1   Ba    Ba6+2 0.999980 0.452130 0.155200 1.559577
Ba2   Ba    Ba6+2 0.999980 0.547870 0.655200 1.543850
Ba3   Ba    Ba6+2 0.499980 0.952130 0.155200 1.564746
Ba4   Ba    Ba6+2 0.499980 0.047870 0.655200 1.560352
C21   C     C_3   0.190862 0.542452 0.980192 0.471393
C22   C     C_3   0.189077 0.458735 0.488969 0.456065
C23   C     C_3   0.694970 0.041153 0.973356 0.446827
C24   C     C_3   0.687486 0.959142 0.506424 0.465558
H37   H     H_    0.191782 0.547143 0.109637 0.073800
H38   H     H_    0.180598 0.459902 0.616616 0.076688
H39   H     H_    0.695677 0.046998 0.102418 0.079072
H40   H     H_    0.691194 0.964315 0.635320 0.083191
H41   H     H_    0.142282 0.559110 0.931506 0.127150
H42   H     H_    0.144700 0.438553 0.425257 0.126789
H43   H     H_    0.647327 0.058638 0.921086 0.121882
H44   H     H_    0.637279 0.941176 0.470447 0.113511
C25   C     C_3   0.243389 0.587346 0.912957 -1.037135
C26   C     C_3   0.246689 0.413127 0.456900 -1.016621
C27   C     C_3   0.749857 0.083155 0.905326 -1.051913
C28   C     C_3   0.737390 0.908180 0.454183 -1.044150
H45   H     H_    0.293294 0.570673 0.952027 0.264802
H46   H     H_    0.293126 0.433816 0.509795 0.283527
H47   H     H_    0.798842 0.065211 0.946908 0.261612
H48   H     H_    0.787835 0.930046 0.453543 0.264472
H49   H     H_    0.235557 0.639192 0.949981 0.227696
H50   H     H_    0.237635 0.363380 0.506855 0.216741
H51   H     H_    0.744570 0.135594 0.939607 0.221201
H52   H     H_    0.737749 0.864813 0.533533 0.221439
H53   H     H_    0.241029 0.584120 0.783469 0.278321
H54   H     H_    0.252883 0.408496 0.328502 0.263788
H55   H     H_    0.747969 0.078939 0.775853 0.271372
H56   H     H_    0.724563 0.891669 0.333444 0.279286
O45   O     O_3   0.924190 0.533610 0.949240 -0.391716
O46   O     O_3   0.924190 0.466390 0.449240 -0.406128
O47   O     O_3   0.424190 0.033610 0.949240 -0.391439
O48   O     O_3   0.424190 0.966390 0.449240 -0.405499
P13   P     P_3+3 0.083410 0.715509 0.889334 0.494354
P14   P     P_3+3 0.082001 0.284072 0.389871 0.496250
P15   P     P_3+3 0.588552 0.211261 0.879590 0.512017
P16   P     P_3+3 0.582460 0.784272 0.390735 0.491522
C29   C     C_3   0.977316 0.209251 0.367668 0.389321
C30   C     C_3   0.982138 0.792388 0.867087 0.395687
C31   C     C_3   0.476927 0.712219 0.370527 0.414919
C32   C     C_3   0.484577 0.283818 0.852811 0.394969
H57   H     H_    0.967838 0.218482 0.493184 0.013227
H58   H     H_    0.974470 0.784546 0.994179 -0.007024
H59   H     H_    0.467375 0.723734 0.494982 -0.003046
H60   H     H_    0.464527 0.255260 0.952350 0.030393
H61   H     H_    0.973299 0.101284 0.370414 0.293103
H62   H     H_    0.978092 0.900117 0.874302 0.288799
H63   H     H_    0.467244 0.605870 0.389830 0.295865
H64   H     H_    0.451741 0.368762 0.977542 0.256718
C33   C     C_R   0.238856 0.303157 0.005645 -0.135238
C34   C     C_R   0.237673 0.697949 0.507271 -0.090344
C35   C     C_R   0.741657 0.804843 0.004688 -0.128435
C36   C     C_R   0.741745 0.194799 0.500754 -0.153213
C37   C     C_R   0.150257 0.347352 0.823661 0.277731
C38   C     C_R   0.150070 0.652566 0.323400 0.216147
C39   C     C_R   0.650436 0.847024 0.825668 0.271805
C40   C     C_R   0.655960 0.148379 0.314104 0.304050
C41   C     C_R   0.112347 0.338280 0.685397 -0.487250
C42   C     C_R   0.112421 0.661193 0.184835 -0.501459
C43   C     C_R   0.611891 0.837176 0.688643 -0.471335
C44   C     C_R   0.624265 0.152408 0.166620 -0.510422
C45   C     C_R   0.124784 0.286387 0.583436 0.228722
C46   C     C_R   0.124945 0.713617 0.083862 0.225681
C47   C     C_R   0.625538 0.786336 0.584806 0.237126
C48   C     C_R   0.640469 0.201743 0.060011 0.287645
C49   C     C_R   0.173261 0.239771 0.622996 -0.189334
C50   C     C_R   0.173684 0.760456 0.123719 -0.202775
C51   C     C_R   0.675093 0.740594 0.623603 -0.196023
C52   C     C_R   0.686484 0.250762 0.104712 -0.157342
C53   C     C_R   0.210309 0.244820 0.764780 0.110715
C54   C     C_R   0.210408 0.755645 0.265584 0.118676
C55   C     C_R   0.712187 0.745729 0.765627 0.120229
C56   C     C_R   0.718228 0.249680 0.253473 0.107152
C57   C     C_R   0.199845 0.299340 0.866125 0.006685
C58   C     C_R   0.199219 0.701334 0.367054 -0.014240
C59   C     C_R   0.701437 0.800111 0.866851 0.007792
C60   C     C_R   0.705190 0.196864 0.357787 0.008865
H65   H     H_    0.075349 0.374371 0.651459 0.160571
H66   H     H_    0.075627 0.624522 0.150049 0.170092
H67   H     H_    0.573688 0.872273 0.656489 0.155269
H68   H     H_    0.586288 0.116645 0.133671 0.156725
C61   C     C_R   0.800592 0.701980 0.942917 -0.032696
C62   C     C_R   0.800173 0.298396 0.440005 -0.040185
C63   C     C_R   0.297494 0.200383 0.943061 -0.059822
C64   C     C_R   0.297566 0.800341 0.444566 -0.050964
C65   C     C_R   0.789840 0.756472 0.044169 0.078507
C66   C     C_R   0.788914 0.244132 0.541629 0.085814
C67   C     C_R   0.286278 0.254414 0.045453 0.077368
C68   C     C_R   0.285247 0.746890 0.547634 0.111048
C69   C     C_R   0.850875 0.654274 0.984909 0.258221
C70   C     C_R   0.848812 0.347386 0.485316 0.240033
C71   C     C_R   0.348078 0.153264 0.984659 0.219990
C72   C     C_R   0.347880 0.848004 0.487072 0.235003
C73   C     C_R   0.888139 0.663342 0.124366 -0.486533
C74   C     C_R   0.885242 0.339670 0.625425 -0.472799
C75   C     C_R   0.385447 0.162420 0.123599 -0.487359
C76   C     C_R   0.384023 0.840410 0.627580 -0.449239
C77   C     C_R   0.874875 0.714845 0.227423 0.219119
C78   C     C_R   0.872565 0.287474 0.725967 0.197342
C79   C     C_R   0.370791 0.212478 0.228426 0.206337
C80   C     C_R   0.369664 0.789522 0.730594 0.193511
C81   C     C_R   0.826232 0.761299 0.187118 -0.371423
C82   C     C_R   0.824619 0.239917 0.684938 -0.383329
C83   C     C_R   0.321944 0.258728 0.189038 -0.299528
C84   C     C_R   0.320417 0.743062 0.691648 -0.367030
C85   C     C_R   0.759973 0.697103 0.805858 -0.083463
C86   C     C_R   0.762593 0.301075 0.298248 -0.088683
C87   C     C_R   0.257676 0.195863 0.804888 -0.090744
C88   C     C_R   0.258543 0.804323 0.305385 -0.067776
H69   H     H_    0.181908 0.199543 0.542760 0.140384
H70   H     H_    0.183131 0.800321 0.042984 0.153299
H71   H     H_    0.684524 0.700934 0.542846 0.138290
H72   H     H_    0.695090 0.291323 0.026280 0.147890
H73   H     H_    0.815672 0.800396 0.269213 0.161841
H74   H     H_    0.814143 0.200585 0.766702 0.162218
H75   H     H_    0.311613 0.297870 0.271254 0.149927
H76   H     H_    0.308842 0.704650 0.774974 0.157198
H77   H     H_    0.925101 0.627263 0.158617 0.167759
H78   H     H_    0.921412 0.376765 0.661506 0.169464
H79   H     H_    0.423462 0.127215 0.156547 0.165908
H80   H     H_    0.421303 0.876686 0.661927 0.173406
H81   H     H_    0.233482 0.344331 0.084386 0.164458
H82   H     H_    0.232219 0.656694 0.585167 0.159499
H83   H     H_    0.736379 0.846326 0.082439 0.162642
H84   H     H_    0.735382 0.154038 0.579989 0.163786
H85   H     H_    0.764518 0.655146 0.729777 0.155661
H86   H     H_    0.767697 0.342530 0.220257 0.166042
H87   H     H_    0.262869 0.154300 0.727260 0.168101
H88   H     H_    0.264901 0.845316 0.226979 0.159396
N1    N     N_2   0.719897 0.368182 0.809286 -0.127732
H89   H     H_    0.758068 0.335097 0.812054 0.187684
C89   C     C_3   0.684491 0.374229 0.660928 -0.598885
H90   H     H_    0.674424 0.324166 0.612985 0.281631
H91   H     H_    0.714190 0.402629 0.576160 0.219211
H92   H     H_    0.636331 0.399121 0.677273 0.263089
N2    N     N_2   0.696889 0.587241 0.352619 -0.078470
H93   H     H_    0.656605 0.590360 0.423716 0.234132
C90   C     C_3   0.696276 0.637068 0.231017 -0.681159
H94   H     H_    0.645264 0.653075 0.207522 0.327225
H95   H     H_    0.716818 0.616752 0.122049 0.237020
H96   H     H_    0.723926 0.682006 0.268941 0.221404
N3    N     N_2   0.216824 0.890727 0.819412 -0.089081
H97   H     H_    0.247324 0.850317 0.831294 0.180494
C91   C     C_3   0.213395 0.917741 0.662769 -0.470953
H98   H     H_    0.200874 0.877810 0.578472 0.259961
H99   H     H_    0.261963 0.938985 0.632738 0.198362
H100  H     H_    0.175018 0.956668 0.653076 0.255740
N4    N     N_2   0.196470 0.067479 0.300292 -0.068075
H101  H     H_    0.150725 0.072875 0.348728 0.223683
C92   C     C_3   0.200095 0.096386 0.146175 -0.691786
H102  H     H_    0.188620 0.149932 0.150872 0.272552
H103  H     H_    0.165338 0.070448 0.065382 0.284789
H104  H     H_    0.249310 0.089614 0.098153 0.200252
N5    N     N_2   0.877423 0.138648 0.360138 -0.120246
H105  H     H_    0.870955 0.144049 0.478485 0.195120
C93   C     C_3   0.842806 0.081137 0.298305 -0.709433
H106  H     H_    0.856149 0.036561 0.367980 0.273092
H107  H     H_    0.855105 0.072689 0.174391 0.248726
H108  H     H_    0.788911 0.089146 0.302710 0.229875
N6    N     N_2   0.882538 0.860929 0.855039 -0.129216
H109  H     H_    0.874703 0.855643 0.973014 0.191503
C94   C     C_3   0.847371 0.916757 0.789087 -0.720970
H110  H     H_    0.861846 0.962792 0.852466 0.277650
H111  H     H_    0.793519 0.908362 0.798866 0.238519
H112  H     H_    0.858149 0.922471 0.663235 0.249311
N7    N     N_2   0.374272 0.647760 0.362527 -0.123130
H113  H     H_    0.365061 0.634101 0.476398 0.214683
C95   C     C_3   0.331431 0.615913 0.247095 -0.819002
H114  H     H_    0.349819 0.566151 0.218347 0.296132
H115  H     H_    0.328573 0.647302 0.140526 0.255142
H116  H     H_    0.281412 0.608979 0.292687 0.245718
N8    N     N_2   0.384679 0.349246 0.791601 -0.107602
H117  H     H_    0.360878 0.304449 0.803476 0.194919
C96   C     C_3   0.344319 0.404602 0.835823 -0.726747
H118  H     H_    0.337676 0.404833 0.964698 0.244098
H119  H     H_    0.294937 0.400569 0.776966 0.225222
H120  H     H_    0.367623 0.451850 0.800830 0.303275
S1    S     S_3+6 0.993248 0.056822 0.698403 0.013504
O49   O     O_2   0.030490 0.012111 0.809660 -0.202434
O50   O     O_2   0.947530 0.015712 0.596252 -0.318862
O51   O     O_3   0.047647 0.096732 0.586068 -0.526063
H121  H     H_    0.083521 0.064576 0.569934 0.385997
S2    S     S_3+6 0.996709 0.945955 0.201472 0.009301
O52   O     O_2   0.949057 0.985411 0.101846 -0.312394
O53   O     O_2   0.032519 0.991423 0.314604 -0.227193
O54   O     O_3   0.052144 0.909777 0.086641 -0.510843
H122  H     H_    0.083202 0.945649 0.058503 0.400412
S3    S     S_3+6 0.479141 0.554365 0.714363 -0.048367
O55   O     O_2   0.510476 0.503391 0.820060 -0.299613
O56   O     O_2   0.429036 0.521714 0.606476 -0.337379
O57   O     O_3   0.537895 0.590171 0.607172 -0.504796
H123  H     H_    0.573975 0.557364 0.604088 0.389008
S4    S     S_3+6 0.492371 0.455695 0.257993 0.007251
O58   O     O_2   0.434373 0.484023 0.168190 -0.324095
O59   O     O_2   0.533218 0.510577 0.329697 -0.255532
O60   O     O_3   0.539993 0.415197 0.131528 -0.456220
H124  H     H_    0.570330 0.448935 0.088841 0.385223
S5    S     S_3+6 0.059448 0.160612 0.949803 -0.007686
O61   O     O_2   0.110059 0.142147 0.832831 -0.296187
O62   O     O_2   0.083376 0.221201 0.035216 -0.258831
O63   O     O_3   0.049418 0.097070 0.073994 -0.510091
H125  H     H_    0.067326 0.112390 0.176391 0.383134
S6    S     S_3+6 0.069180 0.845767 0.450265 0.016621
O64   O     O_2   0.117279 0.868942 0.330979 -0.287638
O65   O     O_2   0.060934 0.899398 0.569545 -0.227322
O66   O     O_3   0.101392 0.779421 0.539262 -0.464810
H126  H     H_    0.075701 0.741250 0.497189 0.353510
S7    S     S_3+6 0.555426 0.663555 0.946617 -0.009248
O67   O     O_2   0.604097 0.648770 0.822307 -0.331320
O68   O     O_2   0.577715 0.725458 0.029007 -0.234129
O69   O     O_3   0.553068 0.599967 0.073459 -0.507799
H127  H     H_    0.587556 0.568925 0.039709 0.382902
S8    S     S_3+6 0.549341 0.304774 0.365866 -0.009454
O70   O     O_2   0.598755 0.360423 0.378868 -0.276899
O71   O     O_2   0.566676 0.253055 0.485346 -0.251607
O72   O     O_3   0.549493 0.273213 0.187382 -0.530443
H128  H     H_    0.519082 0.234693 0.191814 0.302762

loop_
_geom_bond_atom_site_label_1
_geom_bond_atom_site_label_2
_geom_bond_distance
_ccdc_geom_bond_type
C28   H56   1.106457 S    
O25   Ba1   2.843558 S    
C35   C65   1.419253 A    
C62   C70   1.436389 A    
P5    O37   1.750955 S    
C11   H19   1.106981 S    
C86   H86   1.076087 S    
P7    O39   1.749517 S    
S3    O56   1.499597 D    
O54   H122  0.989632 S    
P8    O40   1.751104 S    
P9    O33   1.542482 D    
O5    Ba2   2.834285 S    
C30   H58   1.110456 S    
C93   H106  1.110336 S    
O18   C22   1.400272 S    
O17   C21   1.400922 S    
O13   P14   1.545310 D    
C87   H87   1.078109 S    
C6    H10   1.111249 S    
N8    C96   1.446416 S    
O69   H127  0.990212 S    
P4    O8    1.569346 S    
S4    O60   1.682478 S    
O8    Ba3   2.822972 S    
O1    Ba1   2.853146 S    
C64   C72   1.435610 A    
N1    H89   1.024667 S    
C26   H46   1.109433 S    
P1    Ba1   3.440999 S    
C43   H67   1.082288 S    
O29   Ba1   2.808585 S    
O20   C24   1.398777 S    
S7    O67   1.497734 D    
N2    H93   1.030716 S    
C51   H71   1.079246 S    
C49   H69   1.081968 S    
O10   Ba2   2.810508 S    
Ba3   O48   2.989702 S    
C73   C77   1.395851 A    
O63   H125  0.985647 S    
O26   Ba2   2.856958 S    
Ba1   O46   2.989702 S    
C54   C58   1.418712 A    
C1    H61   1.099301 S    
C10   H14   1.109556 S    
S3    O55   1.501261 D    
C72   C76   1.395419 A    
P11   C80   1.833617 S    
O57   H123  0.990352 S    
O32   Ba4   2.811474 S    
C46   C50   1.397154 A    
O6    Ba1   2.822972 S    
C25   H45   1.108297 S    
O51   H121  0.989980 S    
C42   H66   1.082327 S    
N5    C93   1.445635 S    
O11   Ba3   2.813375 S    
C28   H52   1.107504 S    
S2    O52   1.500619 D    
C52   H72   1.074426 S    
C26   H50   1.108367 S    
C27   H55   1.107415 S    
C38   C42   1.399613 A    
C89   H92   1.111227 S    
N4    C92   1.441898 S    
C77   C81   1.400675 A    
S6    O66   1.668874 S    
C13   C17   1.533910 S    
P7    C72   1.856228 S    
O22   P13   1.756252 S    
C15   C19   1.533207 S    
C91   H99   1.105027 S    
Ba4   O47   2.987156 S    
C23   H39   1.107073 S    
C34   H82   1.073229 S    
C35   C59   1.413902 A    
C2    N6    1.444479 S    
C7    S7    1.784742 S    
C36   C60   1.409227 A    
O16   P15   1.541739 D    
C12   H20   1.109716 S    
P2    Ba2   3.434476 S    
O42   C6    1.412418 S    
O30   Ba2   2.811474 S    
O10   P13   1.744908 S    
C36   C66   1.412283 A    
O12   P15   1.754599 S    
P3    O7    1.577997 S    
O4    Ba4   2.839845 S    
P11   O35   1.540495 D    
H2    C30   1.111771 S    
C25   H49   1.109195 S    
P8    Ba4   3.443772 S    
O66   H126  0.989417 S    
C53   C87   1.417510 A    
C19   H31   1.109082 S    
O40   C15   1.395489 S    
N3    C91   1.443335 S    
P6    O45   1.581997 S    
C51   C55   1.410647 A    
C48   C52   1.400375 A    
O23   P16   1.752427 S    
C5    C9    1.544031 S    
C37   C57   1.439546 A    
C96   H120  1.106785 S    
C7    C11   1.536381 S    
P15   C48   1.849523 S    
C85   H85   1.074796 S    
C40   C60   1.434090 A    
C3    C31   1.520524 S    
O28   Ba4   2.856958 S    
C61   C85   1.413165 A    
O19   C23   1.395495 S    
C90   H94   1.095984 S    
C1    C29   1.532614 S    
S5    O62   1.496753 D    
Ba3   Ba4   4.685707 S    
C16   H24   1.101194 S    
P6    C69   1.881503 S    
N3    H97   1.030576 S    
C22   H38   1.107198 S    
C14   C18   1.522709 S    
S6    O65   1.501205 D    
H4    C32   1.103886 S    
P6    Ba2   3.443772 S    
P5    O46   1.573271 S    
C75   H79   1.082637 S    
C62   C66   1.419043 A    
C23   C27   1.519752 S    
C41   C45   1.392376 A    
C21   C25   1.516185 S    
P6    O38   1.742800 S    
C64   C68   1.417899 A    
P8    O28   1.556007 D    
C35   H83   1.077696 S    
P12   C79   1.846791 S    
C9    H17   1.103957 S    
C94   H110  1.110475 S    
P10   O34   1.544159 D    
C95   H116  1.100934 S    
C71   C75   1.399540 A    
C76   H80   1.082636 S    
S4    O59   1.499347 D    
C31   H59   1.109454 S    
C18   N2    1.446380 S    
C5    S5    1.781274 S    
C32   H60   1.110610 S    
C6    S6    1.798524 S    
C78   C82   1.398260 A    
C20   H36   1.109834 S    
C16   C20   1.525517 S    
P8    C71   1.872419 S    
S7    O68   1.496871 D    
P2    O18   1.751285 S    
S1    O49   1.501505 D    
C70   C74   1.395748 A    
C28   H48   1.108428 S    
P10   C77   1.853187 S    
C96   H118  1.111179 S    
C92   H103  1.101091 S    
P6    O26   1.556007 D    
P14   C45   1.843265 S    
P9    O41   1.745520 S    
O37   C14   1.403373 S    
C54   C88   1.414074 A    
P4    C40   1.859973 S    
C80   C84   1.397450 A    
Ba2   O45   2.987156 S    
C83   H75   1.083341 S    
S8    O70   1.501461 D    
C2    H62   1.097233 S    
C90   H96   1.107412 S    
C53   C57   1.422405 A    
N7    C95   1.442371 S    
C56   C60   1.417661 A    
C66   C82   1.405301 A    
C8    C12   1.525740 S    
C45   C49   1.399125 A    
P5    Ba1   3.437151 S    
P13   C46   1.839520 S    
C13   H21   1.109732 S    
C26   H54   1.109921 S    
C27   H51   1.107193 S    
C9    S1    1.795737 S    
C44   C48   1.392900 A    
O24   P15   1.756798 S    
C94   H112  1.107059 S    
C95   H114  1.105541 S    
C37   C41   1.400218 A    
C15   H27   1.098750 S    
C21   H41   1.110022 S    
C40   C44   1.398661 A    
C23   H43   1.110009 S    
C93   H108  1.103972 S    
C61   C69   1.444262 A    
N6    H109  1.028389 S    
C12   H16   1.108838 S    
C17   N1    1.441885 S    
N4    H101  1.029399 S    
C36   H84   1.074935 S    
C68   C84   1.404729 A    
P1    O1    1.556958 D    
H1    C29   1.111730 S    
O9    P14   1.743842 S    
P10   O42   1.749879 S    
S1    O51   1.679886 S    
P3    O3    1.556958 D    
P4    O20   1.749741 S    
C25   H53   1.106274 S    
C17   H33   1.109297 S    
O38   C13   1.392709 S    
Ba3   O47   2.834404 S    
P8    O47   1.581997 S    
C19   H35   1.105924 S    
C50   C54   1.405875 A    
Ba1   O45   2.834404 S    
P5    C70   1.856247 S    
C82   H74   1.081179 S    
P7    O48   1.573271 S    
C33   C57   1.411363 A    
C5    H9    1.110485 S    
C42   C46   1.391733 A    
C8    H12   1.110641 S    
C2    C30   1.530719 S    
C2    H6    1.098361 S    
N5    H105  1.027531 S    
C63   C67   1.422930 A    
S2    O53   1.501508 D    
S8    O72   1.651528 S    
O12   Ba4   2.810508 S    
O11   P16   1.748366 S    
C14   H22   1.107645 S    
S3    O57   1.678175 S    
C89   H91   1.109567 S    
O23   C31   1.409353 S    
O21   C29   1.410771 S    
P1    O5    1.577997 S    
Ba4   O48   2.823096 S    
C50   H70   1.079357 S    
C55   C85   1.418777 A    
O27   Ba3   2.843558 S    
C3    N7    1.444712 S    
S2    O54   1.680238 S    
C3    H63   1.093154 S    
C3    H7    1.102331 S    
O72   H128  0.990188 S    
C22   C26   1.521479 S    
C79   C83   1.399045 A    
N8    H117  1.028991 S    
C9    H13   1.109492 S    
P10   O30   1.751877 S    
P9    C78   1.834120 S    
C39   C59   1.442233 A    
P12   O44   1.767172 S    
O7    Ba4   2.834285 S    
P2    C38   1.867161 S    
N1    C89   1.442252 S    
C41   H65   1.082396 S    
C18   H34   1.103911 S    
C63   C87   1.411519 A    
C11   S3    1.784615 S    
C20   H32   1.112087 S    
C4    C32   1.525353 S    
Ba1   Ba2   4.685707 S    
C62   C86   1.411464 A    
P4    Ba4   3.434476 S    
H3    C31   1.111742 S    
C24   H44   1.110631 S    
C8    S8    1.773246 S    
C10   S2    1.792044 S    
C33   H81   1.078338 S    
P16   C47   1.849628 S    
C33   C67   1.414647 A    
P3    Ba3   3.440999 S    
C11   H15   1.110414 S    
P7    O27   1.557264 D    
S5    O61   1.497745 D    
O31   Ba3   2.808585 S    
O41   C5    1.413560 S    
O43   C7    1.409971 S    
C74   H78   1.082630 S    
C29   H57   1.109062 S    
C1    H5    1.097273 S    
C4    H64   1.105777 S    
C4    N8    1.449933 S    
C56   C86   1.413798 A    
C75   C79   1.390298 A    
O60   H124  0.989894 S    
P1    O17   1.748269 S    
C6    C10   1.543107 S    
P3    O19   1.749189 S    
P4    O4    1.558216 D    
C91   H100  1.110657 S    
N6    C94   1.444154 S    
C27   H47   1.106048 S    
N2    C90   1.445605 S    
O3    Ba3   2.853146 S    
C21   H37   1.108013 S    
P7    Ba3   3.437151 S    
P5    O25   1.557264 D    
O2    Ba2   2.839845 S    
C76   C80   1.387098 A    
O39   C16   1.400502 S    
C61   C65   1.422472 A    
C20   N4    1.446310 S    
O14   P13   1.542988 D    
C92   H102  1.110273 S    
C55   C59   1.420607 A    
P12   O32   1.783784 S    
O44   C8    1.407613 S    
C81   H73   1.083011 S    
C10   H18   1.104410 S    
C19   N3    1.447935 S    
P2    O2    1.558216 D    
P11   O43   1.742228 S    
P12   O36   1.539244 D    
C47   C51   1.401188 A    
C17   H29   1.114655 S    
C84   H76   1.081297 S    
C64   C88   1.409815 A    
C4    H8    1.104837 S    
Ba2   O46   2.823096 S    
S8    O71   1.496671 D    
C90   H95   1.108824 S    
C49   C53   1.408331 A    
C88   H88   1.074087 S    
S5    O63   1.679620 S    
C43   C47   1.391824 A    
N7    H113  1.031141 S    
C74   C78   1.386562 A    
C39   C43   1.400370 A    
C52   C56   1.406423 A    
C13   H25   1.111648 S    
O21   P14   1.753162 S    
C34   C58   1.410349 A    
S6    O64   1.498890 D    
C69   C73   1.401895 A    
C12   S4    1.806358 S    
C63   C71   1.439826 A    
O15   P16   1.545696 D    
C34   C68   1.411202 A    
C44   H68   1.082489 S    
C94   H111  1.105634 S    
O22   C30   1.410357 S    
C91   H98   1.105237 S    
P2    O6    1.569346 S    
S4    O58   1.499633 D    
C16   H28   1.094312 S    
P11   O31   1.757516 S    
C93   H107  1.106157 S    
C1    N5    1.443015 S    
C24   C28   1.522764 S    
C89   H90   1.107810 S    
C38   C58   1.436807 A    
C67   C83   1.406536 A    
S7    O69   1.681387 S    
C65   C81   1.409792 A    
S1    O50   1.500121 D    
C7    H11   1.109706 S    
P3    C39   1.870700 S    
P1    C37   1.872801 S    
C96   H119  1.107301 S    
C18   H30   1.112580 S    
C92   H104  1.095505 S    
C73   H77   1.082385 S    
P9    O29   1.755261 S    
C15   H23   1.111570 S    
O24   C32   1.411075 S    
C22   H42   1.111159 S    
C14   H26   1.107133 S    
O9    Ba1   2.813375 S    
C24   H40   1.105039 S    
C95   H115  1.108873 S    
