data_mof_unit_8913.cif
_audit_creation_date              2012-12-11T15:32:33-0500
_audit_creation_method            fapswitch 2.2
_symmetry_space_group_name_H-M    P1
_symmetry_Int_Tables_number       1
_space_group_crystal_system       triclinic
_cell_length_a                    6.946982
_cell_length_b                    20.465623
_cell_length_c                    24.376502
_cell_angle_alpha                 89.621079
_cell_angle_beta                  90.945286
_cell_angle_gamma                 89.923184
_cell_volume                      3465.16137619

loop_
_atom_site_label
_atom_site_type_symbol
_atom_type_description
_atom_site_fract_x
_atom_site_fract_y
_atom_site_fract_z
_atom_type_partial_charge
O1    O     O_R   0.507320 0.423560 0.460500 -0.536168
O2    O     O_R   0.170760 0.556250 0.437010 -0.537430
O3    O     O_R   0.004030 0.576440 0.539500 -0.535820
C1    C     C_R   0.338723 0.576314 0.420903 0.725294
O4    O     O_R   0.177370 0.422820 0.454110 -0.538551
O5    O     O_R   0.010680 0.442050 0.556720 -0.534878
C2    C     C_R   0.345249 0.398838 0.443435 0.694273
O6    O     O_R   0.500680 0.557950 0.443280 -0.534642
O7    O     O_3   0.340380 0.506470 0.533650 -0.366272
V1    V     V_3+5 0.064130 0.498800 0.493760 1.424131
O8    O     O_R   0.681160 0.443750 0.562990 -0.538180
C3    C     C_R   0.850965 0.423668 0.578847 0.725078
O9    O     O_R   0.674560 0.577180 0.545890 -0.538085
C4    C     C_R   0.844394 0.600979 0.556690 0.694338
V2    V     V_3+5 0.564560 0.501200 0.506240 1.423063
O10   O     O_3   0.838180 0.493530 0.466350 -0.366938
C5    C     C_R   0.961274 0.836714 0.913187 -0.237604
C6    C     C_R   0.859143 0.661597 0.588833 -0.040059
C7    C     C_R   0.837769 0.726259 0.909713 -0.259980
C8    C     C_R   0.880233 0.782369 0.939579 0.347504
C9    C     C_R   0.004523 0.833602 0.856839 0.260503
C10   C     C_R   0.935561 0.779872 0.824381 -0.021007
C11   C     C_R   0.863763 0.724566 0.852855 0.030909
C12   C     C_R   0.931758 0.778834 0.765286 0.073332
C13   C     C_R   0.885524 0.719507 0.736738 0.054785
C14   C     C_R   0.830403 0.664601 0.767923 -0.186994
C15   C     C_R   0.815097 0.667814 0.824511 -0.155503
C16   C     C_R   0.956702 0.836166 0.733792 -0.173874
C17   C     C_R   0.953413 0.834959 0.676860 -0.231823
C18   C     C_R   0.922070 0.776844 0.648614 0.146862
C19   C     C_R   0.887394 0.717940 0.677812 0.083043
C20   C     C_R   0.922763 0.777653 0.591038 -0.161145
C21   C     C_R   0.892425 0.720523 0.561504 -0.170264
C22   C     C_R   0.856733 0.660114 0.646544 -0.217122
H1    H     H_    0.763607 0.625165 0.846414 0.119204
H2    H     H_    0.837248 0.612960 0.665579 0.092495
H3    H     H_    0.897181 0.722109 0.517107 0.104824
H4    H     H_    0.973841 0.880411 0.654618 0.125182
H5    H     H_    0.777463 0.684540 0.930987 0.140246
H6    H     H_    0.788191 0.619012 0.749532 0.118189
H7    H     H_    0.968425 0.883786 0.751960 0.188270
H8    H     H_    0.948701 0.822683 0.568718 0.110742
C23   C     C_3   0.887900 0.310325 0.769971 -0.197759
C24   C     C_3   0.060804 0.264638 0.780380 0.396620
H9    H     H_    0.871603 0.360260 0.786797 0.119619
H10   H     H_    0.205551 0.246852 0.694759 0.114079
C25   C     C_1   0.960375 0.121458 0.875150 -0.177105
C26   C     C_1   0.863777 0.378138 0.624600 -0.197985
C27   C     C_3   0.751405 0.251408 0.779963 -0.190649
C28   C     C_3   0.927543 0.206785 0.790771 0.143355
C29   C     C_3   0.757879 0.234198 0.718017 -0.115907
C30   C     C_3   0.895219 0.292258 0.708614 0.117968
C31   C     C_3   0.934546 0.189100 0.729376 -0.187774
C32   C     C_3   0.071992 0.247719 0.719139 -0.198456
C33   C     C_1   0.946715 0.159758 0.837020 -0.006404
C34   C     C_1   0.877008 0.339591 0.662571 -0.045424
H11   H     H_    0.952772 0.139093 0.712866 0.124063
H12   H     H_    0.631059 0.221847 0.691807 0.115390
H13   H     H_    0.619535 0.252367 0.805016 0.160735
C35   C     C_3   0.477832 0.717128 0.204983 -0.139803
C36   C     C_3   0.284518 0.702655 0.233648 -0.141558
H14   H     H_    0.179198 0.664604 0.221110 0.107815
H15   H     H_    0.532842 0.691224 0.168556 0.107401
H16   H     H_    0.102300 0.800435 0.225246 0.112196
C37   C     C_1   0.348465 0.621569 0.374588 -0.196027
C38   C     C_1   0.475679 0.877217 0.124421 -0.185977
C39   C     C_3   0.581009 0.720487 0.261826 -0.137013
C40   C     C_3   0.387959 0.706623 0.289917 0.170764
C41   C     C_3   0.538725 0.794833 0.264245 -0.138113
C42   C     C_3   0.435334 0.790886 0.208007 0.168691
C43   C     C_3   0.345448 0.780399 0.292878 -0.136361
C44   C     C_3   0.242273 0.777022 0.236052 -0.144915
C45   C     C_1   0.363740 0.659699 0.336272 -0.066491
C46   C     C_1   0.460017 0.838349 0.162145 -0.069880
H17   H     H_    0.290445 0.806409 0.329250 0.106589
H18   H     H_    0.643998 0.832930 0.276716 0.106029
H19   H     H_    0.721056 0.697069 0.272525 0.110531
C47   C     C_R   0.476436 0.161879 0.088894 -0.044791
C48   C     C_R   0.348189 0.338171 0.411125 -0.043899
C49   C     C_R   0.556921 0.276432 0.095757 -0.161040
C50   C     C_R   0.542459 0.219606 0.064983 -0.161213
C51   C     C_R   0.425392 0.161258 0.144519 -0.217290
C52   C     C_R   0.442926 0.218470 0.177377 0.086635
C53   C     C_R   0.509566 0.276320 0.151503 0.138654
C54   C     C_R   0.400038 0.220238 0.234871 0.058740
C55   C     C_R   0.424646 0.279812 0.265148 0.058075
C56   C     C_R   0.490581 0.335620 0.236876 -0.188298
C57   C     C_R   0.531474 0.333741 0.181379 -0.201815
C58   C     C_R   0.334131 0.164427 0.263145 -0.188820
C59   C     C_R   0.293262 0.166303 0.318643 -0.203696
C60   C     C_R   0.315152 0.223725 0.348518 0.141019
C61   C     C_R   0.381748 0.281581 0.322642 0.086205
C62   C     C_R   0.267814 0.223609 0.404264 -0.164078
C63   C     C_R   0.282235 0.280436 0.435037 -0.167631
C64   C     C_R   0.399222 0.338796 0.355497 -0.216202
H20   H     H_    0.582458 0.377932 0.161628 0.121874
H21   H     H_    0.446092 0.384968 0.339045 0.094882
H22   H     H_    0.240170 0.279543 0.477645 0.106690
H23   H     H_    0.242309 0.122109 0.338395 0.120653
H24   H     H_    0.608662 0.320529 0.076062 0.115287
H25   H     H_    0.584523 0.220495 0.022375 0.113770
H26   H     H_    0.378444 0.115093 0.160966 0.094067
H27   H     H_    0.513092 0.381989 0.256510 0.122489
H28   H     H_    0.311645 0.118055 0.243513 0.121890
H29   H     H_    0.216111 0.179508 0.423961 0.111426
O11   O     O_R   0.323550 0.942140 0.056770 -0.541276
O12   O     O_R   0.647080 0.077200 0.045890 -0.540787
O13   O     O_R   0.813610 0.057920 0.943260 -0.539169
C65   C     C_R   0.479248 0.101214 0.056581 0.691744
O14   O     O_R   0.653470 0.943760 0.063000 -0.533182
O15   O     O_R   0.820050 0.923540 0.960490 -0.527941
C66   C     C_R   0.485538 0.923342 0.078803 0.739190
O16   O     O_R   0.317110 0.076520 0.039540 -0.537028
O17   O     O_3   0.483830 0.993580 0.966380 -0.369742
V3    V     V_3+5 0.760140 0.001190 0.006240 1.445692
O18   O     O_R   0.149510 0.922740 0.954070 -0.541015
C67   C     C_R   0.979564 0.898543 0.943829 0.810559
O19   O     O_R   0.143120 0.056170 0.936970 -0.534110
C68   C     C_R   0.973306 0.076175 0.921060 0.734133
V4    V     V_3+5 0.259690 0.998700 0.993700 1.437468
O20   O     O_3   0.986130 0.006420 0.033620 -0.373746
O21   O     O_3   0.219709 0.279850 0.813790 -0.652641
H30   H     H_    0.279443 0.318618 0.796450 0.274372
O22   O     O_3   0.832368 0.785076 0.994379 -0.550627
C69   C     C_3   0.993912 0.765693 0.026459 0.094355
H31   H     H_    0.123349 0.795530 0.016709 0.108105
H32   H     H_    0.026692 0.713056 0.019751 0.117957
C70   C     C_3   0.949996 0.775343 0.086874 -0.698549
H33   H     H_    0.822893 0.745731 0.098451 0.216029
H34   H     H_    0.075631 0.759803 0.112559 0.175869
H35   H     H_    0.919646 0.827710 0.094848 0.225283
O23   O     O_3   0.118784 0.882314 0.835251 -0.568150
C71   C     C_3   0.310649 0.859272 0.834537 0.107778
H36   H     H_    0.324395 0.817364 0.805923 0.129161
H37   H     H_    0.360944 0.843843 0.876349 0.126897
C72   C     C_3   0.441942 0.913759 0.815020 -0.685115
H38   H     H_    0.433383 0.956062 0.843196 0.226661
H39   H     H_    0.593083 0.896014 0.814379 0.176185
H40   H     H_    0.398127 0.929640 0.772981 0.213881

loop_
_geom_bond_atom_site_label_1
_geom_bond_atom_site_label_2
_ccdc_geom_bond_type
C13   C19   A    
C18   C20   A    
C56   C57   A    
C57   H20   S    
C62   C63   A    
V3    O20   S    
C4    C6    S    
O2    C1    A    
C7    C8    A    
C39   H19   S    
C1    O6    A    
H16   C44   S    
C70   H33   S    
O17   V3    S    
V1    O10   S    
C50   H25   S    
C31   C32   S    
C14   C15   A    
C35   H15   S    
O13   V3    S    
C25   C33   T    
C16   C17   A    
O5    C3    A    
C1    C37   S    
C23   C30   S    
C63   H22   S    
V2    O10   S    
C38   C46   T    
C16   H7    S    
C5    C8    A    
C37   C45   T    
O18   C67   A    
C41   H18   S    
C41   C43   S    
O19   C68   A    
C62   H29   S    
O8    V2    S    
C35   C39   S    
O23   C71   S    
C27   C29   S    
C17   H4    S    
C42   C46   S    
C69   C70   S    
O1    V2    S    
C11   C15   A    
O7    V1    S    
C49   C53   A    
C25   C68   S    
C9    C10   A    
C49   H24   S    
O12   C65   A    
O13   C68   A    
C41   C42   S    
C72   H40   S    
C30   C32   S    
O19   V4    S    
C28   C31   S    
C39   C40   S    
C53   C57   A    
C12   C13   A    
C48   C63   A    
C72   H39   S    
C58   C59   A    
C60   C61   A    
O4    C2    A    
C54   C58   A    
C55   C56   A    
C23   C27   S    
O11   C66   A    
C15   H1    S    
C40   C45   S    
C54   C55   A    
C61   C64   A    
C21   H3    S    
O18   V4    S    
C35   C36   S    
C29   C31   S    
C7    C11   A    
C23   C24   S    
C9    O23   S    
C48   C64   A    
C17   C18   A    
C60   C62   A    
O16   V4    S    
C6    C22   A    
C47   C51   A    
C52   C53   A    
C35   C42   S    
C18   C19   A    
H10   C32   S    
C51   H26   S    
C19   C22   A    
C29   H12   S    
C69   H32   S    
C23   H9    S    
O12   V3    S    
O3    C4    A    
C7    H5    S    
C71   C72   S    
C56   H27   S    
C36   C44   S    
C52   C54   A    
C51   C52   A    
O6    V2    S    
O9    V2    S    
C58   H28   S    
C71   H36   S    
C10   C12   A    
O2    V1    S    
C70   H35   S    
C59   H23   S    
V4    O20   S    
C2    C48   S    
C24   C28   S    
C26   C34   T    
C31   H11   S    
O11   V4    S    
O1    C2    A    
C12   C16   A    
C49   C50   A    
C70   H34   S    
O5    V1    S    
C42   C44   S    
O8    C3    A    
C64   H21   S    
C65   O16   A    
C28   C33   S    
C27   H13   S    
O15   C67   A    
C38   C66   S    
C20   C21   A    
C13   C14   A    
C29   C30   S    
O3    V1    S    
C55   C61   A    
C43   H17   S    
C36   C40   S    
C14   H6    S    
C59   C60   A    
C69   H31   S    
C40   C43   S    
C24   O21   S    
C3    C26   S    
C47   C65   S    
C22   H2    S    
C47   C50   A    
O7    V2    S    
C36   H14   S    
C6    C21   A    
O14   C66   A    
C8    O22   S    
C24   C32   S    
O4    V1    S    
C43   C44   S    
C27   C28   S    
C71   H37   S    
C20   H8    S    
C10   C11   A    
C72   H38   S    
O15   V3    S    
C39   C41   S    
O21   H30   S    
O9    C4    A    
O14   V3    S    
O17   V4    S    
C30   C34   S    
C5    C67   S    
O22   C69   S    
C5    C9    A    
