data_mof_unit_42415.cif
_audit_creation_date              2013-03-05T15:39:28-0500
_audit_creation_method            fapswitch 2.2
_symmetry_space_group_name_H-M    P1
_symmetry_Int_Tables_number       1
_space_group_crystal_system       triclinic
_cell_length_a                    16.926918
_cell_length_b                    16.926836
_cell_length_c                    16.871481
_cell_angle_alpha                 67.766259
_cell_angle_beta                  67.751893
_cell_angle_gamma                 67.115084
_cell_volume                      3967.62059727

loop_
_atom_site_label
_atom_site_type_symbol
_atom_site_description
_atom_site_fract_x
_atom_site_fract_y
_atom_site_fract_z
_atom_type_partial_charge
O1    O     O_R   0.124540 0.978640 0.385460 -0.518974
O2    O     O_R   0.875460 0.021360 0.614540 -0.518189
O3    O     O_R   0.978640 0.385460 0.124540 -0.520569
O4    O     O_R   0.021360 0.614540 0.875460 -0.514694
O5    O     O_R   0.385460 0.124540 0.978640 -0.517482
O6    O     O_R   0.614540 0.875460 0.021360 -0.523870
O7    O     O_R   0.614540 0.021360 0.875460 -0.520880
O8    O     O_R   0.385460 0.978640 0.124540 -0.513924
O9    O     O_R   0.875460 0.614540 0.021360 -0.518209
O10   O     O_R   0.124540 0.385460 0.978640 -0.524495
O11   O     O_R   0.021360 0.875460 0.614540 -0.518260
O12   O     O_R   0.978640 0.124540 0.385460 -0.518304
C1    C     C_R   0.598043 0.019103 0.597306 0.167214
C2    C     C_R   0.401947 0.980936 0.402679 0.167760
C3    C     C_R   0.018569 0.598157 0.597509 0.168439
C4    C     C_R   0.981243 0.401893 0.402555 0.168148
C5    C     C_R   0.601979 0.596985 0.018088 0.143871
C6    C     C_R   0.403385 0.398199 0.981027 0.142949
Cu1   Cu    Cu3+1 0.995180 0.995180 0.424630 1.099842
Cu2   Cu    Cu3+1 0.004820 0.004820 0.575370 1.100350
Cu3   Cu    Cu3+1 0.995180 0.424630 0.995180 1.100947
Cu4   Cu    Cu3+1 0.004820 0.575370 0.004820 1.103608
Cu5   Cu    Cu3+1 0.424630 0.995180 0.995180 1.104151
Cu6   Cu    Cu3+1 0.575370 0.004820 0.004820 1.101174
C7    C     C_R   0.024399 0.829468 0.566305 0.813626
C8    C     C_R   0.975591 0.170533 0.433697 0.813929
C9    C     C_R   0.829155 0.564408 0.030162 0.816047
C10   C     C_R   0.169539 0.431586 0.979697 0.810048
C11   C     C_R   0.566110 0.024499 0.829565 0.800495
C12   C     C_R   0.433907 0.975474 0.170434 0.820741
C13   C     C_R   0.435640 0.170840 0.969702 0.815970
C14   C     C_R   0.568379 0.830473 0.020340 0.810125
C15   C     C_R   0.975509 0.433890 0.170433 0.802563
C16   C     C_R   0.024470 0.566116 0.829577 0.821530
C17   C     C_R   0.170538 0.975540 0.433702 0.814422
C18   C     C_R   0.829460 0.024481 0.566287 0.815129
O13   O     O_R   0.013780 0.867370 0.487190 -0.599015
O14   O     O_R   0.986220 0.132630 0.512810 -0.598827
O15   O     O_R   0.867370 0.487190 0.013780 -0.591445
O16   O     O_R   0.132630 0.512810 0.986220 -0.589080
O17   O     O_R   0.487190 0.013780 0.867370 -0.601109
O18   O     O_R   0.512810 0.986220 0.132630 -0.595506
O19   O     O_R   0.512810 0.132630 0.986220 -0.591979
O20   O     O_R   0.487190 0.867370 0.013780 -0.589477
O21   O     O_R   0.986220 0.512810 0.132630 -0.601085
O22   O     O_R   0.013780 0.487190 0.867370 -0.595334
O23   O     O_R   0.132630 0.986220 0.512810 -0.598358
O24   O     O_R   0.867370 0.013780 0.487190 -0.598719
C19   C     C_R   0.547980 0.009282 0.547251 0.057512
C20   C     C_R   0.452008 0.990761 0.452738 0.057981
C21   C     C_R   0.008654 0.548299 0.547327 0.056791
C22   C     C_R   0.991141 0.451744 0.452754 0.057684
C23   C     C_R   0.551311 0.546359 0.007498 0.080277
C24   C     C_R   0.454218 0.449052 0.991163 0.080411
C25   C     C_R   0.578800 0.933546 0.515617 0.063668
C26   C     C_R   0.421188 0.066498 0.484374 0.064357
C27   C     C_R   0.932937 0.517912 0.577302 0.062099
C28   C     C_R   0.066868 0.482108 0.422798 0.064023
C29   C     C_R   0.459107 0.582680 0.012127 0.059364
C30   C     C_R   0.541296 0.407582 0.003041 0.066784
C31   C     C_R   0.530857 0.924347 0.468265 0.068121
C32   C     C_R   0.469127 0.075692 0.531735 0.067858
C33   C     C_R   0.417257 0.540969 0.987910 0.058634
C34   C     C_R   0.593353 0.460083 0.993810 0.067707
C35   C     C_R   0.924246 0.469534 0.530047 0.067612
C36   C     C_R   0.075554 0.530495 0.470043 0.067585
C37   C     C_R   0.558265 0.022267 0.685839 -0.204632
C38   C     C_R   0.441753 0.977706 0.314166 -0.201859
C39   C     C_R   0.021675 0.686434 0.557910 -0.200912
C40   C     C_R   0.978200 0.313596 0.442127 -0.201418
C41   C     C_R   0.682060 0.553347 0.043570 -0.202782
C42   C     C_R   0.309698 0.427791 0.998533 -0.206136
C43   C     C_R   0.313601 0.977969 0.442197 -0.199348
C44   C     C_R   0.686375 0.022117 0.557766 -0.199932
C45   C     C_R   0.446879 0.318145 0.955416 -0.204977
C46   C     C_R   0.572133 0.690559 0.001176 -0.207988
C47   C     C_R   0.977848 0.441726 0.314098 -0.202050
C48   C     C_R   0.021991 0.558324 0.685955 -0.200286
H1    H     H_    0.491709 0.014860 0.717770 0.176965
H2    H     H_    0.508318 0.985095 0.282245 0.177455
H3    H     H_    0.014149 0.718586 0.491081 0.176060
H4    H     H_    0.985717 0.281446 0.508960 0.176192
H5    H     H_    0.708184 0.481973 0.061371 0.199963
H6    H     H_    0.270469 0.480321 0.030754 0.186914
H7    H     H_    0.281665 0.984442 0.509414 0.180399
H8    H     H_    0.718294 0.015687 0.490535 0.180610
H9    H     H_    0.518219 0.292115 0.936930 0.200579
H10   H     H_    0.519319 0.729766 0.969310 0.186426
H11   H     H_    0.984146 0.508689 0.282427 0.180115
H12   H     H_    0.015666 0.491370 0.717638 0.180045
C49   C     C_R   0.604446 0.032723 0.733529 -0.167157
C50   C     C_R   0.395584 0.967220 0.266482 -0.171859
C51   C     C_R   0.032299 0.733565 0.604652 -0.172778
C52   C     C_R   0.967655 0.266444 0.395355 -0.173968
C53   C     C_R   0.732145 0.601944 0.044606 -0.174148
C54   C     C_R   0.264542 0.389693 0.974721 -0.182307
C55   C     C_R   0.266444 0.967579 0.395340 -0.177396
C56   C     C_R   0.733544 0.032473 0.604629 -0.177610
C57   C     C_R   0.398153 0.267887 0.954979 -0.173542
C58   C     C_R   0.610243 0.735535 0.025182 -0.181436
C59   C     C_R   0.967413 0.395511 0.266438 -0.170387
C60   C     C_R   0.032503 0.604516 0.733585 -0.175815
C61   C     C_R   0.690095 0.044084 0.690550 0.299695
C62   C     C_R   0.309925 0.955881 0.309452 0.298267
C63   C     C_R   0.043894 0.690146 0.690574 0.297571
C64   C     C_R   0.956066 0.309863 0.309429 0.299034
C65   C     C_R   0.690932 0.690146 0.048451 0.305710
C66   C     C_R   0.309871 0.308999 0.951424 0.305493
N1    N     N_3   0.439311 0.153190 0.562972 -0.569002
H13   H     H_    0.436870 0.209662 0.508570 0.231413
H14   H     H_    0.375227 0.157635 0.606107 0.233735
N2    N     N_3   0.560655 0.846830 0.437061 -0.570444
H15   H     H_    0.624752 0.842347 0.393949 0.233137
H16   H     H_    0.563057 0.790377 0.491483 0.231612
N3    N     N_3   0.153058 0.560375 0.441205 -0.571475
H17   H     H_    0.209444 0.505094 0.440761 0.230857
H18   H     H_    0.158041 0.602307 0.376539 0.230909
N4    N     N_3   0.846751 0.439640 0.558890 -0.571651
H19   H     H_    0.841782 0.397700 0.623552 0.230263
H20   H     H_    0.790359 0.494914 0.559351 0.230742
N5    N     N_3   0.688614 0.426625 0.965930 -0.602658
H21   H     H_    0.709793 0.367219 0.012554 0.227672
H22   H     H_    0.706723 0.413056 0.904866 0.230620
N6    N     N_3   0.339766 0.593847 0.956376 -0.583990
H23   H     H_    0.289592 0.621368 0.006200 0.219147
H24   H     H_    0.356382 0.645730 0.901135 0.242293
N7    N     N_3   0.342084 0.134704 0.466207 -0.594434
H25   H     H_    0.295462 0.142972 0.526542 0.224008
H26   H     H_    0.358084 0.194450 0.429434 0.226059
N8    N     N_3   0.657906 0.865342 0.533783 -0.595262
H27   H     H_    0.641908 0.805594 0.570556 0.225231
H28   H     H_    0.704527 0.857075 0.473448 0.224573
N9    N     N_3   0.576069 0.312402 0.029334 -0.602194
H29   H     H_    0.634982 0.292441 0.981591 0.226781
H30   H     H_    0.590853 0.293661 0.089878 0.236325
N10   N     N_3   0.406203 0.659454 0.044889 -0.584079
H31   H     H_    0.377857 0.709975 0.995816 0.221018
H32   H     H_    0.354919 0.642045 0.100473 0.238255
N11   N     N_3   0.135531 0.461671 0.345252 -0.596937
H33   H     H_    0.144040 0.521233 0.297872 0.220229
H34   H     H_    0.195049 0.424428 0.362884 0.225350
N12   N     N_3   0.864293 0.538305 0.654878 -0.591235
H35   H     H_    0.804756 0.575534 0.637280 0.225409
H36   H     H_    0.855812 0.478728 0.702250 0.223716
N13   N     N_R   0.731739 0.070043 0.732951 0.140892
O25   O     O_R   0.782681 0.010018 0.782517 -0.295140
O26   O     O_R   0.716620 0.154045 0.723751 -0.357818
N14   N     N_R   0.268320 0.929854 0.267074 0.141031
O27   O     O_R   0.217180 0.989851 0.217696 -0.294550
O28   O     O_R   0.285436 0.845949 0.274287 -0.349078
N15   N     N_R   0.069851 0.731810 0.732958 0.141142
O29   O     O_R   0.153880 0.717292 0.723127 -0.348441
O30   O     O_R   0.009817 0.782686 0.782615 -0.294030
N16   N     N_R   0.930157 0.268184 0.267018 0.140853
O31   O     O_R   0.846170 0.283479 0.276002 -0.356566
O32   O     O_R   0.990229 0.217247 0.217442 -0.294467
N17   N     N_R   0.729965 0.731684 0.078267 0.140675
O33   O     O_R   0.778957 0.782987 0.020741 -0.294979
O34   O     O_R   0.728739 0.706437 0.161661 -0.355884
N18   N     N_R   0.268202 0.269775 0.921935 0.140570
O35   O     O_R   0.216687 0.221135 0.979786 -0.294959
O36   O     O_R   0.294478 0.269363 0.838942 -0.355777

loop_
_geom_bond_atom_site_label_1
_geom_bond_atom_site_label_2
_geom_bond_distance
_ccdc_geom_bond_type
C28   N11   1.435451 S    
C38   H2    1.083677 S    
O6    C14   1.293661 A    
C8    C52   1.474298 S    
C6    C45   1.411104 A    
O7    C11   1.300014 A    
C48   C60   1.407396 A    
C15   O21   1.296239 A    
C62   N14   1.436050 S    
C9    C53   1.470437 S    
Cu1   Cu2   2.677713 S    
C17   O23   1.292128 A    
N2    H16   1.044942 S    
C33   N6    1.435135 S    
C23   C29   1.420469 A    
C44   C56   1.408946 A    
C24   C30   1.420549 A    
C48   H12   1.083584 S    
C7    C51   1.474300 S    
C57   C66   1.395863 A    
C61   N13   1.436100 S    
N17   O33   1.302532 A    
C13   O19   1.297847 A    
C27   N12   1.435484 S    
C15   C59   1.472826 S    
C40   C52   1.409149 A    
N14   O28   1.300665 A    
C39   C51   1.409167 A    
N1    H14   1.045058 S    
C23   C34   1.419487 A    
O9    Cu4   1.964756 S    
C3    C48   1.399404 A    
C41   C53   1.400069 A    
C24   C33   1.421076 A    
O3    C15   1.299933 A    
O10   C10   1.293625 A    
O7    Cu6   1.966591 S    
C29   N10   1.435241 S    
O8    Cu5   1.966589 S    
Cu6   O18   1.971478 S    
C60   C63   1.407161 A    
C4    C47   1.399450 A    
C26   N7    1.435411 S    
N4    H19   1.045017 S    
Cu1   O13   1.971642 S    
C65   N17   1.436865 S    
C47   C59   1.407388 A    
C28   C36   1.415733 A    
C9    O15   1.297557 A    
N3    H18   1.045018 S    
O5    Cu5   1.964840 S    
C5    C46   1.410746 A    
N15   O29   1.300504 A    
N8    H28   1.045062 S    
C16   O22   1.296189 A    
C3    C21   1.488515 S    
C66   N18   1.437260 S    
C46   H10   1.077579 S    
N16   O32   1.302613 A    
C7    O13   1.292086 A    
C54   C66   1.404180 A    
O6    Cu6   1.964840 S    
N17   O34   1.300930 A    
Cu3   Cu4   2.687278 S    
C53   C65   1.396016 A    
C63   N15   1.436078 S    
C45   C57   1.399681 A    
N2    H15   1.045042 S    
N13   O26   1.300525 A    
C34   N5    1.434945 S    
N13   O25   1.302612 A    
C41   H5    1.075086 S    
O10   Cu3   1.964756 S    
C6    C42   1.411550 A    
C3    C39   1.400333 A    
O4    C16   1.299859 A    
O11   Cu2   1.969245 S    
O1    Cu1   1.969061 S    
C36   N3    1.435307 S    
O2    Cu2   1.969061 S    
Cu2   O23   1.971344 S    
C2    C43   1.400511 A    
C37   H1    1.083648 S    
N14   O27   1.302598 A    
N10   H32   1.045579 S    
C49   C61   1.407090 A    
O1    C17   1.298942 A    
C6    C24   1.519685 S    
Cu1   O24   1.971344 S    
C8    O14   1.292120 A    
C64   N16   1.436079 S    
C19   C25   1.409690 A    
C20   C26   1.409738 A    
Cu5   O20   1.963742 S    
C14   C58   1.466314 S    
O12   C8    1.299039 A    
C21   C36   1.409666 A    
N18   O36   1.300706 A    
C43   C55   1.408999 A    
N7    H26   1.044986 S    
O4    Cu4   1.966689 S    
Cu3   O15   1.963630 S    
Cu5   Cu6   2.687325 S    
C25   N8    1.435410 S    
Cu4   O16   1.963629 S    
C37   C49   1.407615 A    
N16   O31   1.300510 A    
C4    C40   1.400311 A    
C16   C60   1.472818 S    
C44   H8    1.083501 S    
C43   H7    1.083536 S    
N5    H21   1.045461 S    
C42   H6    1.077187 S    
C22   C28   1.409925 A    
C1    C19   1.488835 S    
C45   H9    1.074531 S    
C5    C41   1.410709 A    
C35   N4    1.435299 S    
C13   C57   1.470588 S    
N9    H29   1.045499 S    
C26   C32   1.415780 A    
O3    Cu3   1.966688 S    
N7    H25   1.045066 S    
C5    C23   1.518337 S    
C11   C49   1.472807 S    
O9    C9    1.300103 A    
N6    H24   1.045556 S    
Cu3   O22   1.971667 S    
C1    C37   1.399374 A    
O2    C18   1.298959 A    
C59   C64   1.407156 A    
C20   C31   1.410210 A    
C52   C64   1.406115 A    
C58   C65   1.404082 A    
C2    C38   1.399379 A    
C19   C32   1.410186 A    
C11   O17   1.296164 A    
C4    C22   1.488512 S    
C27   C35   1.415772 A    
N10   H31   1.045400 S    
N11   H33   1.045022 S    
C47   H11   1.083583 S    
C46   C58   1.404603 A    
C29   C33   1.411984 A    
Cu5   O17   1.971479 S    
C10   C54   1.466910 S    
C30   C34   1.410963 A    
O8    C12   1.300050 A    
N18   O35   1.302552 A    
N8    H27   1.044987 S    
C51   C63   1.406085 A    
N1    H13   1.044943 S    
N11   H34   1.044963 S    
N3    H17   1.044931 S    
C2    C20   1.488890 S    
C32   N1    1.435332 S    
C25   C31   1.415780 A    
O12   Cu1   1.969245 S    
C38   C50   1.407660 A    
C18   O24   1.292099 A    
Cu2   O14   1.971641 S    
N12   H36   1.045043 S    
N15   O30   1.302615 A    
C40   H4    1.083588 S    
N4    H20   1.044929 S    
N5    H22   1.045614 S    
C55   C62   1.406005 A    
C39   H3    1.083587 S    
C50   C62   1.407101 A    
C42   C54   1.404784 A    
O11   C7    1.299070 A    
C21   C27   1.409980 A    
Cu4   O21   1.971666 S    
C1    C44   1.400525 A    
C14   O20   1.298564 A    
N9    H30   1.045592 S    
Cu6   O19   1.963742 S    
C10   O16   1.298868 A    
N12   H35   1.044959 S    
C12   O18   1.296064 A    
C18   C56   1.474048 S    
C17   C55   1.474005 S    
C31   N2    1.435329 S    
C30   N9    1.434645 S    
C22   C35   1.409680 A    
C56   C61   1.405980 A    
N6    H23   1.045439 S    
O5    C13   1.299906 A    
C12   C50   1.472895 S    
