data_mof_unit_42914.cif
_audit_creation_date              2012-12-10T17:18:17-0500
_audit_creation_method            fapswitch 2.2
_symmetry_space_group_name_H-M    P1
_symmetry_Int_Tables_number       1
_space_group_crystal_system       triclinic
_cell_length_a                    10.116942
_cell_length_b                    10.755345
_cell_length_c                    14.933795
_cell_angle_alpha                 89.731364
_cell_angle_beta                  81.135843
_cell_angle_gamma                 97.314415
_cell_volume                      1592.0011495

loop_
_atom_site_label
_atom_site_type_symbol
_atom_type_description
_atom_site_fract_x
_atom_site_fract_y
_atom_site_fract_z
_atom_type_partial_charge
C1    C     C_R   0.559136 0.733498 0.491828 0.809290
C2    C     C_R   0.440877 0.266360 0.506801 0.930897
C3    C     C_R   0.602091 0.720460 0.940576 -0.169847
C4    C     C_R   0.340609 0.306755 0.064655 -0.171385
C5    C     C_2   0.601432 0.867637 0.490094 -0.234757
C6    C     C_2   0.401310 0.131544 0.504272 -0.206489
C7    C     C_2   0.515042 0.944610 0.469511 0.110871
C8    C     C_2   0.492043 0.058270 0.522883 0.061105
C9    C     C_2   0.927980 0.510502 0.507086 -0.122469
C10   C     C_2   0.072060 0.489649 0.492804 -0.094659
C11   C     C_R   0.500248 0.500072 0.672581 0.866410
C12   C     C_R   0.499459 0.499657 0.327300 0.868370
C13   C     C_R   0.419853 0.403245 0.195408 0.000677
C14   C     C_R   0.553250 0.609978 0.806687 0.024664
C15   C     C_R   0.497267 0.501445 0.231932 -0.109588
C16   C     C_R   0.499065 0.500938 0.768056 -0.106773
C17   C     C_R   0.565350 0.605115 0.179304 -0.013945
C18   C     C_R   0.433301 0.396169 0.820206 -0.007969
C19   C     C_R   0.547991 0.615748 0.088086 0.036818
C20   C     C_R   0.413926 0.402473 0.915213 0.039749
C21   C     C_R   0.479334 0.510911 0.048780 0.005432
C22   C     C_R   0.478787 0.509181 0.954874 -0.000712
C23   C     C_R   0.413889 0.406146 0.102987 0.096136
C24   C     C_R   0.546014 0.613224 0.900470 0.091404
C25   C     C_R   0.600178 0.725061 0.033836 -0.032591
C26   C     C_R   0.335945 0.304990 0.972125 -0.034637
H1    H     H_    0.645207 0.803131 0.899281 0.212972
H2    H     H_    0.283264 0.230583 0.107354 0.217770
H3    H     H_    0.106774 0.421516 0.444243 0.188725
H4    H     H_    0.893286 0.578753 0.555566 0.156031
H5    H     H_    0.121525 0.615325 0.582645 0.167103
H6    H     H_    0.878435 0.384534 0.417458 0.195450
N1    N     N_2   0.842700 0.448880 0.462930 -0.186718
N2    N     N_2   0.157300 0.551120 0.537070 -0.199356
O1    O     O_R   0.431060 0.692470 0.507460 -0.604998
O2    O     O_R   0.568940 0.307530 0.492540 -0.590887
O3    O     O_R   0.651120 0.659650 0.483670 -0.614575
O4    O     O_R   0.348880 0.340350 0.516330 -0.581170
O5    O     O_R   0.389960 0.516440 0.644050 -0.609014
O6    O     O_R   0.610040 0.483560 0.355950 -0.607702
O7    O     O_R   0.610030 0.483620 0.620260 -0.616255
O8    O     O_R   0.389970 0.516380 0.379740 -0.619328
Zn1   Zn    Zn3+2 0.353060 0.521920 0.515880 0.955377
Zn2   Zn    Zn3+2 0.646940 0.478080 0.484120 0.958697
N3    N     N_3   0.351628 0.297758 0.251209 -0.437315
H7    H     H_    0.278992 0.329011 0.300401 0.236149
H8    H     H_    0.421886 0.258512 0.283371 0.204153
N4    N     N_3   0.616696 0.717153 0.750870 -0.474812
H9    H     H_    0.546683 0.746569 0.713345 0.177360
H10   H     H_    0.697624 0.690705 0.705963 0.189322
N5    N     N_3   0.658487 0.694440 0.217057 -0.461711
H11   H     H_    0.735723 0.648398 0.235256 0.230404
H12   H     H_    0.607956 0.731537 0.275132 0.165464
N6    N     N_3   0.396959 0.280887 0.776283 -0.472491
H13   H     H_    0.483588 0.254820 0.737273 0.211487
H14   H     H_    0.327645 0.295284 0.733310 0.191364
C27   C     C_2   0.641835 0.848764 0.072014 0.476993
H15   H     H_    0.595121 0.873491 0.138706 0.077551
O9    O     O_2   0.726292 0.926096 0.028170 -0.545568
C28   C     C_2   0.239177 0.206050 0.939742 0.467774
H16   H     H_    0.187940 0.225241 0.883559 0.084197
O10   O     O_2   0.212650 0.102779 0.977299 -0.543906
N7    N     N_3   0.565017 0.093772 0.596476 -0.465969
H17   H     H_    0.560286 0.016310 0.639925 0.179629
H18   H     H_    0.665032 0.128040 0.571572 0.260399
N8    N     N_3   0.448027 0.919922 0.391571 -0.473510
H19   H     H_    0.383207 0.835774 0.399782 0.204228
H20   H     H_    0.520999 0.914776 0.334469 0.193618
C29   C     C_2   0.271164 0.080711 0.475080 0.418431
H21   H     H_    0.232696 0.982055 0.485986 0.093212
O11   O     O_2   0.204444 0.148664 0.440270 -0.556111
C30   C     C_2   0.737996 0.912525 0.510913 0.383337
H22   H     H_    0.782918 0.858365 0.556937 0.064442
O12   O     O_2   0.804637 0.005459 0.472163 -0.536242

loop_
_geom_bond_atom_site_label_1
_geom_bond_atom_site_label_2
_ccdc_geom_bond_type
C12   O6    A    
C6    C29   S    
C4    C26   A    
N7    H18   S    
N6    H14   S    
C19   C21   A    
C30   O12   D    
O1    Zn1   S    
C11   C16   S    
C2    O4    A    
C14   C24   A    
N8    H20   S    
C12   C15   S    
C1    O3    A    
H6    N1    S    
C17   N5    S    
O3    Zn2   S    
N4    H10   S    
N8    H19   S    
C3    C24   A    
H5    N2    S    
C29   O11   D    
C7    C8    S    
C10   N2    D    
C16   C18   A    
C21   C22   A    
C7    N8    S    
C13   N3    S    
C10   H3    S    
C1    O1    A    
C27   H15   S    
C2    C6    S    
C25   C27   S    
C9    H4    S    
C9    N1    D    
C1    C5    S    
C22   C24   A    
C28   O10   D    
N4    H9    S    
C4    H2    S    
C20   C22   A    
C11   O7    A    
C5    C30   S    
C18   C20   A    
C3    H1    S    
C13   C15   A    
C21   C23   A    
O5    Zn1   S    
C29   H21   S    
C19   C25   A    
O7    Zn2   S    
C14   C16   A    
O2    Zn2   S    
C27   O9    D    
O8    Zn1   S    
C18   N6    S    
C8    N7    S    
C12   O8    A    
N5    H11   S    
C11   O5    A    
O6    Zn2   S    
C3    C25   A    
C13   C23   A    
C15   C17   A    
C9    C10   S    
N3    H8    S    
C2    O2    A    
C5    C7    D    
C4    C23   A    
C14   N4    S    
N6    H13   S    
C30   H22   S    
C6    C8    D    
C17   C19   A    
N3    H7    S    
N1    Zn2   S    
C26   C28   S    
N2    Zn1   S    
O4    Zn1   S    
N7    H17   S    
C20   C26   A    
C28   H16   S    
N5    H12   S    
