data_mof_unit_6275.cif
_audit_creation_date              2012-12-10T16:49:29-0500
_audit_creation_method            fapswitch 2.2
_symmetry_space_group_name_H-M    P1
_symmetry_Int_Tables_number       1
_space_group_crystal_system       triclinic
_cell_length_a                    19.28473
_cell_length_b                    8.688198
_cell_length_c                    7.453522
_cell_angle_alpha                 102.87811
_cell_angle_beta                  94.978443
_cell_angle_gamma                 92.333824
_cell_volume                      1210.50706227

loop_
_atom_site_label
_atom_site_type_symbol
_atom_type_description
_atom_site_fract_x
_atom_site_fract_y
_atom_site_fract_z
_atom_type_partial_charge
C1    C     C_R   0.497905 0.199724 0.453305 0.888921
C2    C     C_R   0.814600 0.538489 0.360964 -0.180688
C3    C     C_R   0.145260 0.491423 0.485487 0.041993
C4    C     C_R   0.854740 0.508584 0.514515 0.041993
C5    C     C_R   0.178634 0.523663 0.334728 0.006808
C6    C     C_R   0.821366 0.476340 0.665272 0.006808
C7    C     C_R   0.251430 0.530169 0.345242 -0.261551
C8    C     C_R   0.748570 0.469831 0.654756 -0.261552
C9    C     C_R   0.291329 0.501327 0.499749 -0.018569
C10   C     C_R   0.708671 0.498675 0.500251 -0.018569
C11   C     C_R   0.930400 0.504818 0.508630 0.460552
C12   C     C_R   0.502095 0.800276 0.546695 0.888921
C13   C     C_R   0.069600 0.495188 0.491370 0.460554
C14   C     C_2   0.140639 0.544598 0.160696 0.372821
C15   C     C_2   0.859361 0.455404 0.839304 0.372820
C16   C     C_2   0.496905 0.031900 0.426968 -0.369889
C17   C     C_2   0.503095 0.968100 0.573032 -0.369889
C18   C     C_R   0.367456 0.500645 0.501010 0.790812
C19   C     C_R   0.632544 0.499355 0.498990 0.790812
C20   C     C_R   0.257890 0.467455 0.646916 -0.192185
C21   C     C_R   0.742110 0.532551 0.353087 -0.192186
C22   C     C_R   0.185400 0.461520 0.639039 -0.180687
Cu1   Cu    Cu3+1 0.507710 0.517380 0.684380 0.950336
Cu2   Cu    Cu3+1 0.492290 0.482620 0.315620 0.950336
H1    H     H_    0.277086 0.555008 0.230047 0.143892
H2    H     H_    0.833631 0.390316 0.925934 0.057424
H3    H     H_    0.491071 0.960473 0.286121 0.180048
H4    H     H_    0.508929 0.039527 0.713879 0.180048
H5    H     H_    0.722914 0.444988 0.769950 0.143892
H6    H     H_    0.444996 0.378851 0.948404 0.223239
H7    H     H_    0.555004 0.621149 0.051596 0.223239
H8    H     H_    0.287646 0.443730 0.766845 0.145991
H9    H     H_    0.712354 0.556279 0.233160 0.145991
H10   H     H_    0.160482 0.435714 0.754604 0.167383
H11   H     H_    0.839517 0.564299 0.245401 0.167386
H12   H     H_    0.166368 0.609682 0.074064 0.057422
N1    N     N_R   0.034951 0.615969 0.445628 -0.174706
N2    N     N_R   0.965049 0.384037 0.554373 -0.174707
N3    N     N_R   0.966401 0.620212 0.452984 -0.195314
N4    N     N_R   0.033599 0.379794 0.547017 -0.195314
N5    N     N_2   0.480680 0.456420 0.038530 -0.217644
N6    N     N_2   0.519320 0.543580 0.961470 -0.217644
O1    O     O_R   0.505010 0.286130 0.619770 -0.583060
O2    O     O_2   0.917870 0.516178 0.892685 -0.479927
O3    O     O_R   0.494990 0.713870 0.380230 -0.583060
O4    O     O_R   0.491990 0.256780 0.308370 -0.582834
O5    O     O_R   0.508010 0.743220 0.691630 -0.582834
O6    O     O_R   0.406650 0.514660 0.655750 -0.590555
O7    O     O_R   0.593350 0.485340 0.344250 -0.590555
O8    O     O_R   0.393640 0.485310 0.344340 -0.583298
O9    O     O_R   0.606360 0.514690 0.655660 -0.583298
O10   O     O_2   0.082129 0.483826 0.107319 -0.479927

loop_
_geom_bond_atom_site_label_1
_geom_bond_atom_site_label_2
_ccdc_geom_bond_type
C2    H11   S    
C12   C17   S    
C11   N2    A    
C2    C4    A    
Cu1   Cu2   S    
H6    N5    S    
H7    N6    S    
N5    N6    D    
C19   O7    A    
C9    C20   A    
Cu1   O9    S    
C7    H1    S    
C10   C19   S    
Cu2   O4    S    
C2    C21   A    
Cu1   O1    S    
N1    N3    A    
C1    C16   S    
C4    C11   S    
N2    N4    A    
Cu2   N5    S    
C5    C14   S    
C16   C17   D    
Cu1   N6    S    
C16   H3    S    
C12   O5    A    
Cu2   O3    S    
C4    C6    A    
C20   C22   A    
C15   O2    D    
C5    C7    A    
C10   C21   A    
Cu2   O8    S    
C22   H10   S    
C1    O4    A    
C21   H9    S    
C8    H5    S    
C14   H12   S    
C19   O9    A    
C9    C18   S    
Cu1   O5    S    
C18   O8    A    
C8    C10   A    
C11   N3    A    
C20   H8    S    
Cu2   O7    S    
C7    C9    A    
C15   H2    S    
C3    C22   A    
C6    C8    A    
Cu1   O6    S    
C3    C5    A    
C6    C15   S    
C17   H4    S    
C13   N1    A    
C1    O1    A    
C14   O10   D    
C18   O6    A    
C12   O3    A    
C13   N4    A    
C3    C13   S    
