data_mof_unit_46157.cif
_audit_creation_date              2013-03-05T15:47:47-0500
_audit_creation_method            fapswitch 2.2
_symmetry_space_group_name_H-M    P1
_symmetry_Int_Tables_number       1
_space_group_crystal_system       triclinic
_cell_length_a                    21.641854
_cell_length_b                    7.208254
_cell_length_c                    18.643049
_cell_angle_alpha                 90.00509
_cell_angle_beta                  96.058582
_cell_angle_gamma                 90.004691
_cell_volume                      2892.07086649

loop_
_atom_site_label
_atom_site_type_symbol
_atom_site_description
_atom_site_fract_x
_atom_site_fract_y
_atom_site_fract_z
_atom_type_partial_charge
O1    O     O_R   0.449650 0.506500 0.414480 -0.576583
O2    O     O_R   0.550350 0.006500 0.585520 -0.576182
O3    O     O_R   0.432010 0.173150 0.560250 -0.580995
O4    O     O_R   0.567990 0.673150 0.439750 -0.580781
C1    C     C_R   0.416631 0.344724 0.581463 0.941482
C2    C     C_R   0.583371 0.844719 0.418538 0.939170
O5    O     O_R   0.442320 0.176650 0.413480 -0.577656
O6    O     O_R   0.557680 0.676650 0.586520 -0.577371
O7    O     O_R   0.560730 0.008380 0.437700 -0.575045
O8    O     O_R   0.439270 0.508380 0.562300 -0.575375
C3    C     C_R   0.427957 0.344555 0.387872 0.923112
C4    C     C_R   0.572039 0.844572 0.612131 0.922926
O9    O     O_3   0.538840 0.339860 0.508120 -0.274163
O10   O     O_3   0.461160 0.839860 0.491880 -0.274799
V1    V     V_3+5 0.492800 0.064220 0.498490 1.233684
V2    V     V_3+5 0.507200 0.564220 0.501510 1.233907
C5    C     C_R   0.875219 0.937134 0.689241 -0.086223
C6    C     C_R   0.124799 0.437575 0.310753 -0.086338
H1    H     H_    0.961796 0.980802 0.753799 0.186282
H2    H     H_    0.038230 0.481244 0.246192 0.186218
H3    H     H_    0.897236 0.958468 0.640493 0.176752
H4    H     H_    0.102792 0.459084 0.359497 0.176706
C7    C     C_R   0.886986 0.938770 0.819437 -0.159959
C8    C     C_R   0.113021 0.438857 0.180558 -0.159883
C9    C     C_R   0.587466 0.801826 0.743386 -0.235984
C10   C     C_R   0.412516 0.301543 0.256635 -0.235708
C11   C     C_R   0.624181 0.770595 0.807828 -0.148575
C12   C     C_R   0.375792 0.270233 0.192202 -0.148805
C13   C     C_R   0.689032 0.781702 0.812009 0.332225
C14   C     C_R   0.310945 0.281470 0.188017 0.332336
C15   C     C_R   0.718164 0.843603 0.750922 -0.065550
C16   C     C_R   0.281828 0.343583 0.249087 -0.065532
C17   C     C_R   0.679993 0.862122 0.683531 0.088081
C18   C     C_R   0.320007 0.362206 0.316471 0.087797
C19   C     C_R   0.783645 0.882029 0.753322 0.134064
C20   C     C_R   0.216355 0.382115 0.246679 0.134104
C21   C     C_R   0.810942 0.899948 0.687316 0.061800
C22   C     C_R   0.189068 0.400274 0.312682 0.061783
C23   C     C_R   0.773209 0.888612 0.620750 -0.102340
C24   C     C_R   0.226801 0.389063 0.379248 -0.102233
C25   C     C_R   0.708521 0.883468 0.619849 -0.237816
C26   C     C_R   0.291487 0.383788 0.380148 -0.237792
C27   C     C_R   0.822669 0.910941 0.818930 -0.133829
C28   C     C_R   0.177331 0.410902 0.181065 -0.133841
C29   C     C_R   0.912617 0.953562 0.754320 -0.050511
C30   C     C_R   0.087401 0.453895 0.245673 -0.050451
C31   C     C_R   0.614083 0.845766 0.680578 -0.153209
C32   C     C_R   0.385912 0.345706 0.319428 -0.152786
H5    H     H_    0.804057 0.918944 0.870244 0.139295
H6    H     H_    0.195939 0.418728 0.129746 0.139276
H7    H     H_    0.537786 0.779930 0.741586 0.172377
H8    H     H_    0.462187 0.279473 0.258450 0.171823
H9    H     H_    0.601916 0.723622 0.853933 0.176346
H10   H     H_    0.398044 0.223079 0.146112 0.176371
H11   H     H_    0.680501 0.885194 0.568108 0.109935
H12   H     H_    0.319508 0.385606 0.431887 0.109761
C33   C     C_R   0.633838 0.735221 0.308946 -0.066579
C34   C     C_R   0.366337 0.235510 0.691234 -0.067608
C35   C     C_R   0.632007 0.857853 0.367704 -0.263456
C36   C     C_R   0.368050 0.357881 0.632371 -0.263300
C37   C     C_R   0.675462 0.002098 0.377073 -0.054966
C38   C     C_R   0.324566 0.501996 0.622980 -0.056294
C39   C     C_R   0.722029 0.026729 0.330367 0.059302
C40   C     C_R   0.278045 0.526724 0.669729 0.059816
C41   C     C_R   0.726634 0.896799 0.274443 0.073072
C42   C     C_R   0.273481 0.396929 0.725699 0.073090
C43   C     C_R   0.682608 0.749802 0.263765 0.080823
C44   C     C_R   0.317576 0.250127 0.736457 0.081087
C45   C     C_R   0.765181 0.174907 0.340005 -0.245056
C46   C     C_R   0.234914 0.674928 0.660101 -0.244946
C47   C     C_R   0.813886 0.189598 0.295260 0.284126
C48   C     C_R   0.186192 0.689596 0.704820 0.284085
C49   C     C_R   0.818413 0.061987 0.237552 -0.176795
C50   C     C_R   0.181648 0.561992 0.762516 -0.176788
C51   C     C_R   0.774436 0.915032 0.228080 0.016426
C52   C     C_R   0.225667 0.415182 0.772051 0.016481
C53   C     C_R   0.778135 0.784410 0.172064 0.203892
C54   C     C_R   0.222006 0.284748 0.828128 0.204124
C55   C     C_R   0.734871 0.640298 0.162257 -0.118483
C56   C     C_R   0.265367 0.140970 0.838069 -0.119304
C57   C     C_R   0.687585 0.623923 0.206844 -0.189521
C58   C     C_R   0.312687 0.124652 0.793528 -0.189648
C59   C     C_R   0.865089 0.075619 0.188623 0.356307
C60   C     C_R   0.134929 0.575545 0.811395 0.356369
C61   C     C_R   0.868004 0.942828 0.132974 -0.311367
C62   C     C_R   0.132029 0.442858 0.867073 -0.311156
C63   C     C_R   0.824775 0.798315 0.125939 -0.154851
C64   C     C_R   0.175325 0.298563 0.874204 -0.155173
H13   H     H_    0.672851 0.093751 0.422546 0.166428
H14   H     H_    0.327122 0.593490 0.577454 0.166361
H15   H     H_    0.826834 0.697146 0.083158 0.174473
H16   H     H_    0.173288 0.197516 0.917025 0.174368
H17   H     H_    0.737374 0.539674 0.119434 0.153304
H18   H     H_    0.262925 0.040587 0.880982 0.153589
H19   H     H_    0.655271 0.510587 0.196089 0.165305
H20   H     H_    0.345085 0.011677 0.804484 0.166782
O11   O     O_R   0.060820 0.290050 0.937800 -0.582314
O12   O     O_R   0.939180 0.790050 0.062200 -0.582347
O13   O     O_R   0.057690 0.616620 0.086540 -0.590704
O14   O     O_R   0.942310 0.116620 0.913460 -0.590669
C65   C     C_R   0.071754 0.448561 0.112319 0.957460
C66   C     C_R   0.928249 0.948540 0.887678 0.957468
O15   O     O_R   0.068010 0.619890 0.939770 -0.560219
O16   O     O_R   0.931990 0.119890 0.060230 -0.560198
O17   O     O_R   0.949640 0.787940 0.914460 -0.554504
O18   O     O_R   0.050360 0.287940 0.085540 -0.554468
C67   C     C_R   0.083554 0.451692 0.918179 0.986666
C68   C     C_R   0.916453 0.951690 0.081831 0.986706
O19   O     O_3   0.961210 0.453080 0.991940 -0.272673
O20   O     O_3   0.038790 0.953080 0.008060 -0.272667
V3    V     V_3+5 0.007200 0.728820 0.001500 1.286765
V4    V     V_3+5 0.992800 0.228820 0.998500 1.286766
C69   C     C_2   0.760144 0.317614 0.396915 1.132483
O21   O     O_2   0.804827 0.351539 0.440744 -0.550039
O22   O     O_R   0.704558 0.414811 0.399564 -0.801236
H21   H     H_    0.707034 0.508937 0.440191 0.319035
C70   C     C_2   0.240045 0.817823 0.603290 1.132581
O23   O     O_2   0.195385 0.852173 0.559490 -0.549917
O24   O     O_R   0.295708 0.914702 0.600701 -0.801747
H22   H     H_    0.293301 0.008970 0.560133 0.318892
N1    N     N_R   0.858612 0.335172 0.309845 0.264616
O25   O     O_R   0.842127 0.507054 0.298257 -0.375711
O26   O     O_R   0.911305 0.299076 0.347532 -0.288485
N2    N     N_R   0.141500 0.835241 0.690262 0.264632
O27   O     O_R   0.158000 0.007067 0.702005 -0.375639
O28   O     O_R   0.088844 0.799325 0.652459 -0.288438
N3    N     N_R   0.910915 0.219537 0.195823 0.248559
O29   O     O_R   0.897670 0.382510 0.168379 -0.383066
O30   O     O_R   0.968451 0.177715 0.216852 -0.385979
N4    N     N_R   0.089036 0.719243 0.804107 0.248495
O31   O     O_R   0.102163 0.882267 0.831589 -0.382758
O32   O     O_R   0.031539 0.677128 0.782987 -0.385979
C71   C     C_2   0.799852 0.877824 0.550774 1.023964
O33   O     O_2   0.776920 0.968306 0.499410 -0.665227
O34   O     O_R   0.849675 0.758748 0.542763 -0.746602
H23   H     H_    0.862921 0.761700 0.492201 0.370231
C72   C     C_2   0.200157 0.378563 0.449228 1.024009
O35   O     O_2   0.223088 0.469261 0.500542 -0.665259
O36   O     O_R   0.150329 0.259537 0.457299 -0.746543
H24   H     H_    0.137079 0.262703 0.507858 0.370170
N5    N     N_R   0.723502 0.699808 0.874078 0.216503
O37   O     O_R   0.764537 0.571825 0.865589 -0.396914
O38   O     O_R   0.706509 0.728107 0.938099 -0.421476
N6    N     N_R   0.276454 0.199487 0.125971 0.216506
O39   O     O_R   0.235395 0.071586 0.134496 -0.396917
O40   O     O_R   0.293450 0.227606 0.061942 -0.421633
C73   C     C_2   0.580009 0.611720 0.289794 1.010242
O41   O     O_2   0.586340 0.443150 0.290283 -0.629110
O42   O     O_R   0.521550 0.691793 0.272421 -0.801382
H25   H     H_    0.488015 0.597217 0.258453 0.321788
C74   C     C_2   0.420281 0.112352 0.710362 1.010542
O43   O     O_2   0.413882 0.943781 0.711322 -0.630483
O44   O     O_R   0.478943 0.192733 0.725994 -0.801222
H26   H     H_    0.512546 0.098562 0.740222 0.321834

loop_
_geom_bond_atom_site_label_1
_geom_bond_atom_site_label_2
_geom_bond_distance
_ccdc_geom_bond_type
C42   C44   1.424945 A    
C39   C41   1.412750 A    
C7    C29   1.391024 A    
C63   H15   1.085039 S    
C11   C13   1.399701 A    
C70   O23   1.223004 D    
C62   C67   1.491123 S    
O1    C3    1.334088 A    
O2    C4    1.334122 A    
C2    O7    1.340299 A    
N3    O30   1.300800 A    
C14   N6    1.435949 S    
O34   H23   1.014026 S    
C23   C25   1.398783 A    
O18   V4    1.984846 S    
O5    C3    1.325973 A    
C72   O36   1.398489 S    
C45   C69   1.489947 S    
C50   C52   1.422504 A    
C16   C20   1.439993 A    
O15   V3    1.998157 S    
C19   C21   1.425960 A    
C60   C62   1.417771 A    
C55   H17   1.084177 S    
N2    O28   1.301054 A    
C70   O24   1.397594 S    
C57   H19   1.080258 S    
C54   C56   1.397339 A    
C33   C35   1.411356 A    
C7    C66   1.476879 S    
C46   C70   1.489989 S    
C54   C64   1.397004 A    
O22   H21   1.014019 S    
O12   C68   1.330957 A    
C66   O17   1.324821 A    
C36   C38   1.400293 A    
C8    C65   1.476872 S    
C45   C47   1.415542 A    
O20   V3    1.754319 S    
C25   H11   1.083899 S    
C38   C40   1.410757 A    
C73   O41   1.222737 D    
C26   H12   1.083900 S    
C64   H16   1.085042 S    
C41   C43   1.424765 A    
C18   C26   1.403248 A    
C74   O43   1.223309 D    
C15   C17   1.435156 A    
C40   C46   1.417608 A    
C61   C68   1.491176 S    
C19   C27   1.426404 A    
C9    C31   1.394858 A    
C10   C32   1.394806 A    
C61   C63   1.396951 A    
O17   V3    1.984952 S    
C42   C52   1.422533 A    
O6    V2    1.999046 S    
C22   C24   1.414067 A    
C48   N2    1.433930 S    
C49   C51   1.422461 A    
C3    C32   1.487006 S    
C33   C43   1.422044 A    
C4    C31   1.487033 S    
C6    C30   1.390591 A    
C37   H13   1.080902 S    
C53   C55   1.397456 A    
C13   N5    1.435956 S    
O36   H24   1.014027 S    
C35   C37   1.400416 A    
C58   H20   1.079995 S    
C52   C54   1.414513 A    
C39   C45   1.417620 A    
C17   C25   1.403253 A    
C48   C50   1.426599 A    
O19   V4    1.754442 S    
C59   N3    1.431615 S    
O16   V4    1.998155 S    
O11   V4    1.998509 S    
C12   H10   1.083100 S    
C27   H5    1.077992 S    
O5    V1    1.999232 S    
C5    H3    1.080759 S    
H1    C29   1.083314 S    
C5    C29   1.390608 A    
C40   C42   1.412725 A    
O4    V2    1.998202 S    
N4    O32   1.300797 A    
C9    H7    1.083702 S    
C10   H8    1.083691 S    
N6    O40   1.301550 A    
O6    C4    1.325965 A    
O13   V3    1.999070 S    
C24   C72   1.482942 S    
O14   C66   1.326824 A    
O1    V2    1.982446 S    
C5    C21   1.413382 A    
O2    V1    1.982549 S    
C51   C53   1.414564 A    
N1    O25   1.301098 A    
C56   C58   1.389834 A    
C59   C61   1.417810 A    
C43   C57   1.408895 A    
C33   C73   1.479573 S    
C71   O33   1.220045 D    
C17   C31   1.426531 A    
C15   C19   1.439976 A    
C20   C28   1.426410 A    
O4    C2    1.350726 A    
C18   C32   1.426534 A    
C56   H18   1.084167 S    
C20   C22   1.425954 A    
O16   C68   1.331848 A    
O3    V1    1.998206 S    
C34   C74   1.480057 S    
C55   C57   1.389854 A    
C69   O21   1.222997 D    
C23   C71   1.482970 S    
C28   H6    1.077986 S    
C65   O18   1.324817 A    
O12   V3    1.998518 S    
C1    C36   1.491883 S    
O13   C65   1.326811 A    
C6    H4    1.080756 S    
C7    C27   1.405349 A    
C2    C35   1.491830 S    
C47   N1    1.433950 S    
C37   C39   1.410891 A    
C50   C60   1.434112 A    
C24   C26   1.398771 A    
O3    C1    1.350741 A    
C46   C48   1.415495 A    
O24   H22   1.014021 S    
C11   H9    1.083107 S    
O14   V4    1.998884 S    
C9    C11   1.387056 A    
C73   O42   1.397257 S    
C72   O35   1.220038 D    
C10   C12   1.387059 A    
C41   C51   1.422458 A    
N6    O39   1.301742 A    
C44   C58   1.408978 A    
N5    O38   1.301555 A    
N4    O31   1.301236 A    
C6    C22   1.413379 A    
C8    C30   1.391013 A    
C12   C14   1.399702 A    
C13   C15   1.430098 A    
O8    V2    1.989820 S    
N5    O37   1.301746 A    
C14   C16   1.430096 A    
C34   C44   1.422433 A    
C8    C28   1.405362 A    
C38   H14   1.080919 S    
C60   N4    1.431623 S    
C62   C64   1.396908 A    
C74   O44   1.397911 S    
O7    V1    1.989827 S    
N1    O26   1.301052 A    
O11   C67   1.330954 A    
C1    O8    1.340248 A    
C53   C63   1.396992 A    
C21   C23   1.414090 A    
O9    V2    1.755548 S    
C47   C49   1.426629 A    
C71   O34   1.398492 S    
O10   V1    1.755424 S    
O15   C67   1.331803 A    
O44   H26   1.009649 S    
O42   H25   1.009594 S    
C34   C36   1.411551 A    
C49   C59   1.434106 A    
H2    C30   1.083311 S    
N3    O29   1.301229 A    
C16   C18   1.435171 A    
N2    O27   1.301098 A    
C69   O22   1.397560 S    
