data_mof_unit_43634.cif
_audit_creation_date              2013-03-05T16:09:56-0500
_audit_creation_method            fapswitch 2.2
_symmetry_space_group_name_H-M    P1
_symmetry_Int_Tables_number       1
_space_group_crystal_system       triclinic
_cell_length_a                    10.681755
_cell_length_b                    10.081086
_cell_length_c                    10.67526
_cell_angle_alpha                 89.923829
_cell_angle_beta                  88.318934
_cell_angle_gamma                 89.197368
_cell_volume                      1148.94341162

loop_
_atom_site_label
_atom_site_type_symbol
_atom_site_description
_atom_site_fract_x
_atom_site_fract_y
_atom_site_fract_z
_atom_type_partial_charge
O1    O     O_R   0.316770 0.614620 0.499990 -0.626545
O2    O     O_R   0.683230 0.614620 0.500010 -0.622970
O3    O     O_R   0.316800 0.385290 0.500000 -0.594894
O4    O     O_R   0.683200 0.385290 0.500000 -0.591730
C1    C     C_R   0.261142 0.500903 0.493999 0.935712
C2    C     C_R   0.739310 0.498962 0.496695 0.889489
O5    O     O_R   0.500010 0.614690 0.316770 -0.615843
O6    O     O_R   0.499990 0.614690 0.683230 -0.615136
O7    O     O_R   0.500040 0.385360 0.316770 -0.547861
O8    O     O_R   0.499960 0.385360 0.683230 -0.567010
C3    C     C_R   0.515046 0.498940 0.260447 0.938526
C4    C     C_R   0.486904 0.499445 0.740035 0.905775
Zn1   Zn    Zn3+2 0.500000 0.653120 0.500000 1.009489
Zn2   Zn    Zn3+2 0.500000 0.346880 0.500000 1.113623
C5    C     C_R   0.594477 0.726453 0.096243 0.132223
C6    C     C_R   0.417774 0.730433 0.907622 0.143779
C7    C     C_R   0.554712 0.847773 0.046036 0.153181
C8    C     C_R   0.457415 0.849672 0.958495 0.161512
C9    C     C_R   0.475650 0.612912 0.944148 -0.089093
C10   C     C_R   0.537599 0.610917 0.056367 -0.101035
C11   C     C_R   0.536079 0.493675 0.124908 -0.191152
C12   C     C_R   0.470225 0.495652 0.876203 -0.200519
C13   C     C_R   0.518287 0.373352 0.062496 0.243747
C14   C     C_R   0.483076 0.374496 0.939056 0.226451
C15   C     C_R   0.069281 0.406535 0.410764 0.230148
C16   C     C_R   0.939049 0.403279 0.415320 0.213610
C17   C     C_R   0.872485 0.497668 0.489170 -0.178305
C18   C     C_R   0.128810 0.503694 0.481399 -0.178872
C19   C     C_R   0.933269 0.598826 0.550648 -0.159601
C20   C     C_R   0.060999 0.603183 0.544587 -0.169552
H1    H     H_    0.881926 0.674101 0.604327 0.184704
H2    H     H_    0.106613 0.682692 0.592038 0.205193
C21   C     C_R   0.591938 0.069661 0.556442 0.106610
C22   C     C_R   0.408351 0.072448 0.443340 0.073987
H3    H     H_    0.666377 0.120667 0.602167 0.162968
H4    H     H_    0.334545 0.125700 0.397114 0.199316
C23   C     C_R   0.591791 0.927442 0.556716 0.007331
C24   C     C_R   0.408365 0.930285 0.443136 -0.004178
H5    H     H_    0.665954 0.874111 0.602911 0.135510
H6    H     H_    0.334305 0.879276 0.396782 0.155891
N1    N     N_R   0.500000 0.857200 0.500000 -0.102840
N2    N     N_R   0.500000 0.142810 0.500000 -0.101406
N3    N     N_R   0.542897 0.250313 0.122429 0.257173
O9    O     O_R   0.449073 0.177390 0.158322 -0.298545
O10   O     O_R   0.650376 0.234492 0.174867 -0.236823
N4    N     N_R   0.455124 0.253224 0.879287 0.265065
O11   O     O_R   0.547709 0.177037 0.840977 -0.341549
O12   O     O_R   0.345869 0.242172 0.829574 -0.280286
I1    I     I_    0.763611 0.709923 0.198946 -0.118199
I2    I     I_    0.242381 0.719411 0.817974 -0.179979
N5    N     N_R   0.614310 0.965497 0.083815 0.271402
O13   O     O_R   0.631341 0.983611 0.202793 -0.292477
O14   O     O_R   0.684837 0.027650 0.002326 -0.273177
N6    N     N_R   0.395316 0.968768 0.922978 0.273200
O15   O     O_R   0.377135 0.988355 0.804262 -0.315438
O16   O     O_R   0.320580 0.026871 0.004723 -0.250343
N7    N     N_R   0.139731 0.317073 0.329815 0.230463
O17   O     O_R   0.111261 0.192131 0.324970 -0.303672
O18   O     O_R   0.224910 0.362777 0.252198 -0.355528
N8    N     N_R   0.875540 0.314595 0.334927 0.245811
O19   O     O_R   0.885959 0.331092 0.214200 -0.271584
O20   O     O_R   0.835117 0.202236 0.379157 -0.295746

loop_
_geom_bond_atom_site_label_1
_geom_bond_atom_site_label_2
_geom_bond_distance
_ccdc_geom_bond_type
C24   H6    1.081734 S    
O7    Zn2   1.993607 S    
N6    O16   1.299737 A    
C19   C20   1.365335 A    
O6    C4    1.317089 A    
C17   C19   1.391965 A    
C1    C18   1.423732 S    
N3    O10   1.299692 A    
N6    O15   1.302121 A    
O6    Zn1   1.993517 S    
C9    C10   1.385451 A    
C22   N2    1.372121 A    
Zn2   N2    2.057248 S    
C13   C14   1.380934 A    
C14   N4    1.419292 S    
C7    N5    1.419116 S    
C18   C20   1.392262 A    
C7    C8    1.417832 A    
C16   C17   1.408072 A    
C19   H1    1.084468 S    
O4    Zn2   2.000153 S    
C15   C18   1.407067 A    
C20   H2    1.078401 S    
O7    C3    1.302272 A    
N7    O17   1.301325 A    
O2    C2    1.303406 A    
O3    Zn2   1.989512 S    
O8    C4    1.304728 A    
C6    C9    1.389329 A    
O1    C1    1.301110 A    
C21   N2    1.372779 A    
Zn1   N1    2.057348 S    
C21   H3    1.081584 S    
C6    I2    2.132964 S    
C21   C23   1.433744 A    
O5    C3    1.319042 A    
C22   H4    1.078665 S    
C11   C13   1.402645 A    
N3    O9    1.299621 A    
C23   N1    1.372873 A    
C5    C10   1.394003 A    
C23   H5    1.081709 S    
C12   C14   1.399764 A    
N7    O18   1.301220 A    
O4    C2    1.300589 A    
O1    Zn1   2.000659 S    
C8    N6    1.420017 S    
N5    O13   1.301832 A    
C15   N7    1.439210 S    
N4    O12   1.302363 A    
C4    C12   1.459834 S    
O5    Zn1   1.994528 S    
C9    C12   1.390503 A    
C13   N3    1.419711 S    
C10   C11   1.389295 A    
C24   N1    1.372191 A    
C6    C8    1.395952 A    
O8    Zn2   1.994616 S    
C5    C7    1.400201 A    
O2    Zn1   1.989992 S    
N4    O11   1.300403 A    
N5    O14   1.300073 A    
C15   C16   1.391379 A    
C22   C24   1.433159 A    
C16   N8    1.431509 S    
C3    C11   1.458651 S    
N8    O20   1.301051 A    
C2    C17   1.422325 S    
C5    I1    2.145021 S    
N8    O19   1.300982 A    
O3    C1    1.303296 A    
