data_mof_unit_49707.cif
_audit_creation_date              2012-12-11T14:29:26-0500
_audit_creation_method            fapswitch 2.2
_symmetry_space_group_name_H-M    P1
_symmetry_Int_Tables_number       1
_space_group_crystal_system       triclinic
_cell_length_a                    6.938262
_cell_length_b                    14.817016
_cell_length_c                    16.183247
_cell_angle_alpha                 90.471534
_cell_angle_beta                  90.74873
_cell_angle_gamma                 90.312616
_cell_volume                      1663.48387083

loop_
_atom_site_label
_atom_site_type_symbol
_atom_type_description
_atom_site_fract_x
_atom_site_fract_y
_atom_site_fract_z
_atom_type_partial_charge
O1    O     O_R   0.494400 0.416610 0.413880 -0.546617
O2    O     O_R   0.823920 0.406790 0.585520 -0.531312
O3    O     O_R   0.994250 0.583390 0.586120 -0.534044
C1    C     C_R   0.655281 0.383562 0.612086 0.663723
O4    O     O_R   0.824110 0.405730 0.414490 -0.539401
O5    O     O_R   0.994440 0.582310 0.413870 -0.541778
C2    C     C_R   0.653348 0.382844 0.387049 0.771629
O6    O     O_R   0.494210 0.417690 0.586130 -0.550302
O7    O     O_3   0.660810 0.557940 0.500000 -0.368621
V1    V     V_3+5 0.935650 0.489250 0.500000 1.443710
O8    O     O_R   0.324160 0.593210 0.414480 -0.546330
C3    C     C_R   0.155262 0.613212 0.385174 0.737005
O9    O     O_R   0.323970 0.594270 0.585510 -0.543690
C4    C     C_R   0.156607 0.615855 0.614224 0.694463
V2    V     V_3+5 0.435660 0.510750 0.500000 1.419116
O10   O     O_3   0.160630 0.442060 0.500000 -0.373609
H1    H     H_    0.416242 0.905066 0.521325 0.189100
C5    C     C_R   0.028310 0.568536 0.777868 -0.148597
C6    C     C_R   0.966883 0.543138 0.855911 -0.127121
C7    C     C_R   0.956797 0.606767 0.919151 -0.116561
C8    C     C_R   0.006155 0.696452 0.904625 -0.149729
C9    C     C_R   0.065230 0.724986 0.825439 0.061763
C10   C     C_R   0.078777 0.659223 0.761021 0.080860
C11   C     C_R   0.110454 0.817055 0.810039 -0.172982
C12   C     C_R   0.167896 0.843008 0.728864 -0.062598
C13   C     C_R   0.207255 0.774413 0.668836 0.026941
C14   C     C_R   0.149928 0.683863 0.682644 -0.155829
C15   C     C_R   0.183782 0.934891 0.702985 0.367717
C16   C     C_R   0.284548 0.955538 0.631101 -0.098223
C17   C     C_R   0.344908 0.887869 0.578239 -0.164595
C18   C     C_R   0.297459 0.798822 0.594271 -0.144726
H2    H     H_    0.038618 0.515869 0.731499 0.100491
H3    H     H_    0.929178 0.473446 0.867623 0.102817
H4    H     H_    0.911020 0.586509 0.979982 0.104178
H5    H     H_    0.997218 0.742686 0.956425 0.081459
H6    H     H_    0.302889 0.024762 0.611975 0.210168
H7    H     H_    0.333470 0.749996 0.547198 0.147164
C19   C     C_2   0.988250 0.711662 0.283376 -0.072033
C20   C     C_2   0.150915 0.675069 0.314138 -0.265935
H8    H     H_    0.849970 0.692403 0.308713 0.132691
H9    H     H_    0.287800 0.689395 0.285126 0.120521
C21   C     C_2   0.986031 0.771267 0.209566 -0.139131
C22   C     C_2   0.122527 0.833674 0.191000 -0.148976
H10   H     H_    0.863976 0.762048 0.167556 0.105490
C23   C     C_2   0.771612 0.225031 0.794815 0.002974
C24   C     C_2   0.609945 0.187002 0.823758 -0.243797
H11   H     H_    0.909810 0.207544 0.822062 0.175216
H12   H     H_    0.470628 0.211598 0.802829 0.141435
C25   C     C_2   0.770223 0.298043 0.732116 -0.138929
C26   C     C_2   0.644187 0.305187 0.667678 -0.159820
H13   H     H_    0.881260 0.349508 0.739984 0.096708
C27   C     C_2   0.764732 0.184434 0.238226 0.456788
C28   C     C_2   0.624073 0.180488 0.178723 -0.392783
H14   H     H_    0.515882 0.232973 0.175959 0.101489
C29   C     C_2   0.783098 0.262329 0.296772 -0.209203
C30   C     C_2   0.633141 0.311184 0.323300 -0.361045
H15   H     H_    0.925195 0.276079 0.323005 0.160088
H16   H     H_    0.488238 0.295071 0.301584 0.138668
O11   O     O_R   0.770210 0.079270 0.910680 -0.504466
O12   O     O_R   0.440150 0.091160 0.082270 -0.534673
O13   O     O_R   0.269970 0.914530 0.082860 -0.565231
C31   C     C_R   0.610344 0.110773 0.112567 0.792462
O14   O     O_R   0.440480 0.090100 0.911240 -0.531681
O15   O     O_R   0.270310 0.913460 0.910610 -0.543214
C32   C     C_R   0.608689 0.114432 0.885673 0.791869
O16   O     O_R   0.769870 0.080340 0.082930 -0.510084
O17   O     O_3   0.603660 0.938980 0.996790 -0.397534
V3    V     V_3+5 0.328750 0.007610 0.996740 1.572591
O18   O     O_R   0.940600 0.902510 0.911180 -0.521929
C33   C     C_R   0.107361 0.883470 0.880200 0.807365
O19   O     O_R   0.940270 0.903570 0.082200 -0.530655
C34   C     C_R   0.109570 0.885345 0.112934 0.702400
V4    V     V_3+5 0.828770 0.986010 0.996670 1.613636
O20   O     O_3   0.103730 0.054750 0.996710 -0.342548
C35   C     C_2   0.277555 0.862391 0.250298 0.494374
H17   H     H_    0.413476 0.887943 0.227365 0.046616
O21   O     O_2   0.251021 0.863371 0.324754 -0.491020
C36   C     C_2   0.507047 0.232443 0.642216 0.441105
H18   H     H_    0.373966 0.249399 0.610102 0.053908
O22   O     O_2   0.546932 0.153031 0.651670 -0.488320
S1    S     S_3+6 0.935526 0.096870 0.252318 0.016507
O23   O     O_2   0.837296 0.006478 0.244649 -0.318800
O24   O     O_2   0.088657 0.103689 0.187795 -0.363069
O25   O     O_3   0.039402 0.105158 0.346687 -0.468430
H19   H     H_    0.154398 0.144090 0.339454 0.336804
S2    S     S_3+6 0.030598 0.021106 0.739416 -0.014101
O26   O     O_2   0.118818 0.065090 0.814659 -0.346467
O27   O     O_2   0.002613 0.092047 0.674473 -0.323032
O28   O     O_3   0.814177 0.976869 0.762199 -0.501025
H20   H     H_    0.761935 0.953345 0.708940 0.340586

loop_
_geom_bond_atom_site_label_1
_geom_bond_atom_site_label_2
_ccdc_geom_bond_type
C29   C30   D    
O14   C32   A    
C22   C34   S    
V4    O20   S    
C6    C7    A    
C1    O6    A    
S1    O23   D    
C11   C33   S    
C20   H9    S    
C23   C24   D    
C12   C15   A    
C16   H6    S    
C13   C14   A    
O15   V3    S    
C15   C16   A    
C19   C21   S    
O5    C3    A    
C17   C18   A    
C36   O22   D    
V3    O20   S    
V2    O10   S    
O12   C31   A    
C5    C6    A    
O8    V2    S    
C25   H13   S    
O18   V4    S    
O17   V4    S    
C10   C14   A    
C4    C14   S    
O7    V1    S    
O11   V4    S    
C27   C29   S    
C7    H4    S    
C13   C18   A    
O1    C2    A    
O9    C4    A    
H1    C17   S    
O18   C33   A    
C21   H10   S    
C2    C30   S    
C26   C36   S    
S1    O24   D    
C23   H11   S    
C22   C35   S    
C24   H12   S    
C31   O16   A    
O17   V3    S    
O25   H19   S    
C24   C32   S    
C6    H3    S    
O4    C2    A    
S2    O26   D    
C12   C13   A    
C28   H14   S    
O16   V4    S    
C5    C10   A    
C1    C26   S    
O2    C1    A    
C35   H17   S    
C16   C17   A    
C28   C31   S    
C23   C25   S    
C11   C12   A    
C35   O21   D    
O3    C4    A    
O1    V2    S    
O13   C34   A    
O6    V2    S    
O15   C33   A    
O9    V2    S    
C15   S2    S    
C9    C11   A    
C5    H2    S    
C21   C22   D    
O2    V1    S    
S1    O25   S    
C27   C28   D    
O19   V4    S    
O14   V3    S    
C36   H18   S    
S2    O28   S    
O5    V1    S    
O8    C3    A    
C8    H5    S    
C3    C20   S    
C29   H15   S    
O7    V2    S    
O4    V1    S    
O3    V1    S    
V1    O10   S    
O11   C32   A    
C19   H8    S    
O13   V3    S    
C19   C20   D    
C30   H16   S    
S2    O27   D    
C27   S1    S    
C18   H7    S    
O19   C34   A    
C7    C8    A    
O12   V3    S    
C25   C26   D    
C9    C10   A    
O28   H20   S    
C8    C9    A    
