data_mof_unit_28840.cif
_audit_creation_date              2012-12-10T18:09:28-0500
_audit_creation_method            fapswitch 2.2
_symmetry_space_group_name_H-M    P1
_symmetry_Int_Tables_number       1
_space_group_crystal_system       triclinic
_cell_length_a                    14.859247
_cell_length_b                    16.513512
_cell_length_c                    9.640107
_cell_angle_alpha                 89.096542
_cell_angle_beta                  90.000139
_cell_angle_gamma                 90.00006
_cell_volume                      2365.17951526

loop_
_atom_site_label
_atom_site_type_symbol
_atom_type_description
_atom_site_fract_x
_atom_site_fract_y
_atom_site_fract_z
_atom_type_partial_charge
C1    C     C_R   0.124390 0.383663 0.500793 0.958395
C2    C     C_R   0.124390 0.616337 0.499207 0.958393
C3    C     C_R   0.624390 0.883663 0.500793 0.958395
C4    C     C_R   0.624390 0.116337 0.499207 0.958392
C5    C     C_3   0.092929 0.487052 0.079304 0.651169
C6    C     C_3   0.092929 0.512946 0.920697 0.651169
C7    C     C_3   0.592929 0.987051 0.079305 0.651170
C8    C     C_3   0.592929 0.012944 0.920697 0.651170
C9    C     C_R   0.880535 0.379959 0.500417 0.948294
C10   C     C_R   0.880535 0.620041 0.499583 0.948294
C11   C     C_R   0.380535 0.879959 0.500417 0.948294
C12   C     C_R   0.380534 0.120041 0.499583 0.948294
C13   C     C_3   0.833786 0.245462 0.623330 0.520761
C14   C     C_3   0.819597 0.259637 0.356148 0.520703
C15   C     C_3   0.819598 0.740363 0.643850 0.520703
C16   C     C_3   0.833786 0.754538 0.376669 0.520759
C17   C     C_3   0.333787 0.745461 0.623329 0.520760
C18   C     C_3   0.319597 0.759638 0.356148 0.520702
C19   C     C_3   0.319599 0.240363 0.643850 0.520704
C20   C     C_3   0.333786 0.254537 0.376668 0.520760
C21   C     C_3   0.254823 0.683843 0.632280 0.252880
C22   C     C_3   0.262380 0.679822 0.370262 0.208376
C23   C     C_3   0.262381 0.320179 0.629736 0.208376
C24   C     C_3   0.254822 0.316157 0.367720 0.252882
C25   C     C_3   0.754823 0.183843 0.632279 0.252878
C26   C     C_3   0.762380 0.179822 0.370262 0.208377
C27   C     C_3   0.762381 0.820178 0.629737 0.208376
C28   C     C_3   0.754822 0.816156 0.367720 0.252882
C29   C     C_3   0.712735 0.339127 0.515757 0.604576
C30   C     C_3   0.712735 0.660872 0.484243 0.604575
C31   C     C_3   0.212735 0.839127 0.515759 0.604575
C32   C     C_3   0.212735 0.160873 0.484244 0.604576
C33   C     C_3   0.813923 0.308986 0.499618 -0.432602
C34   C     C_3   0.813924 0.691014 0.500381 -0.432603
C35   C     C_3   0.313924 0.808986 0.499618 -0.432602
C36   C     C_3   0.313923 0.191014 0.500381 -0.432603
C37   C     C_3   0.197124 0.683384 0.497404 -0.413808
C38   C     C_3   0.197124 0.316616 0.502596 -0.413810
C39   C     C_3   0.697124 0.183384 0.497404 -0.413808
C40   C     C_3   0.697124 0.816616 0.502596 -0.413809
C41   C     C_3   0.148234 0.766547 0.488415 -0.519770
C42   C     C_3   0.148234 0.233453 0.511586 -0.519771
C43   C     C_3   0.648234 0.266547 0.488414 -0.519770
C44   C     C_3   0.648234 0.733452 0.511586 -0.519771
C45   C     C_3   0.958692 0.573537 0.079975 -0.254712
C46   C     C_3   0.945053 0.566574 0.915762 -0.220246
C47   C     C_3   0.945051 0.433427 0.084237 -0.220245
C48   C     C_3   0.958689 0.426464 0.920025 -0.254711
C49   C     C_3   0.458693 0.073538 0.079975 -0.254712
C50   C     C_3   0.445054 0.066575 0.915762 -0.220246
C51   C     C_3   0.445049 0.933428 0.084237 -0.220245
C52   C     C_3   0.458688 0.926465 0.920025 -0.254711
Cu1   Cu    Cu3+1 0.000100 0.500000 0.642410 1.085724
Cu2   Cu    Cu3+1 0.000100 0.500000 0.357590 1.085723
Cu3   Cu    Cu3+1 0.500100 1.000000 0.642410 1.085724
Cu4   Cu    Cu3+1 0.500100 1.000000 0.357590 1.085723
H1    H     H_    0.208087 0.704243 0.713787 0.222376
H2    H     H_    0.220484 0.674548 0.276282 0.220676
H3    H     H_    0.220487 0.325453 0.723716 0.220679
H4    H     H_    0.208086 0.295757 0.286213 0.222376
H5    H     H_    0.708087 0.204242 0.713787 0.222375
H6    H     H_    0.720484 0.174548 0.276282 0.220676
H7    H     H_    0.720486 0.825452 0.723716 0.220680
H8    H     H_    0.708086 0.795756 0.286214 0.222376
H9    H     H_    0.091918 0.767233 0.563411 0.290375
H10   H     H_    0.118584 0.772654 0.383054 0.281581
H11   H     H_    0.118584 0.227347 0.616947 0.281581
H12   H     H_    0.091918 0.232767 0.436590 0.290375
H13   H     H_    0.591917 0.267233 0.563410 0.290374
H14   H     H_    0.618584 0.272654 0.383053 0.281580
H15   H     H_    0.618584 0.727346 0.616947 0.281581
H16   H     H_    0.591917 0.732767 0.436590 0.290375
H17   H     H_    0.998185 0.628321 0.106230 0.258172
H18   H     H_    0.959252 0.625382 0.864475 0.282280
H19   H     H_    0.959248 0.374619 0.135524 0.282281
H20   H     H_    0.998181 0.371679 0.893770 0.258175
H21   H     H_    0.498187 0.128322 0.106230 0.258171
H22   H     H_    0.459255 0.125382 0.864475 0.282279
H23   H     H_    0.459246 0.874619 0.135524 0.282282
H24   H     H_    0.498179 0.871679 0.893770 0.258176
H25   H     H_    0.890806 0.579629 0.124912 0.265087
H26   H     H_    0.872537 0.555820 0.893638 0.241505
H27   H     H_    0.872535 0.444182 0.106361 0.241504
H28   H     H_    0.890804 0.420373 0.875087 0.265087
H29   H     H_    0.390807 0.079630 0.124911 0.265088
H30   H     H_    0.372539 0.055822 0.893638 0.241506
H31   H     H_    0.372534 0.944184 0.106361 0.241504
H32   H     H_    0.390802 0.920375 0.875087 0.265086
N1    N     N_3   0.001260 0.500000 0.143650 -0.279682
N2    N     N_3   0.001260 0.500000 0.856350 -0.279681
N3    N     N_3   0.501260 1.000000 0.143650 -0.279682
N4    N     N_3   0.501260 0.000000 0.856350 -0.279681
O1    O     O_R   0.091250 0.408820 0.620260 -0.557162
O2    O     O_R   0.091250 0.408820 0.379740 -0.527384
O3    O     O_R   0.091250 0.591180 0.620260 -0.527385
O4    O     O_R   0.091250 0.591180 0.379740 -0.557164
O5    O     O_R   0.591250 0.908820 0.620260 -0.557161
O6    O     O_R   0.591250 0.908820 0.379740 -0.527383
O7    O     O_R   0.591250 0.091180 0.620260 -0.527385
O8    O     O_R   0.591250 0.091180 0.379740 -0.557165
O9    O     O_R   0.908940 0.408800 0.620260 -0.558448
O10   O     O_R   0.908940 0.408800 0.379740 -0.556106
O11   O     O_R   0.908940 0.591200 0.620260 -0.556106
O12   O     O_R   0.908940 0.591200 0.379740 -0.558448
O13   O     O_R   0.408940 0.908800 0.620260 -0.558448
O14   O     O_R   0.408940 0.908800 0.379740 -0.556106
O15   O     O_R   0.408940 0.091200 0.620260 -0.556106
O16   O     O_R   0.408940 0.091200 0.379740 -0.558448
Cl1   Cl    Cl    0.844178 0.282388 0.795709 -0.430771
Cl2   Cl    Cl    0.776790 0.313354 0.206084 -0.444968
Cl3   Cl    Cl    0.776791 0.686647 0.793915 -0.444965
Cl4   Cl    Cl    0.844176 0.717611 0.204290 -0.430769
Cl5   Cl    Cl    0.344180 0.782387 0.795709 -0.430771
Cl6   Cl    Cl    0.276789 0.813355 0.206085 -0.444967
Cl7   Cl    Cl    0.276792 0.186648 0.793915 -0.444965
Cl8   Cl    Cl    0.344174 0.217610 0.204289 -0.430770
Cl9   Cl    Cl    0.941672 0.198387 0.604439 -0.374692
Cl10  Cl    Cl    0.933181 0.240496 0.298345 -0.394370
Cl11  Cl    Cl    0.933181 0.759505 0.701653 -0.394372
Cl12  Cl    Cl    0.941672 0.801613 0.395558 -0.374692
Cl13  Cl    Cl    0.441672 0.698386 0.604436 -0.374690
Cl14  Cl    Cl    0.433180 0.740496 0.298343 -0.394368
Cl15  Cl    Cl    0.433182 0.259505 0.701652 -0.394375
Cl16  Cl    Cl    0.441672 0.301611 0.395556 -0.374694
Cl17  Cl    Cl    0.293753 0.587918 0.692339 -0.208238
Cl18  Cl    Cl    0.331566 0.590873 0.375462 -0.198000
Cl19  Cl    Cl    0.331567 0.409127 0.624534 -0.198003
Cl20  Cl    Cl    0.293753 0.412081 0.307657 -0.208237
Cl21  Cl    Cl    0.793754 0.087918 0.692338 -0.208237
Cl22  Cl    Cl    0.831566 0.090873 0.375461 -0.198000
Cl23  Cl    Cl    0.831566 0.909127 0.624535 -0.198003
Cl24  Cl    Cl    0.793752 0.912081 0.307657 -0.208237
Cl25  Cl    Cl    0.687639 0.379772 0.683092 -0.327720
Cl26  Cl    Cl    0.682947 0.421700 0.402053 -0.284900
Cl27  Cl    Cl    0.682948 0.578300 0.597947 -0.284900
Cl28  Cl    Cl    0.687638 0.620228 0.316909 -0.327717
Cl29  Cl    Cl    0.187640 0.879771 0.683094 -0.327722
Cl30  Cl    Cl    0.182947 0.921700 0.402056 -0.284899
Cl31  Cl    Cl    0.182948 0.078301 0.597949 -0.284900
Cl32  Cl    Cl    0.187637 0.120227 0.316910 -0.327715
Cl33  Cl    Cl    0.180108 0.539503 0.161450 -0.368473
Cl34  Cl    Cl    0.128632 0.618237 0.901469 -0.460878
Cl35  Cl    Cl    0.128628 0.381760 0.098532 -0.460876
Cl36  Cl    Cl    0.180106 0.460493 0.838553 -0.368477
Cl37  Cl    Cl    0.680108 0.039501 0.161451 -0.368471
Cl38  Cl    Cl    0.628634 0.118234 0.901469 -0.460879
Cl39  Cl    Cl    0.628626 0.881758 0.098533 -0.460875
Cl40  Cl    Cl    0.680105 0.960490 0.838554 -0.368480

loop_
_geom_bond_atom_site_label_1
_geom_bond_atom_site_label_2
_ccdc_geom_bond_type
C16   C28   S    
C29   Cl25  S    
Cu3   Cu4   S    
Cu1   O3    S    
C27   Cl23  S    
C48   H20   S    
C3    O6    A    
Cu4   O6    S    
C25   Cl21  S    
C18   Cl6   S    
C14   C33   S    
C17   Cl5   S    
C7    C8    S    
C45   C46   S    
C23   H3    S    
C19   Cl15  S    
Cu3   O13   S    
C32   C36   S    
Cu2   O12   S    
C10   O11   A    
C12   C36   S    
C38   C42   S    
C19   C36   S    
C16   Cl12  S    
Cu1   N2    S    
C5    C6    S    
C26   C39   S    
C22   Cl18  S    
C28   C40   S    
C29   C33   S    
C44   H15   S    
C45   H17   S    
Cu4   O16   S    
C13   Cl1   S    
C16   C34   S    
C46   H26   S    
C5    Cl33  S    
C11   C35   S    
Cu4   N3    S    
C20   C24   S    
Cu1   O9    S    
C9    O10   A    
C14   Cl10  S    
C11   O13   A    
C24   C38   S    
C15   Cl11  S    
C8    N4    S    
C47   H27   S    
C31   Cl29  S    
C45   N1    S    
C18   C35   S    
C15   C34   S    
Cu2   O4    S    
C26   Cl22  S    
C51   N3    S    
C29   Cl26  S    
C43   H13   S    
C48   N2    S    
C29   C43   S    
C9    C33   S    
C47   N1    S    
C30   C44   S    
C8    Cl40  S    
C49   N3    S    
C50   H22   S    
C7    Cl39  S    
C8    Cl38  S    
Cu2   O2    S    
C30   C34   S    
Cu1   O1    S    
C51   C52   S    
C49   H29   S    
C52   H32   S    
C32   Cl31  S    
C51   H31   S    
C12   O16   A    
C1    O2    A    
C39   C43   S    
C6    N2    S    
C22   C37   S    
C1    O1    A    
C17   C21   S    
C48   H28   S    
C13   C33   S    
Cu3   O15   S    
C28   Cl24  S    
C19   C23   S    
C21   H1    S    
Cu3   N4    S    
C15   Cl3   S    
C3    O5    A    
C15   C27   S    
C47   C48   S    
C4    C39   S    
C19   Cl7   S    
C27   C40   S    
C24   H4    S    
C7    N3    S    
Cu3   O5    S    
C11   O14   A    
C10   C34   S    
C25   H5    S    
C14   C26   S    
C31   Cl30  S    
Cu4   O14   S    
C27   H7    S    
C1    C38   S    
Cu2   N1    S    
C28   H8    S    
C17   Cl13  S    
C18   Cl14  S    
C3    C40   S    
C30   Cl27  S    
C43   H14   S    
C30   Cl28  S    
C4    O8    A    
C42   H11   S    
C31   C35   S    
C52   N4    S    
C6    Cl34  S    
Cu4   O8    S    
C6    Cl36  S    
C46   H18   S    
C16   Cl4   S    
C20   Cl8   S    
C50   N4    S    
C14   Cl2   S    
C2    O3    A    
C31   C41   S    
C18   C22   S    
Cu2   O10   S    
C45   H25   S    
C13   C25   S    
C22   H2    S    
C12   O15   A    
C41   H9    S    
Cu1   Cu2   S    
C41   H10   S    
C46   N2    S    
C23   C38   S    
C23   Cl19  S    
C2    O4    A    
C26   H6    S    
C47   H19   S    
C25   C39   S    
C2    C37   S    
Cu1   O11   S    
C10   O12   A    
C49   H21   S    
C44   H16   S    
C42   H12   S    
C32   Cl32  S    
C37   C41   S    
C51   H23   S    
C20   Cl16  S    
C5    Cl35  S    
C50   H30   S    
C20   C36   S    
C40   C44   S    
C21   C37   S    
C9    O9    A    
C49   C50   S    
C4    O7    A    
Cu3   O7    S    
C13   Cl9   S    
C24   Cl20  S    
C32   C42   S    
C17   C35   S    
C52   H24   S    
C21   Cl17  S    
C5    N1    S    
C7    Cl37  S    
