data_mof_unit_38336.cif
_audit_creation_date              2012-12-10T17:55:30-0500
_audit_creation_method            fapswitch 2.2
_symmetry_space_group_name_H-M    P1
_symmetry_Int_Tables_number       1
_space_group_crystal_system       triclinic
_cell_length_a                    10.814047
_cell_length_b                    9.538155
_cell_length_c                    10.92856
_cell_angle_alpha                 89.95864
_cell_angle_beta                  90.477137
_cell_angle_gamma                 90.005929
_cell_volume                      1127.19848153

loop_
_atom_site_label
_atom_site_type_symbol
_atom_type_description
_atom_site_fract_x
_atom_site_fract_y
_atom_site_fract_z
_atom_type_partial_charge
C1    C     C_R   0.262288 0.499884 0.497663 0.837037
C2    C     C_R   0.737773 0.500208 0.498835 0.857336
C3    C     C_R   0.501266 0.500078 0.265308 0.848729
C4    C     C_R   0.498496 0.500023 0.734691 0.839469
C5    C     C_2   0.501542 0.384769 0.933148 -0.162213
C6    C     C_2   0.495553 0.384944 0.067053 -0.169170
C7    C     C_2   0.491862 0.502338 0.866603 -0.313448
C8    C     C_2   0.507550 0.502324 0.133393 -0.314891
C9    C     C_R   0.064523 0.393211 0.554303 -0.256791
C10   C     C_R   0.936617 0.392941 0.553887 -0.261685
C11   C     C_R   0.871644 0.501342 0.495915 -0.170845
C12   C     C_R   0.128479 0.499640 0.493683 -0.185126
C13   C     C_R   0.934945 0.610083 0.435668 0.381850
C14   C     C_R   0.063970 0.604231 0.428611 0.390466
C15   C     C_R   0.430436 0.075128 0.417385 -0.152465
C16   C     C_R   0.570387 0.074825 0.582130 -0.163608
C17   C     C_R   0.433185 0.925735 0.413999 0.540973
C18   C     C_R   0.568541 0.925081 0.584922 0.512876
Cu1   Cu    Cu3+1 0.500000 0.640660 0.500000 1.045001
Cu2   Cu    Cu3+1 0.500000 0.359340 0.500000 0.935183
H1    H     H_    0.512318 0.283727 0.888623 0.158445
H2    H     H_    0.482918 0.284222 0.111773 0.158278
H3    H     H_    0.475937 0.603994 0.907401 0.136198
H4    H     H_    0.525211 0.603560 0.092432 0.140944
H5    H     H_    0.113582 0.310952 0.602934 0.179727
H6    H     H_    0.888348 0.309740 0.601300 0.172538
H7    H     H_    0.373307 0.132816 0.353195 0.153165
H8    H     H_    0.628692 0.132677 0.645041 0.149546
N1    N     N_R   0.500000 0.852070 0.500000 -0.239431
N2    N     N_R   0.500000 0.147940 0.500000 -0.199569
O1    O     O_R   0.319640 0.618740 0.499990 -0.519330
O2    O     O_R   0.680360 0.618740 0.500010 -0.517589
O3    O     O_R   0.319620 0.381170 0.499990 -0.595852
O4    O     O_R   0.680380 0.381170 0.500010 -0.597656
O5    O     O_R   0.500000 0.618750 0.321940 -0.537785
O6    O     O_R   0.500000 0.618750 0.678060 -0.551816
O7    O     O_R   0.499970 0.381180 0.321940 -0.592144
O8    O     O_R   0.500030 0.381180 0.678060 -0.590596
O9    O     O_3   0.870001 0.712261 0.371901 -0.576582
C19   C     C_3   0.880286 0.840727 0.435289 -0.218778
H9    H     H_    0.859277 0.829296 0.534425 0.174887
H10   H     H_    0.811877 0.915272 0.396068 0.167945
H11   H     H_    0.973489 0.887546 0.423654 0.189368
O10   O     O_3   0.126078 0.699882 0.356582 -0.537949
C20   C     C_3   0.132985 0.645024 0.236947 -0.204918
H12   H     H_    0.198820 0.555507 0.233706 0.127938
H13   H     H_    0.167618 0.728051 0.175206 0.183764
H14   H     H_    0.040768 0.612588 0.200590 0.149834
O11   O     O_3   0.364856 0.852731 0.327469 -0.505756
C21   C     C_3   0.399025 0.895175 0.208425 -0.334417
H15   H     H_    0.500810 0.910231 0.199224 0.143537
H16   H     H_    0.348673 0.991899 0.181194 0.144161
H17   H     H_    0.372290 0.811675 0.142867 0.171646
O12   O     O_3   0.643185 0.850636 0.665596 -0.553233
C22   C     C_3   0.622981 0.894255 0.787270 -0.355881
H18   H     H_    0.522944 0.909342 0.807341 0.147939
H19   H     H_    0.676185 0.991029 0.808131 0.147826
H20   H     H_    0.657611 0.811132 0.849806 0.192913

loop_
_geom_bond_atom_site_label_1
_geom_bond_atom_site_label_2
_ccdc_geom_bond_type
C16   H8    S    
C21   H16   S    
C22   H18   S    
C4    O6    A    
C22   H19   S    
C17   N1    A    
C9    C10   A    
C14   O10   S    
C15   H7    S    
Cu1   Cu2   S    
C3    O5    A    
Cu1   O1    S    
C2    O4    A    
C19   H10   S    
C21   H15   S    
C9    H5    S    
C18   N1    A    
Cu2   N2    S    
C13   C14   A    
Cu2   O7    S    
C11   C13   A    
C10   H6    S    
C1    C12   S    
C4    C7    S    
C7    H3    S    
C2    C11   S    
C16   C18   A    
C19   H9    S    
C8    H4    S    
C12   C14   A    
Cu1   O5    S    
C3    C8    S    
Cu1   O6    S    
C20   H13   S    
C5    C6    S    
C9    C12   A    
C13   O9    S    
C21   H17   S    
C10   C11   A    
Cu2   O3    S    
C1    O3    A    
Cu2   O4    S    
C6    H2    S    
C20   H12   S    
C1    O1    A    
Cu2   O8    S    
O10   C20   S    
C3    O7    A    
C15   N2    A    
C2    O2    A    
O11   C21   S    
C22   H20   S    
C17   O11   S    
O9    C19   S    
C5    C7    D    
C18   O12   S    
O12   C22   S    
C6    C8    D    
C20   H14   S    
C15   C17   A    
C16   N2    A    
Cu1   O2    S    
C19   H11   S    
C4    O8    A    
C5    H1    S    
Cu1   N1    S    
