data_mof_unit_22995.cif
_audit_creation_date              2012-12-10T17:02:55-0500
_audit_creation_method            fapswitch 2.2
_symmetry_space_group_name_H-M    P1
_symmetry_Int_Tables_number       1
_space_group_crystal_system       triclinic
_cell_length_a                    9.750476
_cell_length_b                    10.746773
_cell_length_c                    13.413866
_cell_angle_alpha                 92.743768
_cell_angle_beta                  82.218534
_cell_angle_gamma                 108.739688
_cell_volume                      1318.80309965

loop_
_atom_site_label
_atom_site_type_symbol
_atom_type_description
_atom_site_fract_x
_atom_site_fract_y
_atom_site_fract_z
_atom_type_partial_charge
Br1   Br    Br    0.742020 0.022246 0.503739 -0.374432
Br2   Br    Br    0.932439 0.704057 0.618455 -0.265028
Br3   Br    Br    0.981770 0.310887 0.990260 -0.363255
Br4   Br    Br    0.330550 0.090802 0.696013 -0.346140
C1    C     C_R   0.550299 0.746413 0.511407 0.813335
C2    C     C_R   0.375580 0.431569 0.796347 -0.119451
C3    C     C_2   0.557844 0.885233 0.528011 0.110690
C4    C     C_R   0.421471 0.472082 0.689312 0.849491
C5    C     C_2   0.431241 0.910719 0.559909 -0.219597
C6    C     C_2   0.432286 0.113868 0.485638 -0.305811
C7    C     C_2   0.414638 0.042169 0.568364 0.364919
C8    C     C_2   0.921215 0.482232 0.499133 0.141581
C9    C     C_2   0.075638 0.504369 0.513553 0.011066
C10   C     C_R   0.447413 0.253650 0.492795 0.867832
C11   C     C_R   0.578297 0.515129 0.309397 0.852325
C12   C     C_R   0.439113 0.437084 0.967818 0.030643
C13   C     C_R   0.807612 0.592014 0.052767 0.427749
C14   C     C_R   0.625230 0.525208 0.199964 -0.195313
C15   C     C_R   0.227178 0.395294 0.834814 -0.119419
C16   C     C_R   0.183986 0.374746 0.937659 0.372352
C17   C     C_R   0.288378 0.402918 0.003876 -0.146526
C18   C     C_R   0.479773 0.434575 0.862820 -0.062819
C19   C     C_R   0.551264 0.476355 0.031922 0.002441
C20   C     C_R   0.700758 0.524261 0.989408 -0.152388
C21   C     C_R   0.735855 0.494245 0.886976 0.402545
C22   C     C_R   0.623242 0.433985 0.829173 0.351154
C23   C     C_R   0.518447 0.471197 0.136759 -0.222730
C24   C     C_R   0.769542 0.591535 0.157816 0.313997
Cl1   Cl    Cl    0.903417 0.679512 0.234826 -0.484665
Cl2   Cl    Cl    0.915343 0.511795 0.829536 -0.461192
Cl3   Cl    Cl    0.984534 0.693500 0.004549 -0.393602
Cl4   Cl    Cl    0.655191 0.323786 0.732898 -0.455490
Cu1   Cu    Cu3+1 0.362000 0.479240 0.482530 1.007984
Cu2   Cu    Cu3+1 0.638000 0.520760 0.517470 1.120076
H1    H     H_    0.332073 0.830311 0.582338 0.180321
H2    H     H_    0.464399 0.076457 0.412555 0.142683
H3    H     H_    0.124210 0.567783 0.573240 0.200244
H4    H     H_    0.869595 0.403642 0.449283 0.122158
H5    H     H_    0.108361 0.388063 0.399250 0.217347
H6    H     H_    0.409543 0.421421 0.171566 0.179267
H7    H     H_    0.144917 0.382511 0.785131 0.220550
H8    H     H_    0.247007 0.397074 0.082647 0.158592
N1    N     N_2   0.845330 0.551960 0.543750 -0.031586
N2    N     N_2   0.154690 0.448120 0.456210 -0.294882
O1    O     O_R   0.426290 0.668220 0.490680 -0.604626
O2    O     O_R   0.659360 0.703290 0.520190 -0.492019
O3    O     O_R   0.326580 0.473880 0.629020 -0.584517
O4    O     O_R   0.559660 0.508940 0.658530 -0.532802
O5    O     O_R   0.340640 0.296710 0.479810 -0.546304
O6    O     O_R   0.573710 0.331780 0.509320 -0.554555
O7    O     O_R   0.440340 0.491060 0.341470 -0.583746
O8    O     O_R   0.673420 0.526120 0.370980 -0.548446

loop_
_geom_bond_atom_site_label_1
_geom_bond_atom_site_label_2
_ccdc_geom_bond_type
C11   C14   S    
C6    H2    S    
C19   C20   A    
C4    O4    A    
C22   Cl4   S    
C12   C17   A    
Cu2   O2    S    
C11   O7    A    
C8    N1    D    
Cu1   O1    S    
C1    O2    A    
Br2   N1    S    
C9    H3    S    
C15   C16   A    
C23   H6    S    
C12   C18   A    
C16   C17   A    
Cu1   Cu2   S    
C4    O3    A    
Br3   C16   S    
C10   O6    A    
C11   O8    A    
C8    C9    S    
Br4   C7    S    
C2    C15   A    
C5    C7    S    
H5    N2    S    
Cu1   O3    S    
C24   Cl1   S    
C12   C19   A    
C19   C23   A    
C8    H4    S    
C13   Cl3   S    
Cu2   O6    S    
C13   C20   A    
Cu2   O4    S    
C6    C7    D    
Cu2   N1    S    
Cu1   O5    S    
C17   H8    S    
C10   O5    A    
C3    C5    D    
C14   C24   A    
C20   C21   A    
Cu1   O7    S    
C1    C3    S    
C18   C22   A    
C21   Cl2   S    
C5    H1    S    
C2    C4    S    
Cu2   O8    S    
C21   C22   A    
Br1   C3    S    
C13   C24   A    
C1    O1    A    
C9    N2    D    
C14   C23   A    
C15   H7    S    
C6    C10   S    
Cu1   N2    S    
C2    C18   A    
