data_mof_unit_20527.cif
_audit_creation_date              2012-12-10T20:43:58-0500
_audit_creation_method            fapswitch 2.2
_symmetry_space_group_name_H-M    P1
_symmetry_Int_Tables_number       1
_space_group_crystal_system       triclinic
_cell_length_a                    17.512862
_cell_length_b                    10.655466
_cell_length_c                    9.860225
_cell_angle_alpha                 89.931267
_cell_angle_beta                  90.457686
_cell_angle_gamma                 89.898439
_cell_volume                      1839.93101313

loop_
_atom_site_label
_atom_site_type_symbol
_atom_type_description
_atom_site_fract_x
_atom_site_fract_y
_atom_site_fract_z
_atom_type_partial_charge
C1    C     C_R   0.501506 0.260105 0.500176 0.898062
C2    C     C_R   0.885665 0.490175 0.514028 0.096849
C3    C     C_1   0.966191 0.497482 0.514236 -0.062239
C4    C     C_1   0.033871 0.502114 0.514598 -0.022345
C5    C     C_R   0.155858 0.587208 0.597490 0.143769
C6    C     C_R   0.235212 0.585882 0.589924 -0.249101
C7    C     C_R   0.271994 0.504993 0.500321 -0.143922
C8    C     C_R   0.230798 0.424383 0.416422 -0.319478
C9    C     C_R   0.151955 0.419756 0.426254 0.502440
C10   C     C_R   0.114488 0.503789 0.513564 -0.027585
C11   C     C_R   0.492737 0.063637 0.620298 0.030928
C12   C     C_R   0.353911 0.501302 0.499696 0.913765
C13   C     C_R   0.510523 0.128496 0.502368 -0.053090
C14   C     C_R   0.539673 0.064968 0.389691 -0.233963
C15   C     C_R   0.539492 0.935122 0.389570 -0.224945
C16   C     C_R   0.510527 0.871461 0.502425 -0.060514
C17   C     C_R   0.493469 0.935946 0.620914 0.053187
C18   C     C_3   0.423982 0.928267 0.707861 -0.522113
C19   C     C_3   0.422850 0.070813 0.706323 0.346345
C20   C     C_R   0.436371 0.464028 0.070432 0.220969
C21   C     C_R   0.564734 0.524961 0.072725 -0.139445
C22   C     C_R   0.564690 0.525166 0.928939 -0.133075
C23   C     C_R   0.501559 0.739896 0.500089 0.876327
C24   C     C_R   0.436325 0.464334 0.927750 0.200057
C25   C     C_3   0.360297 0.527637 0.921360 -0.529507
C26   C     C_3   0.360154 0.526497 0.075127 -0.492862
C27   C     C_R   0.646065 0.497106 0.500601 0.858247
C28   C     C_R   0.847335 0.386905 0.572905 0.111804
C29   C     C_R   0.766254 0.384609 0.565777 0.046310
C30   C     C_R   0.728158 0.487450 0.502794 -0.069901
C31   C     C_R   0.768154 0.586069 0.444177 -0.251696
C32   C     C_R   0.846585 0.587508 0.450034 -0.196422
H1    H     H_    0.558106 0.885384 0.299902 0.163312
H2    H     H_    0.374536 0.884079 0.654899 0.209736
H3    H     H_    0.437187 0.888480 0.809667 0.163501
H4    H     H_    0.435220 0.114137 0.807162 0.052746
H5    H     H_    0.616524 0.548682 0.127188 0.153311
H6    H     H_    0.616316 0.549497 0.875765 0.146392
H7    H     H_    0.363406 0.623679 0.877423 0.210575
H8    H     H_    0.315391 0.466850 0.876059 0.203904
H9    H     H_    0.362731 0.621858 0.120645 0.217224
H10   H     H_    0.315645 0.464027 0.117998 0.205873
H11   H     H_    0.738271 0.663589 0.395919 0.145550
H12   H     H_    0.877053 0.665342 0.404746 0.147664
H13   H     H_    0.268620 0.649485 0.652262 0.146844
H14   H     H_    0.259958 0.361613 0.347535 0.165754
H15   H     H_    0.558511 0.114823 0.300194 0.163536
N1    N     N_R   0.499490 0.499140 0.142800 -0.106793
N2    N     N_R   0.499490 0.499180 0.857150 -0.103935
O1    O     O_R   0.500010 0.316790 0.614690 -0.634129
O2    O     O_R   0.500000 0.316760 0.385350 -0.620885
O3    O     O_R   0.389120 0.500020 0.614710 -0.624635
O4    O     O_R   0.389110 0.499990 0.385370 -0.611572
O5    O     O_R   0.500000 0.683240 0.614650 -0.611065
O6    O     O_R   0.499990 0.683210 0.385310 -0.621582
O7    O     O_R   0.610890 0.500010 0.614630 -0.619336
O8    O     O_R   0.610880 0.499980 0.385290 -0.627290
Zn1   Zn    Zn3+2 0.500010 0.500020 0.653130 0.931491
Zn2   Zn    Zn3+2 0.499990 0.499980 0.346870 0.939708
C33   C     C_3   0.894053 0.280641 0.636927 -0.435499
C34   C     C_3   0.930319 0.319912 0.772820 -0.344662
C35   C     C_3   0.974563 0.211510 0.837545 -0.898360
H16   H     H_    0.001978 0.243702 0.933284 0.265234
H17   H     H_    0.935392 0.132707 0.861104 0.261471
H18   H     H_    0.019790 0.177897 0.768002 0.258624
H19   H     H_    0.970366 0.398725 0.757632 0.230977
H20   H     H_    0.885575 0.352191 0.843928 0.216165
H21   H     H_    0.860213 0.194797 0.653823 0.204610
H22   H     H_    0.939503 0.251921 0.565385 0.190346
O9    O     O_3   0.359823 0.117953 0.630768 -0.632479
C36   C     C_3   0.313230 0.195686 0.711485 0.111033
H23   H     H_    0.277421 0.253016 0.641637 0.164273
H24   H     H_    0.347193 0.263534 0.772887 0.131363
C37   C     C_3   0.260659 0.117095 0.801503 -0.385653
H25   H     H_    0.232576 0.043235 0.739359 0.237061
H26   H     H_    0.294871 0.070429 0.882513 0.209754
C38   C     C_3   0.199374 0.198492 0.866756 -0.966258
H27   H     H_    0.226049 0.273422 0.929329 0.269853
H28   H     H_    0.162964 0.139630 0.932935 0.271217
H29   H     H_    0.162700 0.241916 0.787102 0.259253
C39   C     C_3   0.720158 0.273425 0.618832 -0.411986
C40   C     C_3   0.714150 0.275072 0.774168 -0.309701
C41   C     C_3   0.654615 0.181906 0.824447 -0.889088
H30   H     H_    0.596768 0.210669 0.789852 0.274672
H31   H     H_    0.667291 0.086085 0.786374 0.258991
H32   H     H_    0.655193 0.180030 0.937050 0.243074
H33   H     H_    0.769804 0.249970 0.820890 0.217707
H34   H     H_    0.698226 0.370507 0.809277 0.227434
H35   H     H_    0.661787 0.273108 0.574684 0.198324
H36   H     H_    0.744448 0.183310 0.582978 0.177733
C42   C     C_3   0.118116 0.680339 0.692576 -0.410749
C43   C     C_3   0.137340 0.654399 0.842522 -0.357925
C44   C     C_3   0.099020 0.535491 0.894828 -0.813731
H37   H     H_    0.036067 0.547652 0.893645 0.245983
H38   H     H_    0.114684 0.453510 0.831584 0.263958
H39   H     H_    0.117842 0.517105 0.000826 0.257563
H40   H     H_    0.200050 0.646863 0.858136 0.222165
H41   H     H_    0.117251 0.735036 0.904199 0.210541
H42   H     H_    0.138810 0.775850 0.666564 0.171093
H43   H     H_    0.055126 0.683052 0.679603 0.204376
O10   O     O_3   0.111622 0.336951 0.344796 -0.644591
C45   C     C_3   0.092806 0.228222 0.420330 0.065107
H44   H     H_    0.037542 0.192462 0.380179 0.166746
H45   H     H_    0.084010 0.246730 0.530621 0.120150
C46   C     C_3   0.153590 0.126157 0.402075 -0.336970
H46   H     H_    0.161677 0.107717 0.292184 0.231773
H47   H     H_    0.208781 0.158336 0.445687 0.227835
C47   C     C_3   0.130543 0.004487 0.472473 -0.974882
H48   H     H_    0.120885 0.021263 0.582171 0.258428
H49   H     H_    0.176757 0.933795 0.461569 0.272045
H50   H     H_    0.077438 0.966489 0.426006 0.262848

loop_
_geom_bond_atom_site_label_1
_geom_bond_atom_site_label_2
_ccdc_geom_bond_type
C44   H37   S    
C6    H13   S    
O6    Zn2   S    
C31   H11   S    
C39   C40   S    
O4    Zn2   S    
C43   H41   S    
C7    C8    A    
C38   H27   S    
C46   H47   S    
C11   C19   S    
C35   H16   S    
C37   H26   S    
N1    Zn2   S    
C28   C29   A    
C19   H4    S    
C25   H8    S    
O5    Zn1   S    
C5    C6    A    
O8    Zn2   S    
C40   H33   S    
C22   H6    S    
C47   H48   S    
C45   C46   S    
C2    C32   A    
C18   C19   S    
C35   H17   S    
C14   H15   S    
C34   H19   S    
C41   H30   S    
O7    Zn1   S    
C16   C17   A    
C37   C38   S    
O9    C36   S    
C42   H43   S    
C18   H3    S    
C12   O4    A    
C21   N1    A    
C39   H35   S    
C38   H28   S    
C44   H38   S    
C21   C22   A    
C27   C30   S    
C45   H44   S    
C9    C10   A    
C12   O3    A    
C43   H40   S    
C28   C33   S    
C7    C12   S    
C46   C47   S    
C37   H25   S    
O1    Zn1   S    
O10   C45   S    
C20   C24   A    
C24   C25   S    
C27   O8    A    
C42   C43   S    
C36   H24   S    
C27   O7    A    
C8    C9    A    
C25   C26   S    
N2    Zn1   S    
C33   C34   S    
C29   C39   S    
C29   C30   A    
C18   H2    S    
C34   H20   S    
C31   C32   A    
C17   C18   S    
C32   H12   S    
C21   H5    S    
C20   N1    A    
C45   H45   S    
C1    O2    A    
C5    C42   S    
O3    Zn1   S    
C22   N2    A    
C39   H36   S    
C41   H31   S    
C44   H39   S    
O2    Zn2   S    
C4    C10   S    
C3    C4    T    
C26   H10   S    
C23   O5    A    
C1    O1    A    
C38   H29   S    
C24   N2    A    
C11   C17   A    
C35   H18   S    
C36   C37   S    
C23   O6    A    
C6    C7    A    
C16   C23   S    
C46   H46   S    
C47   H50   S    
C2    C3    S    
C5    C10   A    
C25   H7    S    
C11   C13   A    
C30   C31   A    
C20   C26   S    
C33   H22   S    
C40   H34   S    
C43   C44   S    
C47   H49   S    
C34   C35   S    
C8    H14   S    
C36   H23   S    
C41   H32   S    
C1    C13   S    
C33   H21   S    
C9    O10   S    
C40   C41   S    
C14   C15   A    
C19   O9    S    
C2    C28   A    
C42   H42   S    
C13   C14   A    
C15   H1    S    
C15   C16   A    
C26   H9    S    
