data_mof_unit_67385.cif
_audit_creation_date              2012-12-11T19:51:49-0500
_audit_creation_method            fapswitch 2.2
_symmetry_space_group_name_H-M    P1
_symmetry_Int_Tables_number       1
_space_group_crystal_system       triclinic
_cell_length_a                    16.985496
_cell_length_b                    28.121704
_cell_length_c                    8.330566
_cell_angle_alpha                 90.0
_cell_angle_beta                  103.478711
_cell_angle_gamma                 90.619092
_cell_volume                      3869.34800191

loop_
_atom_site_label
_atom_site_type_symbol
_atom_type_description
_atom_site_fract_x
_atom_site_fract_y
_atom_site_fract_z
_atom_type_partial_charge
Ba1   Ba    Ba6+2 0.000400 0.534870 0.845190 1.689557
Ba2   Ba    Ba6+2 0.000400 0.465130 0.345190 1.684373
Ba3   Ba    Ba6+2 0.500400 0.034870 0.845190 1.689430
Ba4   Ba    Ba6+2 0.500400 0.965130 0.345190 1.684356
C1    C     C_3   0.964901 0.770581 0.562396 0.251596
C2    C     C_2   0.763803 0.645765 0.432490 -0.112431
C3    C     C_1   0.952742 0.973496 0.638761 0.242074
C4    C     C_1   0.937658 0.791250 0.396120 0.120242
C5    C     C_1   0.920439 0.220546 0.828122 0.207855
C6    C     C_1   0.437818 0.291267 0.394906 0.118693
C7    C     C_1   0.420412 0.720667 0.828179 0.207673
C8    C     C_1   0.893713 0.754590 0.622398 0.277439
C9    C     C_1   0.865770 0.248129 0.047694 0.195619
C10   C     C_1   0.394385 0.254958 0.622441 0.280382
C11   C     C_1   0.365841 0.748234 0.047872 0.195633
C12   C     C_1   0.709987 0.358769 0.041992 0.352073
C13   C     C_2   0.249575 0.859499 0.906459 -0.129689
C14   C     C_1   0.715349 0.640997 0.552852 0.345968
C15   C     C_1   0.210359 0.858703 0.042554 0.352174
C16   C     C_1   0.215505 0.141099 0.553089 0.345691
C17   C     C_3   0.972711 0.845727 0.696537 0.261848
C18   C     C_3   0.022100 0.872334 0.845394 -0.288894
C19   C     C_3   0.964993 0.185655 0.243710 0.271397
C20   C     C_3   0.027119 0.151506 0.337184 -0.340657
C21   C     C_3   0.473972 0.346464 0.692064 0.263415
C22   C     C_3   0.520875 0.372137 0.845568 -0.288407
C23   C     C_3   0.464959 0.685681 0.243632 0.271422
C24   C     C_2   0.263997 0.145848 0.432792 -0.112212
C25   C     C_3   0.526957 0.651438 0.336945 -0.340409
C26   C     C_2   0.813185 0.391476 0.903660 0.034443
C27   C     C_2   0.819738 0.610841 0.415353 0.039938
C28   C     C_2   0.313203 0.891488 0.903629 0.034486
C29   C     C_2   0.319782 0.110853 0.415414 0.039972
C30   C     C_2   0.842658 0.346854 0.671102 -0.010614
C31   C     C_2   0.849821 0.655843 0.183332 -0.017147
C32   C     C_2   0.342624 0.846870 0.671018 -0.010533
C33   C     C_3   0.942018 0.234358 0.002469 0.242913
C34   C     C_2   0.349817 0.155829 0.183301 -0.016819
C35   C     C_3   0.787926 0.310251 0.703589 -0.059856
C36   C     C_3   0.779316 0.684620 0.182589 -0.029305
C37   C     C_3   0.287916 0.810258 0.703557 -0.059493
C38   C     C_3   0.279367 0.184636 0.182773 -0.029562
C39   C     C_3   0.721368 0.328494 0.768562 0.056477
C40   C     C_3   0.763462 0.689902 0.347209 -0.010371
C41   C     C_3   0.221409 0.828474 0.768771 0.055338
C42   C     C_3   0.263775 0.189992 0.347586 -0.010725
C43   C     C_2   0.758391 0.274372 0.568543 -0.057937
C44   C     C_3   0.465376 0.270761 0.561436 0.251323
C45   C     C_2   0.779140 0.732585 0.098761 -0.069649
C46   C     C_2   0.258302 0.774414 0.568423 -0.057827
C47   C     C_2   0.279043 0.232549 0.098559 -0.069430
C48   C     C_2   0.232766 0.731824 0.608842 -0.065295
C49   C     C_2   0.216948 0.262428 0.086356 -0.089888
C50   C     C_2   0.732916 0.231776 0.609047 -0.065157
C51   C     C_2   0.717063 0.762479 0.086503 -0.089855
C52   C     C_R   0.249786 0.686661 0.351522 0.051525
C53   C     C_R   0.257520 0.317360 0.869856 0.058696
C54   C     C_R   0.749968 0.186606 0.351780 0.051545
C55   C     C_3   0.442056 0.734446 0.002548 0.242905
C56   C     C_R   0.757586 0.817374 0.869901 0.056526
C57   C     C_R   0.211345 0.691962 0.491292 -0.059413
C58   C     C_R   0.210832 0.308225 0.995634 -0.057439
C59   C     C_R   0.711539 0.191898 0.491556 -0.059217
C60   C     C_R   0.711049 0.808303 0.995975 -0.056480
C61   C     C_3   0.035957 0.707493 0.101924 0.387311
C62   C     C_3   0.036372 0.296238 0.600885 0.377777
C63   C     C_3   0.536188 0.207372 0.101750 0.386992
C64   C     C_3   0.536418 0.796243 0.600968 0.377690
C65   C     C_R   0.235123 0.643091 0.250581 -0.170215
C66   C     C_R   0.146615 0.612688 0.421105 -0.229488
C67   C     C_R   0.242835 0.360631 0.767693 -0.141103
C68   C     C_R   0.735213 0.143069 0.250697 -0.170863
C69   C     C_R   0.742837 0.860617 0.767599 -0.141653
C70   C     C_R   0.187858 0.607740 0.284640 0.052537
C71   C     C_R   0.189124 0.393122 0.789893 0.037118
C72   C     C_R   0.687947 0.107717 0.284736 0.052158
C73   C     C_R   0.689171 0.893128 0.789900 0.036803
C74   C     C_R   0.158030 0.653046 0.522082 -0.035426
C75   C     C_R   0.152841 0.345104 0.018161 -0.027612
C76   C     C_R   0.658187 0.152991 0.522273 -0.035062
C77   C     C_R   0.142588 0.385682 0.917591 -0.232596
C78   C     C_R   0.653050 0.845177 0.018477 -0.027319
C79   C     C_3   0.080248 0.754890 0.106878 -0.337384
C80   C     C_3   0.084988 0.250755 0.609922 -0.373136
C81   C     C_3   0.580608 0.254730 0.106892 -0.337810
C82   C     C_3   0.585022 0.750749 0.610131 -0.373034
C83   C     C_3   0.769948 0.528876 0.060586 0.300951
C84   C     C_3   0.765058 0.471328 0.548642 0.309149
C85   C     C_3   0.270001 0.028893 0.060484 0.301090
C86   C     C_3   0.265080 0.971333 0.548646 0.308916
C87   C     C_3   0.694891 0.558378 0.055107 -0.358206
C88   C     C_R   0.646746 0.112644 0.421263 -0.229627
C89   C     C_3   0.689616 0.439865 0.519332 -0.366022
C90   C     C_3   0.194978 0.058412 0.055162 -0.358614
C91   C     C_3   0.189630 0.939889 0.519874 -0.365560
C92   C     C_3   0.303934 0.512997 0.095319 0.664447
C93   C     C_3   0.304378 0.489103 0.598000 0.665164
C94   C     C_3   0.803819 0.013061 0.094723 0.663350
C95   C     C_3   0.804566 0.988915 0.598480 0.665156
C96   C     C_3   0.373908 0.548260 0.167728 -0.293641
C97   C     C_3   0.379825 0.464019 0.699448 -0.267716
C98   C     C_3   0.873290 0.048739 0.166013 -0.294595
C99   C     C_R   0.642740 0.885729 0.917794 -0.232776
C100  C     C_3   0.879981 0.963927 0.700535 -0.268249
C101  C     C_3   0.016683 0.727050 0.547794 0.420766
C102  C     C_3   0.000790 0.277149 0.017608 0.366663
C103  C     C_3   0.516974 0.227121 0.547153 0.419513
C104  C     C_3   0.500875 0.777214 0.017698 0.366844
C105  C     C_2   0.859452 0.384434 0.775225 -0.276391
C106  C     C_2   0.868815 0.619768 0.292889 -0.264913
C107  C     C_2   0.359421 0.884456 0.775115 -0.276431
C108  C     C_2   0.368798 0.119742 0.292811 -0.265034
C109  C     C_3   0.368840 0.443235 0.216728 0.247280
C110  C     C_2   0.749484 0.359507 0.906303 -0.129430
C111  C     C_3   0.313728 0.403417 0.250481 -0.298476
C112  C     C_3   0.342958 0.568659 0.671615 0.277852
C113  C     C_3   0.413778 0.598824 0.646879 -0.354336
C114  C     C_3   0.869029 0.943803 0.218827 0.247637
C115  C     C_3   0.814881 0.903143 0.249449 -0.300364
C116  C     C_3   0.843202 0.068519 0.671263 0.278050
C117  C     C_3   0.914067 0.098593 0.646355 -0.355029
C118  C     C_1   0.445781 0.539457 0.102842 0.252026
C119  C     C_1   0.452691 0.473912 0.638410 0.242775
C120  C     C_1   0.945832 0.039559 0.103730 0.254440
H1    H     H_    0.977864 0.698918 0.473084 -0.146213
H2    H     H_    0.706692 0.401889 0.527717 0.064300
H3    H     H_    0.894383 0.121372 0.535759 0.119484
H4    H     H_    0.912380 0.838418 0.721654 0.030293
H5    H     H_    0.965731 0.868978 0.586314 0.049668
H6    H     H_    0.077534 0.887499 0.815544 0.106085
H7    H     H_    0.037874 0.847754 0.951447 0.138311
H8    H     H_    0.987029 0.901588 0.882495 0.082743
H9    H     H_    0.904084 0.169020 0.227638 0.038503
H10   H     H_    0.968117 0.218791 0.317169 0.127454
H11   H     H_    0.021007 0.148019 0.466266 0.090801
H12   H     H_    0.087931 0.165588 0.335426 0.128566
H13   H     H_    0.211779 0.096205 0.081177 0.057299
H14   H     H_    0.019483 0.116101 0.277242 0.132601
H15   H     H_    0.411849 0.340004 0.708875 0.025612
H16   H     H_    0.470955 0.369981 0.583582 0.052322
H17   H     H_    0.577085 0.387881 0.821290 0.104155
H18   H     H_    0.535201 0.346888 0.949921 0.140017
H19   H     H_    0.484723 0.400927 0.882132 0.082155
H20   H     H_    0.403996 0.669113 0.227459 0.038486
H21   H     H_    0.468189 0.718793 0.317260 0.127376
H22   H     H_    0.520822 0.647917 0.466008 0.090707
H23   H     H_    0.587812 0.665462 0.335269 0.128535
H24   H     H_    0.206663 0.901903 0.527513 0.064478
H25   H     H_    0.519205 0.616059 0.276808 0.132641
H26   H     H_    0.653382 0.556090 0.930645 0.161460
H27   H     H_    0.650742 0.446285 0.394347 0.152391
H28   H     H_    0.153283 0.056004 0.930922 0.161318
H29   H     H_    0.150413 0.946445 0.395327 0.152867
H30   H     H_    0.274985 0.525931 0.970958 0.058122
H31   H     H_    0.283174 0.468034 0.484538 0.047942
H32   H     H_    0.774581 0.025565 0.970002 0.059225
H33   H     H_    0.967578 0.308034 0.951124 -0.109598
H34   H     H_    0.783440 0.967706 0.485301 0.046900
H35   H     H_    0.391726 0.546300 0.304269 0.125604
H36   H     H_    0.392560 0.474986 0.830116 0.135858
H37   H     H_    0.890346 0.047525 0.302743 0.124851
H38   H     H_    0.892903 0.975254 0.830828 0.136098
H39   H     H_    0.354111 0.585042 0.134378 0.002869
H40   H     H_    0.368142 0.425287 0.694232 -0.023522
H41   H     H_    0.853356 0.085305 0.129368 0.002810
H42   H     H_    0.868242 0.925200 0.696754 -0.022877
H43   H     H_    0.064529 0.738229 0.484156 -0.031258
H44   H     H_    0.478053 0.199021 0.472487 -0.145822
H45   H     H_    0.049530 0.266879 0.956374 -0.030539
H46   H     H_    0.564904 0.238189 0.483600 -0.030833
H47   H     H_    0.549576 0.766942 0.956359 -0.030660
H48   H     H_    0.141710 0.752476 0.188397 0.078877
H49   H     H_    0.145415 0.255791 0.693816 0.095687
H50   H     H_    0.642271 0.252155 0.187440 0.079367
H51   H     H_    0.645447 0.755794 0.694026 0.095944
H52   H     H_    0.262754 0.640503 0.146845 0.095942
H53   H     H_    0.274757 0.365107 0.670705 0.064985
H54   H     H_    0.762754 0.140525 0.146849 0.096328
H55   H     H_    0.467677 0.808121 0.951327 -0.109646
H56   H     H_    0.774711 0.865061 0.670496 0.064186
H57   H     H_    0.904607 0.410820 0.762350 0.068526
H58   H     H_    0.917692 0.595715 0.287927 0.065995
H59   H     H_    0.404575 0.910839 0.762224 0.068575
H60   H     H_    0.417640 0.095670 0.287776 0.066064
H61   H     H_    0.107561 0.584056 0.443700 0.081818
H62   H     H_    0.100640 0.412854 0.934356 0.079579
H63   H     H_    0.607652 0.084025 0.443795 0.081823
H64   H     H_    0.600781 0.912897 0.934538 0.079568
H65   H     H_    0.757685 0.282540 0.440920 0.114617
H66   H     H_    0.663290 0.545087 0.149036 0.143033
H67   H     H_    0.828109 0.742862 0.042912 0.139449
H68   H     H_    0.257621 0.782594 0.440822 0.114734
H69   H     H_    0.327926 0.242801 0.042417 0.139806
H70   H     H_    0.230322 0.725607 0.736245 0.104192
H71   H     H_    0.169399 0.252523 0.147023 0.111069
H72   H     H_    0.730464 0.225572 0.736451 0.104321
H73   H     H_    0.669436 0.752557 0.146923 0.111068
H74   H     H_    0.070785 0.680544 0.051003 0.092916
H75   H     H_    0.066016 0.323095 0.537399 0.110605
H76   H     H_    0.570782 0.180448 0.050147 0.093643
H77   H     H_    0.655177 0.447427 0.614134 0.135431
H78   H     H_    0.566046 0.823077 0.537372 0.110740
H79   H     H_    0.033999 0.697433 0.229723 -0.113620
H80   H     H_    0.038705 0.309203 0.727212 -0.098720
H81   H     H_    0.534468 0.197186 0.229561 -0.113282
H82   H     H_    0.538772 0.809251 0.727255 -0.098719
H83   H     H_    0.086102 0.764709 0.981190 0.180559
H84   H     H_    0.094249 0.241777 0.486155 0.130351
H85   H     H_    0.585979 0.264733 0.981053 0.180423
H86   H     H_    0.594282 0.741733 0.486392 0.130322
H87   H     H_    0.046882 0.783021 0.155422 0.133567
H88   H     H_    0.163587 0.045232 0.149580 0.143073
H89   H     H_    0.053972 0.220847 0.657072 0.141976
H90   H     H_    0.547634 0.282805 0.156702 0.133077
H91   H     H_    0.553994 0.720858 0.657346 0.141965
H92   H     H_    0.806101 0.527424 0.189673 -0.001902
H93   H     H_    0.794682 0.471345 0.681998 -0.003996
H94   H     H_    0.306236 0.027464 0.189514 -0.001969
H95   H     H_    0.294898 0.971355 0.681905 -0.004016
H96   H     H_    0.806178 0.546197 0.981734 0.072642
H97   H     H_    0.806485 0.456357 0.477101 0.069441
H98   H     H_    0.306166 0.046189 0.981461 0.072797
H99   H     H_    0.155573 0.947337 0.615411 0.135114
H100  H     H_    0.306350 0.956347 0.476791 0.069557
H101  H     H_    0.384507 0.466945 0.326125 0.048746
H102  H     H_    0.426579 0.427369 0.201332 0.081595
H103  H     H_    0.310598 0.375269 0.156534 0.129743
H104  H     H_    0.338213 0.388122 0.374769 0.050830
H105  H     H_    0.251964 0.416892 0.244490 0.146694
H106  H     H_    0.360182 0.552952 0.796379 0.028510
H107  H     H_    0.290189 0.591839 0.668210 0.061965
H108  H     H_    0.436899 0.621100 0.757991 0.127058
H109  H     H_    0.463851 0.575911 0.629212 0.145916
H110  H     H_    0.711680 0.596146 0.081694 0.057114
H111  H     H_    0.394041 0.621677 0.536422 0.119849
H112  H     H_    0.882099 0.967573 0.327983 0.051205
H113  H     H_    0.928031 0.928994 0.207065 0.081815
H114  H     H_    0.812704 0.875631 0.153776 0.131858
H115  H     H_    0.839394 0.887395 0.372926 0.052573
H116  H     H_    0.752741 0.915970 0.243590 0.145016
H117  H     H_    0.860355 0.052953 0.796234 0.027832
H118  H     H_    0.790465 0.091737 0.667482 0.062059
H119  H     H_    0.937226 0.120942 0.757266 0.127007
H120  H     H_    0.964086 0.075621 0.628925 0.145781
N1    N     N_1   0.502305 0.532439 0.051452 -0.300617
N2    N     N_1   0.806417 0.258446 0.083784 -0.295806
N3    N     N_1   0.338679 0.243143 0.670698 -0.277333
N4    N     N_1   0.306508 0.758552 0.084045 -0.295695
N5    N     N_1   0.679071 0.358398 0.151996 -0.310978
N6    N     N_1   0.676971 0.637042 0.650231 -0.295382
N7    N     N_1   0.179763 0.858296 0.153021 -0.310721
N8    N     N_1   0.177098 0.137159 0.650423 -0.295543
N9    N     N_1   0.510162 0.481902 0.590661 -0.306502
N10   N     N_1   0.002881 0.032207 0.054442 -0.300621
N11   N     N_1   0.010108 0.981245 0.590376 -0.306323
N12   N     N_1   0.917055 0.807444 0.265680 -0.319024
N13   N     N_1   0.905017 0.209412 0.690692 -0.309171
N14   N     N_1   0.416945 0.307388 0.264399 -0.318721
N15   N     N_1   0.404934 0.709562 0.690722 -0.309092
N16   N     N_1   0.837859 0.742663 0.669947 -0.277379
O1    O     O_2   0.163830 0.569270 0.980510 -0.490794
O2    O     O_3   0.955697 0.288184 0.514186 -0.585319
O3    O     O_3   0.457615 0.211516 0.001548 -0.578075
O4    O     O_3   0.455739 0.788177 0.514330 -0.585344
O5    O     O_3   0.904940 0.476110 0.001150 -0.504662
O6    O     O_3   0.904940 0.523890 0.501150 -0.509055
O7    O     O_3   0.404940 0.976110 0.001150 -0.504677
O8    O     O_3   0.404940 0.023890 0.501150 -0.509002
O9    O     O_3   0.095420 0.524330 0.188510 -0.462369
O10   O     O_3   0.095420 0.475670 0.688510 -0.458091
O11   O     O_3   0.595420 0.024330 0.188510 -0.462188
O12   O     O_2   0.163830 0.430730 0.480510 -0.493911
O13   O     O_3   0.595420 0.975670 0.688510 -0.458230
O14   O     O_3   0.028940 0.612400 0.656050 -0.460821
O15   O     O_3   0.028940 0.387600 0.156050 -0.457526
O16   O     O_3   0.528940 0.112400 0.656050 -0.460873
O17   O     O_3   0.528940 0.887600 0.156050 -0.457524
O18   O     O_2   0.159491 0.649234 0.856907 -0.497797
O19   O     O_2   0.151912 0.345518 0.355126 -0.504175
O20   O     O_2   0.659442 0.149283 0.856937 -0.497942
O21   O     O_2   0.651940 0.845578 0.355333 -0.504132
O22   O     O_3   0.247843 0.509421 0.196777 -0.630521
O23   O     O_2   0.663830 0.069270 0.980510 -0.490965
O24   O     O_3   0.244927 0.493112 0.691189 -0.645412
O25   O     O_3   0.747782 0.009417 0.196351 -0.630207
O26   O     O_3   0.744971 0.993075 0.691193 -0.645905
O27   O     O_3   0.053516 0.710202 0.705995 -0.573618
O28   O     O_3   0.036214 0.289205 0.182943 -0.595602
O29   O     O_3   0.553610 0.210270 0.705494 -0.573987
O30   O     O_3   0.536376 0.789224 0.183034 -0.595665
O31   O     O_2   0.837400 0.570350 0.710350 -0.462504
O32   O     O_2   0.837400 0.429650 0.210350 -0.466572
O33   O     O_2   0.337400 0.070350 0.710350 -0.462648
O34   O     O_2   0.663830 0.930730 0.480510 -0.493158
O35   O     O_2   0.337400 0.929650 0.210350 -0.466571
O36   O     O_3   0.972820 0.612580 0.035550 -0.500798
O37   O     O_3   0.972820 0.387420 0.535550 -0.502842
O38   O     O_3   0.472820 0.112580 0.035550 -0.500930
O39   O     O_3   0.472820 0.887420 0.535550 -0.502787
O40   O     O_2   0.846081 0.652261 0.844172 -0.446771
O41   O     O_2   0.849990 0.345305 0.333869 -0.452054
O42   O     O_2   0.346201 0.152359 0.844110 -0.447057
O43   O     O_2   0.350089 0.845277 0.333847 -0.451878
O44   O     O_3   0.331977 0.466840 0.068417 -0.688658
O45   O     O_3   0.742654 0.517628 0.496897 -0.628358
O46   O     O_3   0.322989 0.534714 0.542695 -0.680293
O47   O     O_3   0.832727 0.967021 0.069464 -0.688720
O48   O     O_3   0.823249 0.034454 0.542711 -0.680317
O49   O     O_3   0.013837 0.803463 0.673899 -0.634147
O50   O     O_3   0.982180 0.194394 0.088372 -0.646717
O51   O     O_3   0.514485 0.303717 0.672332 -0.634741
O52   O     O_3   0.482191 0.694460 0.088354 -0.646690
O53   O     O_3   0.745243 0.483210 0.001227 -0.627714
O54   O     O_3   0.242652 0.017633 0.496946 -0.628323
O55   O     O_3   0.245254 0.983218 0.001276 -0.627680
O56   O     O_3   0.957498 0.711488 0.001091 -0.577970
P1    P     P_3+3 0.171820 0.553000 0.158080 1.004967
P2    P     P_3+3 0.902382 0.341347 0.511724 0.979936
P3    P     P_3+3 0.404411 0.158520 0.015152 0.978858
P4    P     P_3+3 0.402409 0.841337 0.511752 0.979994
P5    P     P_3+3 0.095635 0.340715 0.180642 0.965137
P6    P     P_3+3 0.102324 0.656840 0.685750 0.976238
P7    P     P_3+3 0.595738 0.840761 0.180785 0.965252
P8    P     P_3+3 0.602342 0.156842 0.685668 0.976067
P9    P     P_3+3 0.171820 0.447000 0.658080 0.994819
P10   P     P_3+3 0.671820 0.053000 0.158080 1.004859
P11   P     P_3+3 0.671820 0.947000 0.658080 0.994431
P12   P     P_3+3 0.829210 0.554130 0.532500 0.975893
P13   P     P_3+3 0.829210 0.445870 0.032500 0.982810
P14   P     P_3+3 0.329210 0.054130 0.532500 0.975859
P15   P     P_3+3 0.329210 0.945870 0.032500 0.982775
P16   P     P_3+3 0.904362 0.658495 0.015094 0.979031

loop_
_geom_bond_atom_site_label_1
_geom_bond_atom_site_label_2
_ccdc_geom_bond_type
C117  H120  S    
C83   C87   S    
O27   P6    S    
C61   O56   S    
Ba3   O16   S    
C108  H60   S    
C1    C101  S    
C87   H110  S    
C93   O46   S    
O22   P1    S    
C48   C57   S    
C100  H38   S    
C115  H116  S    
C50   C59   S    
C90   H28   S    
C84   H93   S    
C85   C90   S    
O18   P6    D    
C66   H61   S    
C92   H30   S    
O45   P12   S    
Ba1   P1    S    
C66   C70   S    
C46   C48   D    
C70   P1    S    
C89   H77   S    
C63   H81   S    
C9    N2    T    
C2    C40   A    
C17   C18   S    
C18   H6    S    
C73   P11   S    
O39   P4    S    
C94   H32   S    
C88   H63   S    
C50   H72   S    
C26   C105  S    
C64   H78   S    
C29   P14   S    
C86   C91   S    
C21   H16   S    
C1    C8    S    
C63   H76   S    
C93   O24   S    
C25   H22   S    
C16   C24   S    
C94   C98   S    
C4    N12   T    
C91   H29   S    
C7    N15   T    
C76   C88   A    
C44   O51   S    
C111  H103  S    
C109  H101  S    
C61   H79   S    
C23   H21   S    
C32   C107  D    
C65   C70   D    
C53   C67   S    
C114  H113  S    
C24   C29   A    
C71   P9    S    
C73   C99   S    
C80   H49   S    
C35   C43   S    
Ba2   O9    S    
O34   P11   D    
Ba4   P15   S    
Ba3   O8    S    
Ba1   O36   S    
C112  H106  S    
C94   O47   S    
C81   H85   S    
O30   P7    S    
C1    C4    S    
C63   O3    S    
C115  H114  S    
C113  H108  S    
C101  H1    S    
C56   C60   S    
C31   C36   A    
C51   H73   S    
C98   H37   S    
C27   C106  S    
O15   P5    S    
C96   H39   S    
C116  H117  S    
O20   P8    D    
C25   H25   S    
O9    P1    S    
C11   N4    T    
C13   C28   A    
C37   C41   A    
O38   P3    S    
C109  C111  S    
C90   H88   S    
C28   C107  S    
C23   C25   S    
C75   P5    S    
C68   H54   S    
O26   P11   S    
C72   P10   S    
Ba4   O7    S    
C24   C42   A    
C13   C41   A    
C16   N8    T    
C44   C103  S    
C36   C45   S    
Ba2   O6    S    
Ba1   O31   S    
C34   P3    S    
Ba2   O32   S    
C89   H2    S    
C79   H83   S    
C104  O30   S    
C97   H36   S    
C83   H92   S    
C62   H80   S    
C20   H12   S    
Ba2   O15   S    
C83   O53   S    
O5    P13   S    
C59   C76   S    
C30   C35   A    
C47   H69   S    
O43   P4    D    
C10   C44   S    
C21   C22   S    
C45   C51   D    
C91   H99   S    
O36   P16   S    
C104  H55   S    
C47   C49   D    
C80   H84   S    
C113  H109  S    
C114  O47   S    
C107  H59   S    
C81   H50   S    
C83   H96   S    
C17   H4    S    
C85   O55   S    
C17   H5    S    
Ba1   O14   S    
O23   P10   D    
C1    O49   S    
C72   C88   S    
C64   H82   S    
O10   P9    S    
Ba2   O37   S    
C34   C108  D    
Ba3   Ba4   S    
O55   P15   S    
C77   H62   S    
C64   O4    S    
C80   H89   S    
C10   N3    T    
C95   O26   S    
C105  H57   S    
C117  H119  S    
Ba3   P14   S    
C69   C73   D    
C19   H10   S    
C84   H97   S    
O16   P8    S    
O12   P9    D    
C12   C110  S    
C12   N5    T    
C112  O46   S    
C102  H33   S    
Ba2   O12   S    
C81   H90   S    
C96   H35   S    
C15   N7    T    
C109  O44   S    
C92   C96   S    
C2    C27   A    
C61   H74   S    
C36   C40   A    
C52   C65   S    
C26   P13   S    
C92   O44   S    
O17   P7    S    
C22   H19   S    
O28   P5    S    
C5    N13   T    
C18   H7    S    
O24   P9    S    
O21   P7    D    
Ba4   O35   S    
C78   P7    S    
C116  C117  S    
C101  O27   S    
C102  O28   S    
C33   O50   S    
C27   P12   S    
C21   H15   S    
C117  H3    S    
C39   C110  A    
C55   O52   S    
C7    C55   S    
C113  H111  S    
C56   C69   S    
C19   O50   S    
C82   H51   S    
C38   C42   A    
O53   P13   S    
C86   O54   S    
C85   H94   S    
C69   H56   S    
Ba1   O6    S    
C21   O51   S    
O35   P15   D    
C22   H17   S    
C46   H68   S    
C94   O25   S    
Ba4   O11   S    
C95   C100  S    
C17   O49   S    
Ba4   O17   S    
C32   C37   A    
C98   C120  S    
Ba3   O13   S    
C63   C81   S    
Ba3   O7    S    
Ba3   O33   S    
C120  N10   T    
C32   P4    S    
O56   P16   S    
C86   H100  S    
C79   H48   S    
C28   P15   S    
C23   H20   S    
O1    P1    D    
C95   O48   S    
C29   C108  S    
C116  H118  S    
O3    P3    S    
C31   C106  D    
C43   C50   D    
C6    C44   S    
C49   H71   S    
C89   H27   S    
C37   C46   S    
C26   C110  A    
O11   P10   S    
C103  H44   S    
C3    N11   T    
C11   C55   S    
C97   H40   S    
C99   H64   S    
C82   H86   S    
C25   H23   S    
C87   H26   S    
C90   H13   S    
Ba4   O8    S    
Ba2   P9    S    
O42   P3    D    
O19   P5    D    
C111  H104  S    
C67   H53   S    
C109  H102  S    
C93   H31   S    
C31   P16   S    
C119  N9    T    
Ba1   P12   S    
O32   P13   D    
C100  H42   S    
C114  H112  S    
Ba3   P10   S    
C106  H58   S    
C74   P6    S    
C52   C57   S    
C62   O2    S    
C103  H46   S    
O33   P14   D    
O8    P14   S    
C66   C74   A    
C64   C82   S    
C68   C72   D    
C115  H115  S    
C53   C58   S    
C97   C119  S    
Ba2   P13   S    
Ba4   O34   S    
C34   C38   A    
C61   C79   S    
O41   P2    D    
C112  C113  S    
Ba1   Ba2   S    
O40   P16   D    
C114  C115  S    
C82   H91   S    
C78   C99   A    
C6    N14   T    
Ba4   O39   S    
C9    C33   S    
C62   H75   S    
C38   C47   S    
Ba3   O23   S    
C84   O45   S    
O37   P2    S    
C2    C14   S    
C87   H66   S    
C19   H9    S    
C58   C75   S    
C48   H70   S    
C85   H98   S    
C75   C77   A    
C71   C77   S    
C35   C39   A    
Ba1   O10   S    
C20   H14   S    
Ba2   O5    S    
Ba4   P11   S    
C92   O22   S    
C101  H43   S    
C43   H65   S    
Ba3   O38   S    
C49   C58   S    
C57   C74   S    
C19   C20   S    
C51   C60   S    
C5    C33   S    
C116  O48   S    
C60   C78   S    
C86   H95   S    
O4    P4    S    
Ba1   O1    S    
C20   H11   S    
C65   H52   S    
O13   P11   S    
C98   H41   S    
C3    C100  S    
C118  N1    T    
C112  H107  S    
C76   P8    S    
C102  H45   S    
C104  H47   S    
C30   P2    S    
O54   P14   S    
O25   P10   S    
C54   C59   S    
C84   C89   S    
C18   H8    S    
C91   H24   S    
O31   P12   D    
C45   H67   S    
O14   P6    S    
C55   C104  S    
O2    P2    S    
C33   C102  S    
O7    P15   S    
C67   C71   D    
C54   C68   S    
C14   N6    T    
C13   C15   S    
C96   C118  S    
C79   H87   S    
C111  H105  S    
C62   C80   S    
Ba1   O5    S    
C95   H34   S    
C30   C105  D    
C23   O52   S    
C8    N16   T    
C22   H18   S    
C93   C97   S    
C103  O29   S    
O29   P8    S    
O6    P12   S    
