data_mof_unit_27586.cif
_audit_creation_date              2012-12-11T18:37:50-0500
_audit_creation_method            fapswitch 2.2
_symmetry_space_group_name_H-M    P1
_symmetry_Int_Tables_number       1
_space_group_crystal_system       triclinic
_cell_length_a                    8.269778
_cell_length_b                    14.337112
_cell_length_c                    27.040039
_cell_angle_alpha                 93.716408
_cell_angle_beta                  92.028428
_cell_angle_gamma                 88.031229
_cell_volume                      3195.59581053

loop_
_atom_site_label
_atom_site_type_symbol
_atom_type_description
_atom_site_fract_x
_atom_site_fract_y
_atom_site_fract_z
_atom_type_partial_charge
Ba1   Ba    Ba6+2 0.849670 0.455410 0.524690 1.658322
Ba2   Ba    Ba6+2 0.340150 0.544510 0.475310 1.663603
C1    C     C_3   0.703804 0.133581 0.688981 -0.315272
C2    C     C_R   0.960501 0.599300 0.179474 0.585291
C3    C     C_2   0.783774 0.568169 0.271468 -0.088033
C4    C     C_3   0.066010 0.259645 0.667560 0.237621
C5    C     C_3   0.759853 0.596375 0.325599 -0.099602
C6    C     C_1   0.986741 0.488209 0.344492 0.050325
C7    C     C_2   0.030158 0.481810 0.297168 -0.082819
C8    C     C_2   0.922021 0.522069 0.257231 0.213317
C9    C     C_R   0.043231 0.512549 0.103279 -0.080215
C10   C     C_R   0.058067 0.431040 0.129818 -0.034289
C11   C     C_R   0.110604 0.347425 0.104719 -0.061622
C12   C     C_3   0.652817 0.216339 0.657914 0.278521
C13   C     C_R   0.993573 0.597020 0.128456 -0.026829
C14   C     C_2   0.861660 0.539859 0.360642 -0.264073
C15   C     C_2   0.358346 0.487312 0.641643 -0.290332
C16   C     C_3   0.167624 0.249689 0.715468 -0.190661
C17   C     C_R   0.179424 0.424160 0.976095 0.018241
C18   C     C_R   0.081769 0.588053 0.972884 0.020288
C19   C     C_R   0.148189 0.505013 0.948942 0.050934
C20   C     C_R   0.253920 0.345071 0.951087 -0.099242
C21   C     C_R   0.293144 0.344895 0.901289 -0.037646
C22   C     C_R   0.258560 0.423109 0.873712 -0.027538
C23   C     C_3   0.521063 0.694100 0.622816 0.295083
C24   C     C_R   0.184385 0.503026 0.897350 -0.080505
C25   C     C_R   0.147562 0.581272 0.869508 -0.034595
C26   C     C_R   0.184408 0.578525 0.818593 0.593086
C27   C     C_R   0.298096 0.423156 0.823093 0.591592
C28   C     C_3   0.175168 0.254409 0.415338 0.310053
C29   C     C_2   0.457477 0.484819 0.730188 -0.071913
C30   C     C_3   0.504574 0.492039 0.676802 -0.033474
C31   C     C_1   0.217197 0.522158 0.656448 0.024909
C32   C     C_2   0.175899 0.520543 0.703599 -0.104106
C33   C     C_2   0.301632 0.499867 0.743559 0.197185
C34   C     C_3   0.497073 0.732282 0.675976 -0.352942
C35   C     C_R   0.136827 0.425273 0.027104 0.020789
C36   C     C_R   0.078484 0.509839 0.051595 0.050024
C37   C     C_R   0.055199 0.591919 0.024977 0.020213
C38   C     C_R   0.149785 0.344543 0.054769 -0.098961
C39   C     C_R   0.978637 0.678236 0.102254 -0.064722
C40   C     C_3   0.191251 0.150956 0.398875 -0.392209
C41   C     C_R   0.043082 0.664543 0.943535 -0.100543
C42   C     C_R   0.074953 0.661011 0.893164 -0.058299
C43   C     C_R   0.007890 0.675831 0.051798 -0.102400
C44   C     C_R   0.688742 0.064486 0.472788 -0.051478
C45   C     C_3   0.009532 0.798129 0.337120 0.312667
C46   C     C_R   0.497620 0.196163 0.496209 0.047199
C47   C     C_R   0.347549 0.225029 0.515162 -0.223646
C48   C     C_R   0.246762 0.162497 0.535758 0.073503
C49   C     C_R   0.295673 0.068612 0.536730 -0.077672
C50   C     C_R   0.444766 0.037210 0.517041 -0.003868
C51   C     C_R   0.545247 0.100061 0.495061 -0.037532
C52   C     C_3   0.027726 0.740522 0.574637 0.295935
C53   C     C_R   0.635775 0.907783 0.496748 -0.018300
C54   C     C_R   0.734163 0.969284 0.473203 0.003453
C55   C     C_R   0.681822 0.812004 0.496394 0.042646
C56   C     C_3   0.034234 0.828203 0.285177 -0.314456
C57   C     C_R   0.818500 0.778364 0.471598 -0.280108
C58   C     C_R   0.920899 0.839211 0.451178 -0.010495
C59   C     C_R   0.878698 0.934777 0.451325 -0.147923
C60   C     C_R   0.494108 0.943440 0.519508 -0.022342
C61   C     C_3   0.021607 0.846231 0.584991 -0.359886
C62   C     C_3   0.661281 0.345737 0.381445 0.295196
C63   C     C_3   0.681844 0.323248 0.326239 -0.371289
C64   C     C_2   0.490529 0.202611 0.634221 0.798175
C65   C     C_R   0.586776 0.940672 0.295155 -0.004278
C66   C     C_R   0.653795 0.954801 0.249294 -0.049082
C67   C     C_3   0.546145 0.781202 0.323369 0.340098
C68   C     C_R   0.770576 0.022173 0.246008 -0.060746
C69   C     C_R   0.820515 0.076115 0.288316 -0.063976
C70   C     C_R   0.752381 0.063534 0.333861 -0.052764
C71   C     C_R   0.636105 0.996014 0.337390 -0.064764
C72   C     C_2   0.140749 0.159831 0.739113 0.929162
C73   C     C_3   0.466165 0.865491 0.299337 -0.219913
C74   C     C_R   0.017936 0.434568 0.180678 0.592972
H1    H     H_    0.740387 0.220526 0.628085 0.040665
H2    H     H_    0.775983 0.372072 0.398255 0.012753
H3    H     H_    0.564603 0.400527 0.386293 0.097298
H4    H     H_    0.820048 0.146099 0.709303 0.123167
H5    H     H_    0.790558 0.276950 0.320362 0.124301
H6    H     H_    0.697037 0.388274 0.307154 0.077540
H7    H     H_    0.573405 0.287907 0.309724 0.137026
H8    H     H_    0.718215 0.068603 0.664590 0.104228
H9    H     H_    0.401154 0.674412 0.606438 0.028777
H10   H     H_    0.604391 0.631700 0.622805 0.028650
H11   H     H_    0.421218 0.797771 0.676234 0.155790
H12   H     H_    0.267250 0.141290 0.365755 0.133512
H13   H     H_    0.434956 0.680959 0.696966 0.075435
H14   H     H_    0.616124 0.747232 0.694569 0.126985
H15   H     H_    0.611861 0.123096 0.716951 0.157075
H16   H     H_    0.298028 0.255722 0.708839 0.091679
H17   H     H_    0.984869 0.722498 0.334726 0.021376
H18   H     H_    0.903807 0.839318 0.352117 -0.051554
H19   H     H_    0.131314 0.784042 0.267277 0.155294
H20   H     H_    0.920189 0.820522 0.262696 0.124950
H21   H     H_    0.068002 0.902669 0.286747 0.095627
H22   H     H_    0.657547 0.761976 0.302682 -0.042216
H23   H     H_    0.248434 0.110832 0.428857 0.053912
H24   H     H_    0.578988 0.801238 0.362859 -0.004536
H25   H     H_    0.363929 0.894416 0.321607 0.134719
H26   H     H_    0.940438 0.265753 0.678210 0.059938
H27   H     H_    0.416438 0.842371 0.261966 0.093638
H28   H     H_    0.145949 0.449215 0.287293 0.125061
H29   H     H_    0.122132 0.283201 0.123759 0.118279
H30   H     H_    0.552155 0.473912 0.758268 0.105596
H31   H     H_    0.350990 0.282429 0.884326 0.131909
H32   H     H_    0.287387 0.282332 0.969325 0.070473
H33   H     H_    0.186758 0.276911 0.038568 0.069464
H34   H     H_    0.070067 0.122711 0.389528 0.106199
H35   H     H_    0.700416 0.597044 0.244094 0.101422
H36   H     H_    0.942851 0.744705 0.120721 0.115155
H37   H     H_    0.984370 0.728129 0.958158 0.070206
H38   H     H_    0.092484 0.327820 0.653506 0.028313
H39   H     H_    0.042791 0.721896 0.872731 0.125073
H40   H     H_    0.052123 0.536978 0.713819 0.129778
H41   H     H_    0.995965 0.742021 0.035118 0.068125
H42   H     H_    0.848255 0.556915 0.400008 0.076441
H43   H     H_    0.375291 0.466295 0.602827 0.109813
H44   H     H_    0.311505 0.298378 0.515739 0.078963
H45   H     H_    0.905824 0.716571 0.563345 0.004177
H46   H     H_    0.220191 0.020987 0.554306 0.079756
H47   H     H_    0.958210 0.981618 0.434775 0.058800
H48   H     H_    0.851986 0.704708 0.471497 0.053364
H49   H     H_    0.765963 0.109401 0.454426 0.089160
H50   H     H_    0.132406 0.308950 0.741799 0.074166
H51   H     H_    0.418153 0.898687 0.538578 0.101461
H52   H     H_    0.297805 0.281201 0.423203 0.010885
H53   H     H_    0.100312 0.262697 0.448756 0.027560
H54   H     H_    0.319002 0.299027 0.621821 0.261037
H55   H     H_    0.617891 0.912659 0.216305 0.070240
H56   H     H_    0.112452 0.722759 0.544329 0.069934
H57   H     H_    0.823253 0.032062 0.210726 0.074385
H58   H     H_    0.911947 0.127656 0.285775 0.087700
H59   H     H_    0.789798 0.106094 0.366389 0.080486
H60   H     H_    0.584686 0.986537 0.372913 0.063646
H61   H     H_    0.057129 0.097690 0.797478 0.311750
H62   H     H_    0.931097 0.866297 0.613478 0.145206
H63   H     H_    0.987566 0.881763 0.550841 0.052478
H64   H     H_    0.142434 0.870255 0.598636 0.132980
N1    N     N_R   0.968239 0.518209 0.205114 -0.420910
N2    N     N_R   0.259114 0.499986 0.795719 -0.427468
O1    O     O_2   0.918080 0.549800 0.616640 -0.460631
O2    O     O_2   0.257516 0.832206 0.457472 -0.484366
O3    O     O_3   0.150423 0.814635 0.366328 -0.569352
O4    O     O_3   0.150070 0.549720 0.556460 -0.496395
O5    O     O_3   0.546340 0.387390 0.478340 -0.488493
O6    O     O_2   0.398940 0.728800 0.517420 -0.470129
O7    O     O_3   0.588940 0.763495 0.596805 -0.641309
O8    O     O_2   0.447350 0.523753 0.324263 -0.487504
O9    O     O_3   0.439836 0.706172 0.320303 -0.558830
O10   O     O_2   0.025205 0.362865 0.202839 -0.602372
O11   O     O_2   0.367220 0.354522 0.803436 -0.592253
O12   O     O_3   0.619199 0.264349 0.403141 -0.649291
O13   O     O_2   0.925593 0.674219 0.201187 -0.630956
O14   O     O_2   0.152696 0.646974 0.794910 -0.591103
O15   O     O_3   0.658250 0.379560 0.591530 -0.437897
O16   O     O_2   0.830684 0.434773 0.673168 -0.511442
O17   O     O_3   0.079565 0.699567 0.618159 -0.622392
O18   O     O_3   0.645987 0.298950 0.689291 -0.612553
O19   O     O_2   0.790750 0.271170 0.482550 -0.469336
O20   O     O_3   0.062300 0.331660 0.568480 -0.496761
O21   O     O_2   0.909035 0.170922 0.550677 -0.506684
O22   O     O_2   0.414067 0.132430 0.638863 -0.585638
O23   O     O_3   0.088757 0.181025 0.633581 -0.555913
O24   O     O_R   0.424669 0.275656 0.608596 -0.785649
O25   O     O_2   0.183709 0.085095 0.718519 -0.546818
O26   O     O_R   0.068698 0.162359 0.785176 -0.755449
O27   O     O_2   0.271610 0.450170 0.383330 -0.460106
O28   O     O_3   0.039630 0.450200 0.443530 -0.497765
O29   O     O_3   0.531440 0.620360 0.408460 -0.459647
O30   O     O_3   0.100109 0.301569 0.377005 -0.632217
O31   O     O_3   0.643350 0.612530 0.521650 -0.478950
O32   O     O_3   0.127390 0.668260 0.431510 -0.468357
P1    P     P_3+3 0.090020 0.577590 0.608380 0.996052
P2    P     P_3+3 0.614340 0.285150 0.467650 0.980559
P3    P     P_3+3 0.071803 0.210320 0.571030 0.992144
P4    P     P_3+3 0.099670 0.422330 0.391610 0.987461
P5    P     P_3+3 0.113200 0.789861 0.427182 0.972194
P6    P     P_3+3 0.660444 0.401558 0.656739 0.996285
P7    P     P_3+3 0.582431 0.729881 0.533468 0.940234
P8    P     P_3+3 0.544318 0.609481 0.343912 0.971492

loop_
_geom_bond_atom_site_label_1
_geom_bond_atom_site_label_2
_ccdc_geom_bond_type
C34   H13   S    
O7    P7    S    
C53   C54   A    
C45   O3    S    
Ba1   P2    S    
C66   H55   S    
O23   P3    S    
C61   H64   S    
C41   H37   S    
O29   P8    S    
O1    P1    D    
C19   C24   A    
C69   H58   S    
C72   O26   S    
O8    P8    D    
C58   P5    S    
Ba1   O31   S    
C24   C25   A    
O28   P4    S    
C23   O7    S    
C17   C19   A    
C22   C24   A    
C32   C33   S    
C35   C38   A    
Ba2   O31   S    
C36   C37   A    
C55   C57   A    
C47   H44   S    
C52   C61   S    
C74   O10   D    
Ba2   O6    S    
C53   C60   A    
C62   O12   S    
Ba1   O28   S    
C1    H15   S    
Ba1   Ba2   S    
C12   H1    S    
C56   H20   S    
C22   C27   A    
O18   P6    S    
O20   P3    S    
O16   P6    D    
C17   C35   A    
C52   O17   S    
C9    C13   A    
C25   C42   A    
C4    H38   S    
C42   H39   S    
O6    P7    D    
C11   C38   A    
C39   H36   S    
O21   P3    D    
C68   H57   S    
C21   C22   A    
C71   H60   S    
C68   C69   A    
C65   C71   A    
C7    C8    S    
Ba2   O29   S    
C37   C43   A    
C67   H22   S    
C4    O23   S    
Ba1   O19   S    
C57   C58   A    
C16   C72   S    
O17   P1    S    
C73   H27   S    
Ba1   O4    S    
C56   H21   S    
C15   C31   D    
C1    H4    S    
C55   P7    S    
C72   O25   D    
C33   N2    S    
C48   C49   A    
C34   H11   S    
C45   H17   S    
C46   C51   A    
C4    C16   S    
C28   H52   S    
C64   O24   S    
C34   H14   S    
C49   C50   A    
C67   O9    S    
C17   C20   A    
C13   C39   A    
C11   H29   S    
C62   H3    S    
C2    N1    Am   
C3    C5    S    
O19   P2    D    
O5    P2    S    
C6    C7    D    
C70   H59   S    
C3    H35   S    
Ba2   O5    S    
C74   N1    Am   
C65   C66   A    
C12   O18   S    
C58   C59   A    
O15   P6    S    
C9    C36   A    
C56   H19   S    
C35   C36   A    
Ba1   O1    S    
C14   H42   S    
H54   O24   S    
C63   H5    S    
C29   C30   S    
O2    P5    D    
C21   H31   S    
O4    P1    S    
O3    P5    S    
C23   H9    S    
C31   C32   D    
C12   C64   S    
C64   O22   D    
C18   C19   A    
C26   N2    Am   
C28   O30   S    
C1    C12   S    
Ba2   O28   S    
C66   C68   A    
C46   C47   A    
C52   H45   S    
Ba1   O20   S    
C53   C55   A    
C41   C42   A    
C15   C30   S    
C61   H62   S    
C29   C33   D    
Ba1   O5    S    
C40   H12   S    
C26   O14   D    
O27   P4    D    
C1    H8    S    
C18   C41   A    
C50   C51   A    
O9    P8    S    
C27   O11   D    
O30   P4    S    
C57   H48   S    
C18   C37   A    
C5    C14   S    
C5    P8    S    
C23   C34   S    
C54   C59   A    
C62   H2    S    
C28   C40   S    
C48   P3    S    
C70   C71   A    
C44   H49   S    
C9    C10   A    
C38   H33   S    
C61   H63   S    
Ba2   O4    S    
C28   H53   S    
C52   H56   S    
O12   P2    S    
C59   H47   S    
C16   H16   S    
C62   C63   S    
C2    C13   A    
C10   C74   A    
C40   H34   S    
C3    C8    D    
C50   C60   A    
C40   H23   S    
C16   H50   S    
C45   C56   S    
C63   H6    S    
C60   H51   S    
C7    H28   S    
C20   H32   S    
C27   N2    Am   
C44   C51   A    
Ba1   O15   S    
C23   H10   S    
C29   H30   S    
C45   H18   S    
C67   C73   S    
C4    H26   S    
C31   P1    S    
C43   H41   S    
C63   H7    S    
C15   H43   S    
Ba2   O27   S    
O31   P7    S    
C67   H24   S    
C6    P4    S    
C69   C70   A    
C2    O13   D    
C65   C73   S    
C10   C11   A    
C6    C14   D    
C47   C48   A    
C44   C54   A    
C25   C26   A    
C73   H25   S    
C49   H46   S    
C39   C43   A    
C20   C21   A    
C30   P6    S    
Ba2   P4    S    
C32   H40   S    
O32   P5    S    
C8    N1    S    
H61   O26   S    
Ba2   O32   S    
C46   P2    S    
Ba1   P1    S    
