data_mof_unit_66961.cif
_audit_creation_date              2013-03-05T15:58:11-0500
_audit_creation_method            fapswitch 2.2
_symmetry_space_group_name_H-M    P1
_symmetry_Int_Tables_number       1
_space_group_crystal_system       triclinic
_cell_length_a                    8.230831
_cell_length_b                    12.720455
_cell_length_c                    14.268479
_cell_angle_alpha                 92.680116
_cell_angle_beta                  90.998678
_cell_angle_gamma                 98.218247
_cell_volume                      1476.51055007

loop_
_atom_site_label
_atom_site_type_symbol
_atom_site_description
_atom_site_fract_x
_atom_site_fract_y
_atom_site_fract_z
_atom_type_partial_charge
P1    P     P_3+3 0.054400 0.427280 0.286870 0.448661
O1    O     O_2   0.887370 0.460630 0.272300 -0.410762
O2    O     O_3   0.129410 0.451380 0.388510 -0.366414
O3    O     O_3   0.670210 0.653170 0.329170 -0.360685
O4    O     O_2   0.789431 0.590843 0.167145 -0.392357
O5    O     O_3   0.046864 0.290728 0.264108 -0.634430
O6    O     O_3   0.718735 0.783613 0.173566 -0.453784
H1    H     H_    0.558128 0.855583 0.256135 0.080858
C1    C     C_3   0.615715 0.943162 0.131475 -0.778213
H2    H     H_    0.536234 0.998957 0.161564 0.189246
H3    H     H_    0.746494 0.978415 0.139084 0.327366
P2    P     P_3+3 0.668300 0.742890 0.573060 0.469533
P3    P     P_3+3 0.132031 0.842084 0.378317 0.536874
O7    O     O_2   0.845380 0.761330 0.544970 -0.374656
O8    O     O_3   0.088930 0.704860 0.376040 -0.411899
O9    O     O_2   0.999092 0.887852 0.436076 -0.292422
O10   O     O_3   0.678126 0.764175 0.694841 -0.557255
O11   O     O_3   0.101100 0.879494 0.264394 -0.449057
C2    C     C_3   0.138859 0.799204 0.201260 0.527759
H4    H     H_    0.034801 0.733522 0.195065 0.162484
H5    H     H_    0.250118 0.766286 0.223841 -0.053164
C3    C     C_3   0.167442 0.845024 0.105749 -0.899680
H6    H     H_    0.054274 0.872727 0.079805 0.335332
H7    H     H_    0.266165 0.914176 0.110767 0.228812
C4    C     C_3   0.227218 0.761549 0.654953 0.387143
H8    H     H_    0.350158 0.742267 0.638230 0.081573
H9    H     H_    0.141241 0.738831 0.594249 0.133875
C5    C     C_3   0.237233 0.880598 0.675213 -0.889418
H10   H     H_    0.314267 0.904594 0.739070 0.252101
H11   H     H_    0.291897 0.924864 0.615835 0.214790
H12   H     H_    0.112477 0.901355 0.686940 0.295654
Ba1   Ba    Ba6+2 0.855630 0.555280 0.454520 1.590186
C6    C     C_3   0.894115 0.231294 0.275836 1.049433
H13   H     H_    0.827617 0.263664 0.334710 -0.032087
C7    C     C_3   0.796862 0.221851 0.183246 -1.039030
H14   H     H_    0.693325 0.156757 0.183849 0.269247
H15   H     H_    0.875781 0.206630 0.123122 0.260168
H16   H     H_    0.744408 0.295186 0.173092 0.214890
C8    C     C_3   0.712043 0.672821 0.737614 0.230041
H17   H     H_    0.837975 0.658610 0.721207 0.104156
H18   H     H_    0.622718 0.602047 0.714609 0.078072
C9    C     C_3   0.696521 0.690245 0.843199 0.193522
H19   H     H_    0.710937 0.616530 0.878880 0.026848
H20   H     H_    0.572444 0.710536 0.858413 0.065571
P4    P     P_3+3 0.135310 0.572810 0.713130 0.473345
O12   O     O_2   0.302330 0.539400 0.727760 -0.390510
O13   O     O_3   0.060300 0.548700 0.611500 -0.406572
O14   O     O_3   0.519500 0.346920 0.670840 -0.379813
O15   O     O_3   0.173741 0.710439 0.735696 -0.533641
P5    P     P_3+3 0.059352 0.156379 0.625685 0.491837
O16   O     O_3   0.614310 0.373510 0.452640 -0.403105
O17   O     O_3   0.100780 0.295230 0.623970 -0.387240
O18   O     O_2   0.197925 0.112136 0.571429 -0.357917
O19   O     O_3   0.086686 0.118447 0.740796 -0.522132
Ba2   Ba    Ba6+2 0.334200 0.444810 0.545490 1.576250
P6    P     P_3+3 0.656772 0.653422 0.206948 0.484565
C10   C     C_3   0.583467 0.839207 0.180915 0.483065
H21   H     H_    0.474177 0.794272 0.144591 0.003606
H22   H     H_    0.583533 0.930037 0.055535 0.241190
O20   O     O_3   0.575400 0.626570 0.547370 -0.402397
C11   C     C_3   0.455812 0.313993 0.260347 0.432667
H23   H     H_    0.356575 0.344368 0.300039 0.138709
H24   H     H_    0.564159 0.377137 0.262629 0.090765
C12   C     C_3   0.396888 0.289149 0.158367 -1.027105
H25   H     H_    0.270916 0.244669 0.155214 0.284363
H26   H     H_    0.396928 0.363655 0.121276 0.233476
H27   H     H_    0.477243 0.240182 0.119855 0.271527
P7    P     P_3+3 0.524429 0.242182 0.420062 0.442013
O21   O     O_2   0.344320 0.238700 0.455090 -0.314648
O22   O     O_3   0.498114 0.221448 0.298354 -0.585887
H28   H     H_    0.203487 0.783379 0.055969 0.226960
C13   C     C_3   0.046971 0.198899 0.803562 0.457557
H29   H     H_    0.132979 0.273653 0.796876 0.146496
H30   H     H_    0.919112 0.213971 0.790886 0.009956
C14   C     C_3   0.062441 0.164660 0.903728 -0.887790
H31   H     H_    0.190307 0.151124 0.919140 0.283304
H32   H     H_    0.030744 0.227699 0.953733 0.205232
H33   H     H_    0.978016 0.090033 0.913660 0.284339
P8    P     P_3+3 0.536665 0.346836 0.793077 0.441674
C15   C     C_3   0.541292 0.145496 0.762823 0.418350
H34   H     H_    0.655250 0.180339 0.728238 0.020431
O23   O     O_2   0.404093 0.408448 0.834878 -0.409757
O24   O     O_3   0.480005 0.216649 0.827048 -0.511932
H35   H     H_    0.445962 0.118091 0.707574 0.136560
H36   H     H_    0.684040 0.075352 0.865515 0.271714
C16   C     C_3   0.580764 0.050183 0.814627 -0.933272
H37   H     H_    0.616056 0.989247 0.763672 0.253665
H38   H     H_    0.472380 0.015138 0.853730 0.261252
C17   C     C_R   0.984579 0.451822 0.061237 -0.142965
C18   C     C_R   0.182253 0.501233 0.196733 0.256942
C19   C     C_R   0.337881 0.550832 0.226620 -0.510470
C20   C     C_R   0.452486 0.593092 0.162658 0.213494
C21   C     C_R   0.409943 0.593514 0.067505 -0.324845
C22   C     C_R   0.252062 0.549541 0.034744 0.053349
C23   C     C_R   0.137946 0.499996 0.098450 -0.004004
H39   H     H_    0.373188 0.552149 0.300116 0.171256
C24   C     C_R   0.055456 0.503502 0.901756 0.041097
C25   C     C_R   0.942339 0.452783 0.965201 0.061812
C26   C     C_R   0.009561 0.501338 0.804081 0.271702
C27   C     C_R   0.855898 0.448495 0.773822 -0.571555
C28   C     C_R   0.742579 0.404108 0.837286 0.253778
C29   C     C_R   0.785640 0.404940 0.932453 -0.305478
C30   C     C_R   0.208896 0.553631 0.938721 -0.065182
H40   H     H_    0.499713 0.629431 0.019539 0.158324
H41   H     H_    0.696742 0.368591 0.980787 0.160840
H42   H     H_    0.820516 0.446626 0.700289 0.181943
H43   H     H_    0.894579 0.415143 0.106589 0.164329
H44   H     H_    0.297079 0.595696 0.893573 0.147868
C31   C     C_R   0.769234 0.175347 0.528002 -0.420259
C32   C     C_R   0.429040 0.813889 0.463045 -0.509438
C33   C     C_R   0.404321 0.994628 0.428808 -0.174610
C34   C     C_R   0.339516 0.887544 0.425862 0.158290
C35   C     C_R   0.576364 0.846809 0.512849 0.303168
C36   C     C_R   0.641265 0.957286 0.521062 -0.030184
C37   C     C_R   0.554717 0.031456 0.476131 -0.009813
C38   C     C_R   0.620664 0.140656 0.480167 0.236007
C39   C     C_R   0.855994 0.104257 0.571571 0.269468
C40   C     C_R   0.790443 0.996194 0.570622 -0.177038
H45   H     H_    0.334212 0.048008 0.394937 0.209813
H46   H     H_    0.858645 0.944026 0.607523 0.180560
H47   H     H_    0.820489 0.258644 0.529053 0.163123
H48   H     H_    0.378081 0.730489 0.458417 0.167651
S1    S     S_3+6 0.937547 0.103163 0.301293 -0.023547
O25   O     O_2   0.046412 0.110938 0.387405 -0.289724
O26   O     O_2   0.783336 0.028424 0.316787 -0.321066
O27   O     O_3   0.035869 0.058909 0.208449 -0.510777
H49   H     H_    0.153909 0.083550 0.222129 0.366660
S2    S     S_3+6 0.847491 0.794996 0.890263 -0.030845
O28   O     O_2   0.863337 0.888583 0.828829 -0.287358
O29   O     O_2   0.795572 0.828880 0.985622 -0.287280
O30   O     O_3   0.029170 0.750872 0.900067 -0.542295
H50   H     H_    0.112280 0.815017 0.896648 0.377227

loop_
_geom_bond_atom_site_label_1
_geom_bond_atom_site_label_2
_geom_bond_distance
_ccdc_geom_bond_type
C11   O22   1.404086 S    
O14   Ba2   2.780602 S    
C21   C22   1.402362 A    
O3    Ba1   2.781196 S    
P5    C39   1.851265 S    
O4    P6    1.541507 D    
C2    H4    1.106944 S    
C15   H35   1.110482 S    
S2    O28   1.503258 D    
C40   H46   1.077774 S    
C36   C37   1.428788 A    
C10   H21   1.101617 S    
C31   C39   1.391347 A    
C18   C23   1.441626 A    
C8    H18   1.110641 S    
P4    O12   1.509751 D    
C4    C5    1.518613 S    
P5    O19   1.753100 S    
P3    O11   1.739560 S    
O14   P8    1.747457 S    
O1    Ba1   2.845823 S    
C5    H10   1.106307 S    
C7    H15   1.111407 S    
O11   C2    1.402009 S    
P3    C34   1.830769 S    
C15   O24   1.408020 S    
C16   H38   1.110293 S    
S1    O26   1.499416 D    
C37   C38   1.415393 A    
C29   H41   1.084194 S    
C33   H45   1.077314 S    
P1    O1    1.509396 D    
O10   C8    1.397834 S    
C11   H24   1.110528 S    
C20   C21   1.396648 A    
C15   C16   1.519853 S    
C31   C38   1.394432 A    
C19   H39   1.082029 S    
C35   C36   1.428914 A    
O2    Ba2   2.791304 S    
C7    H14   1.100507 S    
P7    O21   1.567976 D    
O12   Ba2   2.846339 S    
P5    O17   1.751761 S    
C30   H44   1.079639 S    
C1    H2    1.109073 S    
Ba1   Ba2   4.555242 S    
C1    C10   1.519915 S    
C11   H23   1.105930 S    
O17   Ba2   2.791885 S    
C9    S2    1.784487 S    
Ba2   O20   2.822728 S    
P2    Ba1   3.420365 S    
C22   C23   1.421196 A    
C9    H20   1.111103 S    
O6    P6    1.752259 S    
C13   C14   1.521929 S    
C21   H40   1.083266 S    
C24   C26   1.435583 A    
C24   C25   1.419454 A    
C8    C9    1.522722 S    
C4    O15   1.396292 S    
P4    O13   1.565601 S    
P5    O18   1.546117 D    
P1    O5    1.744202 S    
C28   C29   1.396571 A    
S1    O25   1.499087 D    
C2    C3    1.516100 S    
C13   H30   1.109635 S    
P4    C26   1.862810 S    
P1    C18   1.877173 S    
C19   C20   1.393780 A    
C16   H37   1.110333 S    
C13   H29   1.110339 S    
S1    O27   1.680674 S    
C4    H8    1.102236 S    
H36   C16   1.109603 S    
P1    Ba1   3.403477 S    
C1    H22   1.110216 S    
C12   H26   1.106860 S    
C17   C23   1.405708 A    
C11   C12   1.530030 S    
C14   H31   1.110370 S    
C12   H27   1.107164 S    
Ba1   O16   2.823398 S    
H1    C10   1.112715 S    
C1    H3    1.106760 S    
C26   C27   1.395946 A    
P4    O15   1.747604 S    
C17   H43   1.063628 S    
C6    H13   1.105850 S    
C24   C30   1.412414 A    
C14   H32   1.110386 S    
C32   C35   1.395608 A    
C36   C40   1.419828 A    
P7    C38   1.844749 S    
O8    Ba1   2.791294 S    
P2    O7    1.507127 D    
C22   C30   1.414602 A    
P3    O8    1.729490 S    
Ba1   O13   2.790736 S    
C3    H7    1.107657 S    
C9    H19   1.107655 S    
Ba1   O20   2.913716 S    
O30   H50   0.990675 S    
S2    O30   1.676519 S    
C3    H28   1.108687 S    
C8    H17   1.104506 S    
O13   Ba2   2.919816 S    
P2    C35   1.851381 S    
C33   C34   1.388492 A    
C2    H5    1.108919 S    
C3    H6    1.105832 S    
C5    H12   1.109722 S    
O7    Ba1   2.879809 S    
C15   H34   1.112416 S    
S2    O29   1.495922 D    
P8    O23   1.544048 D    
C4    H9    1.109632 S    
C27   H42   1.082241 S    
O5    C6    1.388408 S    
C17   C25   1.408866 A    
C12   H25   1.107028 S    
Ba2   O21   2.880021 S    
C5    H11   1.105798 S    
C25   C29   1.407193 A    
C39   C40   1.402435 A    
C32   H48   1.082140 S    
P2    O10   1.744716 S    
P8    O24   1.748440 S    
C31   H47   1.082316 S    
C18   C19   1.394802 A    
O27   H49   0.990407 S    
C27   C28   1.391208 A    
C6    C7    1.523605 S    
O16   Ba2   2.912933 S    
O16   P7    1.765273 S    
O2    Ba1   2.919053 S    
C14   H33   1.109740 S    
C32   C34   1.390141 A    
P2    O20   1.588850 S    
P6    C20   1.834181 S    
O19   C13   1.405830 S    
P4    Ba2   3.403933 S    
P7    O22   1.749264 S    
P3    O9    1.544055 D    
C6    S1    1.770218 S    
C7    H16   1.096912 S    
P8    C28   1.835185 S    
C33   C37   1.408278 A    
P1    O2    1.565719 S    
O6    C10   1.404603 S    
O3    P6    1.745688 S    
