data_mof_unit_41089.cif
_audit_creation_date              2012-12-10T17:09:15-0500
_audit_creation_method            fapswitch 2.2
_symmetry_space_group_name_H-M    P1
_symmetry_Int_Tables_number       1
_space_group_crystal_system       triclinic
_cell_length_a                    17.849603
_cell_length_b                    18.885475
_cell_length_c                    11.850622
_cell_angle_alpha                 90.000049
_cell_angle_beta                  75.581537
_cell_angle_gamma                 89.999906
_cell_volume                      3868.99864451

loop_
_atom_site_label
_atom_site_type_symbol
_atom_type_description
_atom_site_fract_x
_atom_site_fract_y
_atom_site_fract_z
_atom_type_partial_charge
C1    C     C_R   0.399208 0.099780 0.521646 0.852999
C2    C     C_R   0.601478 0.900769 0.478269 0.851455
C3    C     C_R   0.600792 0.099780 0.478354 0.853000
C4    C     C_R   0.398523 0.900769 0.521730 0.851458
C5    C     C_R   0.899208 0.599780 0.521646 0.853004
C6    C     C_R   0.101477 0.400768 0.478270 0.851459
C7    C     C_R   0.100792 0.599780 0.478354 0.853000
C8    C     C_R   0.898523 0.400768 0.521730 0.851466
C9    C     C_R   0.537453 0.005337 0.961607 -0.225032
C10   C     C_R   0.462549 0.005341 0.038391 -0.225064
C11   C     C_R   0.037450 0.505340 0.961609 -0.225044
C12   C     C_R   0.962546 0.505334 0.038393 -0.224992
C13   C     C_R   0.408389 0.003178 0.866359 0.312129
C14   C     C_R   0.591612 0.003173 0.133641 0.312123
C15   C     C_R   0.908387 0.503168 0.866358 0.312094
C16   C     C_R   0.091611 0.503175 0.133641 0.312119
C17   C     C_R   0.398011 0.008958 0.987734 0.379325
C18   C     C_R   0.601992 0.008946 0.012264 0.379289
C19   C     C_R   0.898005 0.508937 0.987736 0.379226
C20   C     C_R   0.101990 0.508953 0.012265 0.379275
C21   C     C_R   0.544888 0.001623 0.837543 0.420520
C22   C     C_R   0.455113 0.001626 0.162456 0.420511
C23   C     C_R   0.044887 0.501626 0.837544 0.420532
C24   C     C_R   0.955112 0.501622 0.162458 0.420552
C25   C     C_R   0.657805 0.156359 0.465544 -0.113821
C26   C     C_R   0.339045 0.846324 0.534351 -0.125566
C27   C     C_R   0.342194 0.156359 0.534456 -0.113818
C28   C     C_R   0.660958 0.846325 0.465648 -0.125561
C29   C     C_R   0.157806 0.656358 0.465544 -0.113818
C30   C     C_R   0.839046 0.346322 0.534351 -0.125572
C31   C     C_R   0.842194 0.656358 0.534456 -0.113828
C32   C     C_R   0.160954 0.346323 0.465649 -0.125568
C33   C     C_R   0.230040 0.782860 0.654178 0.240913
C34   C     C_R   0.762048 0.224537 0.344091 0.275990
C35   C     C_R   0.769972 0.782870 0.345826 0.240879
C36   C     C_R   0.237945 0.224531 0.655908 0.275995
C37   C     C_R   0.730049 0.282851 0.654181 0.240910
C38   C     C_R   0.262057 0.724529 0.344093 0.275990
C39   C     C_R   0.269957 0.282858 0.345822 0.240944
C40   C     C_R   0.737936 0.724523 0.655904 0.275984
C41   C     C_R   0.289513 0.831813 0.643379 -0.169637
C42   C     C_R   0.704916 0.173211 0.355702 -0.174359
C43   C     C_R   0.710497 0.831821 0.356622 -0.169620
C44   C     C_R   0.295078 0.173207 0.644298 -0.174366
C45   C     C_R   0.789522 0.331803 0.643382 -0.169625
C46   C     C_R   0.204924 0.673205 0.355703 -0.174363
C47   C     C_R   0.210484 0.331810 0.356620 -0.169643
C48   C     C_R   0.795069 0.673199 0.644295 -0.174345
C49   C     C_R   0.329768 0.810840 0.435327 -0.168582
C50   C     C_R   0.665683 0.193088 0.564229 -0.189965
C51   C     C_R   0.670230 0.810838 0.564670 -0.168582
C52   C     C_R   0.334320 0.193091 0.435773 -0.189958
C53   C     C_R   0.829763 0.310845 0.435326 -0.168586
C54   C     C_R   0.165679 0.693092 0.564227 -0.189959
C55   C     C_R   0.170232 0.310841 0.564674 -0.168584
C56   C     C_R   0.834328 0.693098 0.435775 -0.189966
C57   C     C_R   0.271725 0.760352 0.443916 0.057208
C58   C     C_R   0.721896 0.245436 0.554977 0.057402
C59   C     C_R   0.728274 0.760351 0.556082 0.057210
C60   C     C_R   0.278106 0.245438 0.445025 0.057404
C61   C     C_R   0.771722 0.260355 0.443916 0.057202
C62   C     C_R   0.221893 0.745439 0.554975 0.057401
C63   C     C_R   0.228275 0.260352 0.556085 0.057203
C64   C     C_R   0.778113 0.745444 0.445026 0.057408
Cu1   Cu    Cu3+1 0.507800 0.000000 0.383250 1.036056
Cu2   Cu    Cu3+1 0.492200 0.000000 0.616750 1.036051
Cu3   Cu    Cu3+1 0.007800 0.500000 0.383250 1.036053
Cu4   Cu    Cu3+1 0.992200 0.500000 0.616750 1.036058
H1    H     H_    0.628103 0.180030 0.648251 0.207642
H2    H     H_    0.368519 0.822672 0.351712 0.221009
H3    H     H_    0.371904 0.180037 0.351752 0.207635
H4    H     H_    0.631474 0.822665 0.648283 0.221002
H5    H     H_    0.128094 0.680039 0.648248 0.207640
H6    H     H_    0.868508 0.322682 0.351708 0.221017
H7    H     H_    0.871918 0.680049 0.351756 0.207644
H8    H     H_    0.131483 0.322674 0.648290 0.221010
H9    H     H_    0.698333 0.145789 0.278585 0.206599
H10   H     H_    0.295793 0.859457 0.720315 0.229146
H11   H     H_    0.301659 0.145782 0.721413 0.206608
H12   H     H_    0.704220 0.859468 0.279687 0.229153
H13   H     H_    0.198344 0.645779 0.278588 0.206603
H14   H     H_    0.795807 0.359442 0.720320 0.229153
H15   H     H_    0.801644 0.645768 0.721408 0.206597
H16   H     H_    0.204203 0.359453 0.279684 0.229146
N1    N     N_R   0.519530 0.000000 0.207810 -0.259499
N2    N     N_R   0.480470 0.000000 0.792190 -0.259506
N3    N     N_R   0.019530 0.500000 0.207810 -0.259500
N4    N     N_R   0.980470 0.500000 0.792190 -0.259489
O1    O     O_R   0.430030 0.075530 0.417420 -0.563889
O2    O     O_R   0.569970 0.924470 0.582580 -0.551041
O3    O     O_R   0.569970 0.075530 0.582580 -0.563884
O4    O     O_R   0.430030 0.924470 0.417420 -0.551046
O5    O     O_R   0.930030 0.575530 0.417420 -0.563870
O6    O     O_R   0.069970 0.424470 0.582580 -0.551047
O7    O     O_R   0.069970 0.575530 0.582580 -0.563881
O8    O     O_R   0.930030 0.424470 0.417420 -0.551043
O9    O     O_R   0.416860 0.075510 0.614610 -0.565829
O10   O     O_R   0.583140 0.924490 0.385390 -0.556353
O11   O     O_R   0.583140 0.075510 0.385390 -0.565832
O12   O     O_R   0.416860 0.924490 0.614610 -0.556359
O13   O     O_R   0.916860 0.575510 0.614610 -0.565833
O14   O     O_R   0.083140 0.424490 0.385390 -0.556358
O15   O     O_R   0.083140 0.575510 0.385390 -0.565828
O16   O     O_R   0.916860 0.424490 0.614610 -0.556355
Br1   Br    Br    0.683742 0.998795 0.189987 -0.461952
Br2   Br    Br    0.316258 0.998803 0.810017 -0.461964
Br3   Br    Br    0.183742 0.498796 0.189983 -0.461963
Br4   Br    Br    0.816259 0.498777 0.810008 -0.461903
Br5   Br    Br    0.354134 0.994321 0.269452 -0.419319
Br6   Br    Br    0.645866 0.994323 0.730540 -0.419406
Br7   Br    Br    0.854136 0.494332 0.269468 -0.419516
Br8   Br    Br    0.145865 0.494327 0.730543 -0.419394
Br9   Br    Br    0.660188 0.272321 0.805747 -0.507306
Br10  Br    Br    0.324723 0.742563 0.189527 -0.479334
Br11  Br    Br    0.339826 0.272335 0.194262 -0.507364
Br12  Br    Br    0.675262 0.742552 0.810465 -0.479283
Br13  Br    Br    0.160173 0.772336 0.805740 -0.507299
Br14  Br    Br    0.824704 0.242582 0.189523 -0.479326
Br15  Br    Br    0.839852 0.772357 0.194271 -0.507105
Br16  Br    Br    0.175282 0.242568 0.810476 -0.479355
O17   O     O_3   0.322883 0.014050 0.054750 -0.536712
C65   C     C_3   0.299462 0.085912 0.063801 0.110242
H17   H     H_    0.316364 0.114246 0.978606 0.149600
H18   H     H_    0.325971 0.113800 0.126910 0.186816
C66   C     C_3   0.211310 0.088415 0.107221 -0.282202
H19   H     H_    0.185211 0.064485 0.040240 0.259216
H20   H     H_    0.192715 0.056810 0.188541 0.254517
C67   C     C_3   0.181422 0.163938 0.131585 -0.793593
H21   H     H_    0.198768 0.185410 0.208385 0.264516
H22   H     H_    0.117281 0.164029 0.151076 0.269211
H23   H     H_    0.204398 0.198435 0.054927 0.301565
O18   O     O_3   0.677122 0.014004 0.945245 -0.536708
C68   C     C_3   0.700580 0.085857 0.936175 0.110309
H24   H     H_    0.683768 0.114175 0.021398 0.149683
H25   H     H_    0.674014 0.113778 0.873160 0.186723
C69   C     C_3   0.788728 0.088318 0.892572 -0.282120
H26   H     H_    0.814896 0.064307 0.959425 0.259196
H27   H     H_    0.807226 0.056764 0.811170 0.254472
C70   C     C_3   0.818649 0.163838 0.868299 -0.793541
H28   H     H_    0.801189 0.185408 0.791641 0.264555
H29   H     H_    0.882805 0.163878 0.848600 0.269137
H30   H     H_    0.795797 0.198284 0.945090 0.301540
O19   O     O_3   0.822874 0.513959 0.054761 -0.536704
C71   C     C_3   0.799374 0.585799 0.063850 0.110303
H31   H     H_    0.816040 0.614080 0.978591 0.149867
H32   H     H_    0.826038 0.613773 0.126697 0.186595
C72   C     C_3   0.711248 0.588217 0.107754 -0.282193
H33   H     H_    0.684973 0.564071 0.041141 0.259253
H34   H     H_    0.692909 0.556768 0.189278 0.254480
C73   C     C_3   0.681276 0.663730 0.131858 -0.793990
H35   H     H_    0.698944 0.685480 0.208191 0.264704
H36   H     H_    0.617120 0.663711 0.151963 0.269075
H37   H     H_    0.703880 0.698048 0.054865 0.301569
O20   O     O_3   0.177118 0.514024 0.945246 -0.536715
C74   C     C_3   0.200563 0.585880 0.936186 0.110312
H38   H     H_    0.183728 0.614200 0.021408 0.149651
H39   H     H_    0.174007 0.613793 0.873150 0.186737
C75   C     C_3   0.288714 0.588355 0.892625 -0.282099
H40   H     H_    0.314870 0.564366 0.959514 0.259183
H41   H     H_    0.307239 0.556785 0.811239 0.254463
C76   C     C_3   0.318618 0.663879 0.868327 -0.793456
H42   H     H_    0.301188 0.685419 0.791618 0.264522
H43   H     H_    0.382775 0.663935 0.848689 0.269155
H44   H     H_    0.295725 0.698344 0.945086 0.301528

loop_
_geom_bond_atom_site_label_1
_geom_bond_atom_site_label_2
_ccdc_geom_bond_type
C34   Br14  S    
Cu1   O4    S    
C6    C32   S    
C33   Br13  S    
C7    C29   S    
C74   H39   S    
C14   C18   A    
C30   C45   A    
C35   Br15  S    
C72   H33   S    
C8    O8    A    
Cu3   O8    S    
C67   H21   S    
C21   Br6   S    
Cu3   O15   S    
C57   C62   A    
Cu2   O2    S    
C40   Br12  S    
C10   C22   A    
Cu1   O1    S    
C23   Br8   S    
C59   C64   A    
C20   O20   S    
C60   C63   A    
Cu2   O9    S    
C72   H34   S    
C50   H1    S    
Cu1   O10   S    
C69   C70   S    
C38   Br10  S    
C28   C51   A    
C37   Br9   S    
C29   C54   A    
C26   C41   A    
C10   C17   A    
O19   C71   S    
C46   H13   S    
C49   C57   A    
C3    O3    A    
C22   N1    A    
Cu2   O12   S    
C11   C23   A    
C2    O2    A    
C25   C50   A    
C52   C60   A    
C16   Br3   S    
C18   O18   S    
C27   C44   A    
C14   Br1   S    
C45   H14   S    
O18   C68   S    
C6    O6    A    
C73   H37   S    
C34   C42   A    
C13   N2    A    
C66   C67   S    
C1    O1    A    
C56   C64   A    
C35   C64   A    
C31   C56   A    
C36   C63   A    
C35   C43   A    
C9    C10   A    
C32   C55   A    
C37   C58   A    
C75   C76   S    
C1    C27   S    
C58   C61   A    
C40   C59   A    
C7    O15   A    
C74   C75   S    
C75   H41   S    
C24   Br7   S    
C53   C61   A    
C71   C72   S    
C76   H43   S    
C76   H42   S    
C30   C53   A    
C5    O13   A    
C11   C20   A    
Cu4   O7    S    
Cu3   Cu4   S    
C50   C58   A    
C11   C12   A    
C3    C25   S    
C72   C73   S    
Cu4   O13   S    
Cu1   O11   S    
C71   H32   S    
C26   C49   A    
C1    O9    A    
C41   H10   S    
C33   C62   A    
C54   C62   A    
C43   H12   S    
C34   C61   A    
Cu4   O6    S    
C55   C63   A    
C15   Br4   S    
C15   C19   A    
C16   N3    A    
C38   C57   A    
C54   H5    S    
C5    O5    A    
C16   C20   A    
C22   Br5   S    
O20   C74   S    
C71   H31   S    
C47   H16   S    
C8    O16   A    
O17   C65   S    
C68   C69   S    
C55   H8    S    
C17   O17   S    
C49   H2    S    
C39   Br11  S    
C23   N4    A    
C4    O12   A    
C75   H40   S    
C66   H19   S    
Cu4   N4    S    
C32   C47   A    
C73   H36   S    
C36   C44   A    
C51   C59   A    
C51   H4    S    
C65   H18   S    
C67   H23   S    
C13   Br2   S    
C76   H44   S    
C27   C52   A    
C69   H27   S    
C39   C47   A    
C40   C48   A    
C21   N2    A    
C19   O19   S    
C44   H11   S    
Cu4   O16   S    
C14   N1    A    
C69   H26   S    
C67   H22   S    
C25   C42   A    
Cu2   N2    S    
C4    C26   S    
C70   H28   S    
Cu1   N1    S    
Cu2   O3    S    
C7    O7    A    
C12   C24   A    
C28   C43   A    
Cu3   N3    S    
C48   H15   S    
C13   C17   A    
C29   C46   A    
C31   C48   A    
C8    C30   S    
C65   C66   S    
C33   C41   A    
C52   H3    S    
C70   H29   S    
C9    C21   A    
C68   H24   S    
C39   C60   A    
C12   C19   A    
Cu3   O5    S    
C70   H30   S    
C6    O14   A    
C36   Br16  S    
C24   N3    A    
C38   C46   A    
C56   H7    S    
C3    O11   A    
C9    C18   A    
C2    O10   A    
C42   H9    S    
Cu1   Cu2   S    
C74   H38   S    
C66   H20   S    
C68   H25   S    
C73   H35   S    
C2    C28   S    
C5    C31   S    
C65   H17   S    
C37   C45   A    
Cu3   O14   S    
C15   N4    A    
C4    O4    A    
C53   H6    S    
