data_mof_unit_41620.cif
_audit_creation_date              2012-12-10T20:27:10-0500
_audit_creation_method            fapswitch 2.2
_symmetry_space_group_name_H-M    P1
_symmetry_Int_Tables_number       1
_space_group_crystal_system       triclinic
_cell_length_a                    10.818104
_cell_length_b                    10.644111
_cell_length_c                    9.871109
_cell_angle_alpha                 89.872116
_cell_angle_beta                  104.059638
_cell_angle_gamma                 90.05407
_cell_volume                      1102.59631314

loop_
_atom_site_label
_atom_site_type_symbol
_atom_type_description
_atom_site_fract_x
_atom_site_fract_y
_atom_site_fract_z
_atom_type_partial_charge
C1    C     C_R   0.504377 0.260363 0.501364 0.931318
C2    C     C_R   0.517657 0.128667 0.507585 -0.215022
C3    C     C_R   0.608562 0.066057 0.451055 0.115416
C4    C     C_R   0.608169 0.934416 0.450838 0.223192
C5    C     C_R   0.517165 0.871424 0.506964 -0.208985
C6    C     C_R   0.445529 0.935982 0.582849 0.096936
C7    C     C_3   0.306015 0.928228 0.574860 -0.442113
C8    C     C_3   0.305970 0.070700 0.574835 -0.456713
C9    C     C_R   0.400531 0.448685 0.044912 0.209653
C10   C     C_R   0.592477 0.560415 0.096382 -0.084160
C11   C     C_R   0.592451 0.560484 0.952465 -0.117049
C12   C     C_R   0.259125 0.503266 0.441736 0.929482
C13   C     C_R   0.400498 0.448767 0.902443 0.215611
C14   C     C_3   0.356972 0.315595 0.885447 -0.511626
C15   C     C_3   0.357151 0.315433 0.039365 -0.488478
C16   C     C_R   0.504154 0.739656 0.501045 0.936685
C17   C     C_R   0.740888 0.503367 0.558262 0.976602
C18   C     C_2   0.122729 0.516132 0.408691 -0.357421
C19   C     C_2   0.067861 0.539312 0.512925 -0.152254
C20   C     C_2   0.877304 0.516256 0.591272 -0.343917
C21   C     C_2   0.932220 0.539124 0.486897 -0.081349
C22   C     C_R   0.445661 0.063543 0.583107 0.096148
H1    H     H_    0.877414 0.549306 0.379314 0.195254
H2    H     H_    0.285738 0.111275 0.670742 0.207666
H3    H     H_    0.668518 0.607158 0.170571 0.176720
H4    H     H_    0.668373 0.607358 0.918318 0.156515
H5    H     H_    0.259935 0.307085 0.815388 0.199819
H6    H     H_    0.429675 0.251878 0.860336 0.230337
H7    H     H_    0.260260 0.306567 0.058070 0.202022
H8    H     H_    0.429983 0.251665 0.103253 0.238676
H9    H     H_    0.122704 0.549898 0.620419 0.183997
H10   H     H_    0.932556 0.505760 0.698530 0.143619
H11   H     H_    0.067442 0.505274 0.301537 0.156756
H12   H     H_    0.250682 0.886687 0.475152 0.204479
H13   H     H_    0.286435 0.886736 0.670996 0.212808
H14   H     H_    0.250707 0.112503 0.475071 0.205050
N1    N     N_R   0.499160 0.499140 0.142600 -0.106883
N2    N     N_R   0.499160 0.499180 0.856960 -0.110192
O1    O     O_R   0.500020 0.316790 0.614700 -0.614976
O2    O     O_R   0.500000 0.316760 0.385350 -0.603561
O3    O     O_R   0.317820 0.500020 0.571850 -0.620178
O4    O     O_R   0.317800 0.499980 0.342510 -0.618976
O5    O     O_R   0.500000 0.683240 0.614650 -0.619795
O6    O     O_R   0.499980 0.683210 0.385300 -0.588704
O7    O     O_R   0.682200 0.500020 0.657490 -0.623881
O8    O     O_R   0.682180 0.499980 0.428150 -0.601961
Zn1   Zn    Zn3+2 0.500010 0.500020 0.653140 0.954416
Zn2   Zn    Zn3+2 0.499990 0.499980 0.346860 0.980407
I1    I     I_    0.744942 0.167551 0.368298 -0.300175
Br1   Br    Br    0.730176 0.842359 0.375947 -0.511216

loop_
_geom_bond_atom_site_label_1
_geom_bond_atom_site_label_2
_ccdc_geom_bond_type
C2    C22   A    
C11   N2    A    
C8    C22   S    
C12   O3    A    
C8    H2    S    
C14   H5    S    
C16   O6    A    
C11   H4    S    
C20   H10   S    
C19   H9    S    
C9    N1    A    
C2    C3    A    
O3    Zn1   S    
C7    C8    S    
O4    Zn2   S    
C13   C14   S    
C20   C21   D    
N1    Zn2   S    
C16   O5    A    
N2    Zn1   S    
C6    C7    S    
C7    H13   S    
C10   N1    A    
C10   H3    S    
C19   C21   S    
C17   O7    A    
C15   H7    S    
O7    Zn1   S    
C21   H1    S    
C3    I1    S    
C5    C6    A    
C18   H11   S    
O8    Zn2   S    
C10   C11   A    
C1    O1    A    
C3    C4    A    
C6    C22   A    
C17   C20   S    
C17   O8    A    
C15   H8    S    
O1    Zn1   S    
C1    C2    S    
C8    H14   S    
C7    H12   S    
C12   C18   S    
O2    Zn2   S    
C9    C13   A    
C14   C15   S    
C18   C19   D    
C5    C16   S    
C12   O4    A    
C1    O2    A    
C14   H6    S    
C9    C15   S    
O5    Zn1   S    
C13   N2    A    
O6    Zn2   S    
C4    Br1   S    
C4    C5    A    
