data_mof_unit_56487.cif
_audit_creation_date              2012-12-10T18:49:18-0500
_audit_creation_method            fapswitch 2.2
_symmetry_space_group_name_H-M    P1
_symmetry_Int_Tables_number       1
_space_group_crystal_system       triclinic
_cell_length_a                    10.031489
_cell_length_b                    10.676474
_cell_length_c                    13.717914
_cell_angle_alpha                 90.595348
_cell_angle_beta                  85.325014
_cell_angle_gamma                 91.232348
_cell_volume                      1463.91972867

loop_
_atom_site_label
_atom_site_type_symbol
_atom_type_description
_atom_site_fract_x
_atom_site_fract_y
_atom_site_fract_z
_atom_type_partial_charge
C1    C     C_R   0.501356 0.739049 0.499827 0.950066
C2    C     C_R   0.921295 0.536554 0.581111 -0.028267
C3    C     C_1   0.534910 0.489263 0.212915 -0.148618
C4    C     C_1   0.466831 0.509024 0.786293 -0.142403
C5    C     C_2   0.557368 0.477654 0.022156 0.156905
C6    C     C_2   0.458136 0.528035 0.975308 0.158446
C7    C     C_1   0.460287 0.517523 0.872583 -0.023715
C8    C     C_1   0.546870 0.482951 0.126191 -0.007445
C9    C     C_R   0.552711 0.937244 0.577511 0.141929
C10   C     C_R   0.435861 0.061728 0.425998 0.099144
C11   C     C_R   0.553103 0.067439 0.577283 -0.089293
C12   C     C_R   0.498402 0.260910 0.499707 0.892939
C13   C     C_R   0.448365 0.932450 0.421144 -0.096062
C14   C     C_2   0.874936 0.404770 0.334878 0.979844
C15   C     C_2   0.125898 0.601087 0.662269 0.970426
C16   C     C_2   0.152523 0.477528 0.321682 1.001928
C17   C     C_2   0.844546 0.571837 0.672320 0.990495
C18   C     C_3   0.222913 0.530460 0.030169 -0.693918
C19   C     C_3   0.785698 0.394034 0.020380 -0.605564
C20   C     C_3   0.489665 0.844253 0.734457 -0.735863
C21   C     C_3   0.226725 0.128115 0.368706 -0.511716
C22   C     C_2   0.604974 0.139493 0.659777 0.926204
C23   C     C_R   0.494432 0.128026 0.501490 -0.148452
C24   C     C_2   0.416430 0.862335 0.331403 0.973458
C25   C     C_R   0.503726 0.871929 0.498280 -0.139184
C26   C     C_R   0.478413 0.501147 0.684394 0.946966
C27   C     C_R   0.521709 0.497237 0.315352 0.918876
C28   C     C_R   0.936337 0.460561 0.419726 -0.029419
C29   C     C_R   0.063905 0.539078 0.580394 -0.019974
C30   C     C_R   0.078753 0.469552 0.417653 -0.078944
H1    H     H_    0.768750 0.260730 0.281735 0.327075
H2    H     H_    0.859245 0.341006 0.972110 0.248879
H3    H     H_    0.763073 0.339368 0.088386 0.245740
H4    H     H_    0.831026 0.486576 0.037974 0.254733
H5    H     H_    0.679971 0.907775 0.686651 0.287199
H6    H     H_    0.530091 0.790383 0.793797 0.229431
H7    H     H_    0.408845 0.787138 0.704344 0.273152
H8    H     H_    0.447896 0.932760 0.766019 0.261453
H9    H     H_    0.414718 0.207758 0.327777 0.225423
H10   H     H_    0.182799 0.139926 0.297823 0.263928
H11   H     H_    0.196931 0.207480 0.417957 0.231349
H12   H     H_    0.159071 0.599925 0.804884 0.338737
H13   H     H_    0.184396 0.040188 0.402387 0.251416
H14   H     H_    0.563811 0.252472 0.776253 0.347196
H15   H     H_    0.483082 0.748910 0.220794 0.326930
H16   H     H_    0.244540 0.592522 0.221446 0.335605
H17   H     H_    0.757389 0.708195 0.754641 0.333250
H18   H     H_    0.372485 0.643427 0.086849 0.218535
H19   H     H_    0.143974 0.593681 0.061893 0.258144
H20   H     H_    0.226042 0.446676 0.077187 0.266544
H21   H     H_    0.196381 0.500304 0.956425 0.260099
H22   H     H_    0.683538 0.427801 0.897303 0.269099
N1    N     N_R   0.142790 0.500030 0.500020 -0.156907
N2    N     N_R   0.857210 0.499970 0.499980 -0.154633
N3    N     N_2   0.351112 0.595932 0.024178 -0.313076
N4    N     N_2   0.665168 0.410865 0.970950 -0.318270
N5    N     N_2   0.595167 0.870896 0.658800 -0.285229
N6    N     N_2   0.371163 0.124156 0.351926 -0.302531
O1    O     O_R   0.385380 0.683250 0.500010 -0.590115
O2    O     O_R   0.806811 0.289545 0.344632 -0.773415
O3    O     O_2   0.182393 0.702781 0.649636 -0.615119
O4    O     O_R   0.114914 0.546381 0.754725 -0.781669
O5    O     O_2   0.177753 0.383395 0.272855 -0.677754
O6    O     O_R   0.188291 0.596340 0.285607 -0.735603
O7    O     O_2   0.826425 0.495325 0.738000 -0.613564
O8    O     O_R   0.801649 0.694336 0.686401 -0.790622
O9    O     O_2   0.724079 0.138127 0.672758 -0.586526
O10   O     O_R   0.517189 0.209355 0.721870 -0.809554
O11   O     O_2   0.307318 0.871626 0.298794 -0.576699
O12   O     O_R   0.614620 0.316750 0.499990 -0.578195
O13   O     O_R   0.513666 0.787127 0.283289 -0.815174
O14   O     O_R   0.614710 0.683220 0.500000 -0.575918
O15   O     O_R   0.385290 0.316780 0.500000 -0.622907
O16   O     O_R   0.368830 0.499990 0.640350 -0.604522
O17   O     O_R   0.631170 0.500010 0.359650 -0.596115
O18   O     O_R   0.598160 0.499960 0.640350 -0.607694
O19   O     O_R   0.401840 0.500040 0.359650 -0.618053
O20   O     O_2   0.885845 0.458049 0.256028 -0.634954
Zn1   Zn    Zn3+2 0.346870 0.500020 0.500000 1.021911
Zn2   Zn    Zn3+2 0.653130 0.499980 0.500000 1.050200

loop_
_geom_bond_atom_site_label_1
_geom_bond_atom_site_label_2
_ccdc_geom_bond_type
C19   N4    S    
H18   N3    S    
H15   O13   S    
C5    N4    S    
C6    N3    S    
C9    C25   A    
C12   C23   S    
C17   O8    S    
C2    C29   A    
N1    Zn1   S    
C1    O1    A    
C5    C6    D    
C16   C30   S    
C11   C23   A    
C21   H13   S    
C18   H21   S    
C26   O18   A    
C16   O5    D    
O17   Zn2   S    
H12   O4    S    
H17   O8    S    
C12   O15   A    
C2    C17   S    
C1    C25   S    
C13   C25   A    
C4    C7    T    
C27   O17   A    
C19   H2    S    
C24   O11   D    
C15   C29   S    
N2    Zn2   S    
O19   Zn1   S    
C15   O3    D    
C30   N1    A    
C1    O14   A    
O12   Zn2   S    
C3    C8    T    
C2    N2    A    
O1    Zn1   S    
C28   N2    A    
H9    N6    S    
C10   C13   A    
C13   C24   S    
H16   O6    S    
H1    O2    S    
C20   H8    S    
O15   Zn1   S    
C9    C11   A    
C22   O10   S    
C18   N3    S    
C21   H11   S    
O16   Zn1   S    
C19   H3    S    
H14   O10   S    
C18   H20   S    
C12   O12   A    
C10   N6    S    
O18   Zn2   S    
C27   O19   A    
C19   H4    S    
C5    C8    S    
C4    C26   S    
C6    C7    S    
C10   C23   A    
C14   O2    S    
C11   C22   S    
C17   O7    D    
H5    N5    S    
C28   C30   A    
C21   N6    S    
O14   Zn2   S    
C20   H7    S    
C21   H10   S    
C29   N1    A    
C3    C27   S    
C26   O16   A    
C15   O4    S    
C9    N5    S    
C14   O20   D    
C22   O9    D    
C20   H6    S    
C18   H19   S    
C16   O6    S    
C14   C28   S    
C20   N5    S    
H22   N4    S    
C24   O13   S    
