data_mof_unit_41056.cif
_audit_creation_date              2012-12-10T17:28:33-0500
_audit_creation_method            fapswitch 2.2
_symmetry_space_group_name_H-M    P1
_symmetry_Int_Tables_number       1
_space_group_crystal_system       triclinic
_cell_length_a                    10.662548
_cell_length_b                    12.019466
_cell_length_c                    12.88011
_cell_angle_alpha                 93.866113
_cell_angle_beta                  91.257542
_cell_angle_gamma                 85.644161
_cell_volume                      1641.9425197

loop_
_atom_site_label
_atom_site_type_symbol
_atom_type_description
_atom_site_fract_x
_atom_site_fract_y
_atom_site_fract_z
_atom_type_partial_charge
C1    C     C_R   0.494381 0.522444 0.700070 0.942150
C2    C     C_R   0.504362 0.477619 0.299987 0.961760
C3    C     C_R   0.502590 0.463475 0.188892 -0.169134
C4    C     C_R   0.496819 0.536496 0.811321 -0.153600
C5    C     C_R   0.597308 0.616180 0.965127 0.506898
C6    C     C_R   0.402202 0.384070 0.035113 0.505693
C7    C     C_R   0.571524 0.615435 0.858890 -0.398266
C8    C     C_R   0.427163 0.385165 0.141371 -0.400210
C9    C     C_R   0.441017 0.459113 0.867815 0.428257
C10   C     C_R   0.560092 0.539972 0.132488 0.414611
C11   C     C_R   0.460298 0.460225 0.975598 -0.106977
C12   C     C_R   0.540186 0.539467 0.024700 -0.105332
C13   C     C_R   0.373659 0.954624 0.411345 -0.265990
C14   C     C_R   0.628159 0.045381 0.591077 -0.319134
C15   C     C_R   0.388326 0.838989 0.416552 -0.051245
C16   C     C_R   0.614508 0.161273 0.581665 -0.036983
C17   C     C_R   0.553772 0.855814 0.542478 0.582210
C18   C     C_R   0.442449 0.140696 0.463556 0.526910
C19   C     C_R   0.545751 0.974578 0.536641 -0.101952
C20   C     C_R   0.452824 0.023633 0.470941 0.038421
C21   C     C_R   0.741027 0.500194 0.502220 0.887440
C22   C     C_R   0.262110 0.503856 0.516974 0.874902
C23   C     C_R   0.881744 0.369336 0.663088 0.450238
C24   C     C_R   0.096385 0.721522 0.516687 0.499751
C25   C     C_R   0.950886 0.281855 0.709073 -0.152949
C26   C     C_R   0.035948 0.796488 0.450212 -0.164431
C27   C     C_R   0.080270 0.267186 0.697474 -0.190714
C28   C     C_R   0.932556 0.765438 0.390322 -0.224506
C29   C     C_R   0.141848 0.343015 0.643815 -0.084717
C30   C     C_R   0.881060 0.664689 0.405642 -0.087838
C31   C     C_R   0.073048 0.428652 0.591743 0.042996
C32   C     C_R   0.935742 0.592382 0.479554 0.037412
C33   C     C_R   0.940736 0.434013 0.591763 -0.040674
C34   C     C_R   0.055501 0.611097 0.517653 -0.049693
C35   C     C_R   0.130657 0.515428 0.546760 -0.208038
C36   C     C_R   0.874613 0.505153 0.521057 -0.186813
H1    H     H_    0.888194 0.821935 0.336183 0.176285
H2    H     H_    0.134104 0.202188 0.737044 0.182015
H3    H     H_    0.301452 0.989195 0.359785 0.206097
H4    H     H_    0.704861 0.013165 0.639352 0.166158
H5    H     H_    0.905322 0.230096 0.760251 0.160798
H6    H     H_    0.068919 0.878990 0.445474 0.163161
H7    H     H_    0.242951 0.335900 0.648788 0.213748
H8    H     H_    0.798587 0.644942 0.359823 0.200135
H9    H     H_    0.380947 0.329462 0.188419 0.178891
H10   H     H_    0.616750 0.671790 0.811843 0.184835
H11   H     H_    0.678163 0.214149 0.623959 0.197510
H12   H     H_    0.327768 0.786147 0.370229 0.155214
N1    N     N_R   0.523130 0.207800 0.519340 -0.158840
N2    N     N_R   0.476870 0.792200 0.480660 -0.098972
O1    O     O_R   0.506170 0.421700 0.658830 -0.575444
O2    O     O_R   0.493830 0.578300 0.341170 -0.609193
O3    O     O_R   0.491330 0.609310 0.646410 -0.597324
O4    O     O_R   0.508670 0.390690 0.353590 -0.655106
O5    O     O_R   0.690650 0.406190 0.506220 -0.593722
O6    O     O_R   0.309350 0.593810 0.493780 -0.603165
O7    O     O_R   0.675800 0.593810 0.493800 -0.577553
O8    O     O_R   0.324200 0.406190 0.506200 -0.639900
Zn1   Zn    Zn3+2 0.509910 0.374730 0.508290 0.969214
Zn2   Zn    Zn3+2 0.490090 0.625270 0.491710 1.012861
O9    O     O_3   0.763966 0.399008 0.701683 -0.770150
H13   H     H_    0.750566 0.481507 0.701785 0.320500
O10   O     O_3   0.186779 0.761398 0.584885 -0.754486
H14   H     H_    0.201151 0.708836 0.640838 0.335852
O11   O     O_3   0.633884 0.615230 0.185102 -0.720664
H15   H     H_    0.589074 0.690015 0.179016 0.361448
O12   O     O_3   0.369833 0.381916 0.815276 -0.736327
H16   H     H_    0.415374 0.307799 0.823443 0.365270
O13   O     O_3   0.681075 0.688245 0.010348 -0.733491
H17   H     H_    0.711489 0.735253 0.957136 0.332008
O14   O     O_3   0.317577 0.312777 0.989889 -0.734759
H18   H     H_    0.286581 0.266034 0.043059 0.336048
O15   O     O_3   0.349855 0.184564 0.398710 -0.799272
H19   H     H_    0.370431 0.259482 0.382923 0.381367
O16   O     O_3   0.636742 0.800903 0.608722 -0.747892
H20   H     H_    0.651837 0.850950 0.671062 0.306394

loop_
_geom_bond_atom_site_label_1
_geom_bond_atom_site_label_2
_ccdc_geom_bond_type
O5    Zn1   S    
C27   C29   A    
O15   H19   S    
C19   C20   A    
C21   C36   S    
C22   C35   S    
C32   C36   A    
C24   C26   A    
C27   H2    S    
C33   C36   A    
C34   C35   A    
C15   N2    A    
C1    O3    A    
C8    H9    S    
C5    O13   S    
O2    Zn2   S    
C23   C33   A    
C31   C33   A    
C14   C16   A    
C29   H7    S    
C30   H8    S    
O13   H17   S    
C15   H12   S    
C4    C7    A    
C10   C12   A    
C16   H11   S    
O3    Zn2   S    
O4    Zn1   S    
C6    O14   S    
O12   H16   S    
C7    H10   S    
C16   N1    A    
C5    C12   A    
C3    C8    A    
C2    O4    A    
C25   H5    S    
C6    C11   A    
C5    C7    A    
O7    Zn2   S    
C22   O6    A    
O8    Zn1   S    
C24   C34   A    
O6    Zn2   S    
C32   C34   A    
O16   H20   S    
C9    O12   S    
C21   O7    A    
C9    C11   A    
C1    O1    A    
C2    O2    A    
C18   O15   S    
C13   C15   A    
C31   C35   A    
C25   C27   A    
C26   H6    S    
C21   O5    A    
C10   O11   S    
C13   C20   A    
C14   C19   A    
C17   N2    A    
C22   O8    A    
C6    C8    A    
C11   C12   A    
C24   O10   S    
C26   C28   A    
N1    Zn1   S    
C1    C4    S    
N2    Zn2   S    
C28   C30   A    
C2    C3    S    
O14   H18   S    
C29   C31   A    
C3    C10   A    
C30   C32   A    
C28   H1    S    
C17   C19   A    
C18   C20   A    
C23   C25   A    
O9    H13   S    
C13   H3    S    
C14   H4    S    
O10   H14   S    
C23   O9    S    
O1    Zn1   S    
O11   H15   S    
C17   O16   S    
C4    C9    A    
C18   N1    A    
