data_mof_unit_9297.cif
_audit_creation_date              2013-03-05T15:43:03-0500
_audit_creation_method            fapswitch 2.2
_symmetry_space_group_name_H-M    P1
_symmetry_Int_Tables_number       1
_space_group_crystal_system       triclinic
_cell_length_a                    9.725952
_cell_length_b                    10.913491
_cell_length_c                    15.503917
_cell_angle_alpha                 89.803635
_cell_angle_beta                  73.310006
_cell_angle_gamma                 91.469688
_cell_volume                      1575.70367966

loop_
_atom_site_label
_atom_site_type_symbol
_atom_site_description
_atom_site_fract_x
_atom_site_fract_y
_atom_site_fract_z
_atom_type_partial_charge
O1    O     O_R   0.117050 0.321960 0.499980 -0.613310
O2    O     O_R   0.882890 0.321920 0.500020 -0.531443
C1    C     C_R   0.996488 0.265406 0.504851 0.857556
O3    O     O_R   0.052910 0.500040 0.629810 -0.523626
O4    O     O_R   0.818750 0.499990 0.629840 -0.548182
C2    C     C_R   0.916835 0.505621 0.671843 0.853662
Cu1   Cu    Cu3+1 0.138640 0.500020 0.499980 1.059781
Cu2   Cu    Cu3+1 0.861360 0.499980 0.500020 0.997211
O5    O     O_R   0.117110 0.678080 0.499980 -0.581125
O6    O     O_R   0.882950 0.678040 0.500020 -0.596068
O7    O     O_R   0.181250 0.500010 0.370160 -0.557756
O8    O     O_R   0.947090 0.499960 0.370190 -0.595271
C3    C     C_R   0.002238 0.734686 0.497299 0.797331
C4    C     C_R   0.083511 0.501103 0.327458 0.852288
C5    C     C_R   0.869522 0.537260 0.767649 -0.241719
C6    C     C_R   0.127554 0.497239 0.227869 -0.137569
C7    C     C_R   0.861648 0.692557 0.879717 -0.248010
C8    C     C_R   0.936473 0.635420 0.800546 0.278856
C9    C     C_R   0.734525 0.490188 0.818962 0.338572
C10   C     C_R   0.651758 0.556409 0.893817 0.020842
C11   C     C_R   0.720190 0.656422 0.924827 0.022980
C12   C     C_R   0.504613 0.526943 0.939841 0.016702
C13   C     C_R   0.440754 0.579960 0.024839 0.061701
C14   C     C_R   0.507438 0.686144 0.047716 -0.075126
C15   C     C_R   0.645246 0.722885 0.999160 -0.163269
C16   C     C_R   0.415805 0.454581 0.901505 -0.190363
C17   C     C_R   0.276062 0.419198 0.950311 0.323704
C18   C     C_R   0.222571 0.453550 0.041286 -0.015182
C19   C     C_R   0.308054 0.529932 0.081006 -0.064566
C20   C     C_R   0.084260 0.415128 0.092966 -0.106348
C21   C     C_R   0.037581 0.436973 0.184815 -0.231310
C22   C     C_R   0.260903 0.547546 0.176093 0.326560
H1    H     H_    0.693515 0.803861 0.020153 0.159329
H2    H     H_    0.933026 0.400769 0.223141 0.184555
H3    H     H_    0.912701 0.768955 0.904291 0.192757
H4    H     H_    0.451858 0.746320 0.100325 0.204669
H5    H     H_    0.449673 0.429176 0.831662 0.239662
H6    H     H_    0.011610 0.365478 0.063527 0.196390
C23   C     C_2   0.892696 0.927972 0.537777 -0.413193
C24   C     C_2   0.004745 0.866787 0.486054 0.169520
H7    H     H_    0.810362 0.879270 0.590029 0.154498
C25   C     C_2   0.875365 0.060782 0.526569 0.501946
C26   C     C_2   0.991987 0.133519 0.518032 -0.289441
H8    H     H_    0.091688 0.093967 0.521814 0.143519
C27   C     C_2   0.407894 0.407065 0.527101 0.128207
N1    N     N_2   0.346430 0.498660 0.500980 -0.011200
H9    H     H_    0.350509 0.319672 0.541332 0.091258
C28   C     C_2   0.555352 0.418069 0.542732 0.023954
N2    N     N_2   0.652550 0.498630 0.501000 -0.265131
H10   H     H_    0.581134 0.353588 0.588798 0.175045
H11   H     H_    0.636201 0.536214 0.444447 0.239510
N3    N     N_R   0.103636 0.922154 0.407283 0.120339
O9    O     O_R   0.240740 0.906249 0.389963 -0.373969
O10   O     O_R   0.055730 0.980139 0.348771 -0.339017
O11   O     O_3   0.742641 0.111606 0.532604 -0.574192
C29   C     C_3   0.650702 0.028297 0.504584 0.084679
H12   H     H_    0.612117 0.953396 0.555246 0.162927
H13   H     H_    0.705896 0.989247 0.437611 0.177138
C30   C     C_3   0.519714 0.094628 0.496253 -0.764981
H14   H     H_    0.553240 0.171212 0.446690 0.245684
H15   H     H_    0.447868 0.030019 0.473205 0.236147
H16   H     H_    0.459863 0.131002 0.562859 0.241042
O12   O     O_3   0.403252 0.607856 0.517969 -0.494771
C31   C     C_3   0.404824 0.694279 0.449775 0.276608
H17   H     H_    0.343970 0.773747 0.483431 0.201809
H18   H     H_    0.358226 0.658054 0.397613 0.238875
C32   C     C_3   0.555835 0.744807 0.403414 -0.863772
H19   H     H_    0.614175 0.681443 0.350426 0.258412
H20   H     H_    0.549010 0.833453 0.369673 0.250303
H21   H     H_    0.616508 0.760487 0.453284 0.247191
N4    N     N_R   0.349861 0.610159 0.221824 0.078824
O13   O     O_R   0.469764 0.563377 0.225604 -0.385179
O14   O     O_R   0.310939 0.715323 0.258848 -0.365012
N5    N     N_R   0.193692 0.342080 0.907466 0.105789
O15   O     O_R   0.146316 0.234860 0.941892 -0.361381
O16   O     O_R   0.191117 0.367533 0.825907 -0.342316
N6    N     N_R   0.076121 0.683254 0.751911 0.138091
O17   O     O_R   0.097418 0.800949 0.739119 -0.364939
O18   O     O_R   0.186541 0.613122 0.736414 -0.274413
O19   O     O_3   0.683732 0.381441 0.792396 -0.595097
C33   C     C_3   0.742376 0.282925 0.827826 0.058046
H22   H     H_    0.707168 0.283979 0.902860 0.167049
H23   H     H_    0.861979 0.286342 0.803309 0.175538
C34   C     C_3   0.689698 0.163046 0.797002 -0.713510
H24   H     H_    0.724695 0.159034 0.722299 0.258883
H25   H     H_    0.734767 0.084489 0.824515 0.211172
H26   H     H_    0.570606 0.155971 0.821238 0.264643

loop_
_geom_bond_atom_site_label_1
_geom_bond_atom_site_label_2
_geom_bond_distance
_ccdc_geom_bond_type
C5    C8    1.410844 A    
O11   C29   1.413883 S    
C9    C10   1.419908 A    
C34   H26   1.110852 S    
C33   H22   1.114541 S    
Cu1   Cu2   2.696623 S    
C23   H7    1.087487 S    
C27   N1    1.299056 D    
C6    C21   1.397458 A    
C5    C9    1.408314 A    
C1    C26   1.450867 S    
C16   C17   1.396171 A    
C14   H4    1.075827 S    
N5    O16   1.301096 A    
C13   C19   1.427296 A    
C18   C19   1.423871 A    
C34   H25   1.110542 S    
C19   C22   1.427831 A    
C20   C21   1.388274 A    
O7    C4    1.305412 A    
C29   H12   1.112000 S    
C20   H6    1.080973 S    
C27   H9    1.081829 S    
O5    C3    1.301346 A    
C3    C24   1.450339 S    
C2    C5    1.468458 S    
N2    H11   1.021402 S    
C13   C14   1.409157 A    
C23   C25   1.478878 S    
C17   N5    1.437452 S    
N6    O17   1.301197 A    
C28   H10   1.084724 S    
C30   H14   1.110435 S    
O3    Cu1   1.944963 S    
C33   H23   1.114783 S    
N3    O10   1.301715 A    
C22   N4    1.429524 S    
N6    O18   1.300807 A    
C30   H15   1.110416 S    
N5    O15   1.301246 A    
C32   H19   1.109656 S    
C31   C32   1.525531 S    
C14   C15   1.383748 A    
O3    C2    1.299601 A    
C23   C24   1.347441 D    
N4    O14   1.300778 A    
C24   N3    1.439480 S    
C7    C11   1.398256 A    
O1    C1    1.293545 A    
C31   H18   1.104185 S    
Cu1   O7    1.934859 S    
C26   H8    1.088120 S    
Cu1   N1    2.025897 S    
C25   O11   1.396590 S    
Cu2   O8    1.944966 S    
C7    C8    1.393028 A    
C21   H2    1.083501 S    
C34   H24   1.110784 S    
C28   N2    1.299008 D    
O8    C4    1.301434 A    
C4    C6    1.480121 S    
C25   C26   1.342040 D    
C33   C34   1.520872 S    
N3    O9    1.298805 A    
C27   C28   1.523489 S    
Cu1   O5    1.959837 S    
C11   C15   1.391366 A    
C30   H16   1.110047 S    
O1    Cu1   1.949207 S    
O2    Cu2   1.959838 S    
C10   C12   1.431415 A    
O19   C33   1.410802 S    
O6    C3    1.290313 A    
O4    Cu2   1.934859 S    
C16   H5    1.076935 S    
C6    C22   1.410799 A    
C29   C30   1.518197 S    
N1    O12   1.359023 S    
C32   H21   1.110464 S    
C31   H17   1.107598 S    
C18   C20   1.406090 A    
O2    C1    1.299568 A    
N4    O13   1.301410 A    
O4    C2    1.300770 A    
C8    N6    1.434750 S    
C29   H13   1.114693 S    
C9    O19   1.382878 S    
O12   C31   1.410950 S    
C10   C11   1.419727 A    
Cu2   O6    1.949205 S    
C12   C16   1.409286 A    
C17   C18   1.411650 A    
C12   C13   1.417980 A    
C7    H3    1.084651 S    
C32   H20   1.110741 S    
Cu2   N2    2.026239 S    
C15   H1    1.084330 S    
