data_mof_unit_34934.cif
_audit_creation_date              2012-12-10T16:59:53-0500
_audit_creation_method            fapswitch 2.2
_symmetry_space_group_name_H-M    P1
_symmetry_Int_Tables_number       1
_space_group_crystal_system       triclinic
_cell_length_a                    15.101242
_cell_length_b                    15.230783
_cell_length_c                    10.105853
_cell_angle_alpha                 91.020402
_cell_angle_beta                  90.995599
_cell_angle_gamma                 90.749856
_cell_volume                      2323.45587928

loop_
_atom_site_label
_atom_site_type_symbol
_atom_type_description
_atom_site_fract_x
_atom_site_fract_y
_atom_site_fract_z
_atom_type_partial_charge
C1    C     C_R   0.382423 0.880358 0.497889 0.941977
C2    C     C_2   0.676029 0.257505 0.401908 -0.040884
C3    C     C_2   0.201150 0.266316 0.393726 -0.006130
C4    C     C_2   0.176029 0.757506 0.401909 -0.040883
C5    C     C_2   0.687427 0.820162 0.497403 -0.352555
C6    C     C_2   0.653956 0.209895 0.507389 -0.388168
C7    C     C_2   0.187428 0.320162 0.497403 -0.352555
C8    C     C_2   0.153956 0.709895 0.507389 -0.388168
C9    C     C_2   0.284120 0.221487 0.398329 -0.233641
C10   C     C_2   0.238963 0.828923 0.427541 -0.196286
C11   C     C_2   0.784119 0.721486 0.398329 -0.233641
C12   C     C_R   0.378894 0.115752 0.499636 0.866111
C13   C     C_2   0.738963 0.328923 0.427540 -0.196284
C14   C     C_2   0.297038 0.162405 0.495124 -0.255105
C15   C     C_2   0.317894 0.811467 0.487569 -0.227131
C16   C     C_2   0.797038 0.662405 0.495124 -0.255106
C17   C     C_2   0.817894 0.311467 0.487569 -0.227129
C18   C     C_2   0.571394 0.008865 0.927399 0.090350
C19   C     C_2   0.071394 0.508865 0.927399 0.090350
C20   C     C_2   0.570579 0.990135 0.073732 0.033300
C21   C     C_2   0.070579 0.490135 0.073732 0.033300
C22   C     C_2   0.637245 0.743453 0.284363 0.493528
C23   C     C_R   0.882423 0.380358 0.497889 0.941972
C24   C     C_2   0.648353 0.240534 0.261845 0.631088
C25   C     C_2   0.137246 0.243454 0.284362 0.493525
C26   C     C_2   0.148352 0.740536 0.261846 0.631087
C27   C     C_2   0.355950 0.257050 0.314313 0.552275
C28   C     C_2   0.211319 0.919542 0.391406 0.502105
C29   C     C_2   0.855948 0.757049 0.314311 0.552275
C30   C     C_2   0.711320 0.419542 0.391403 0.502105
C31   C     C_2   0.224339 0.132210 0.584096 0.439640
C32   C     C_2   0.350216 0.721369 0.516597 0.481062
C33   C     C_2   0.724339 0.632209 0.584097 0.439639
C34   C     C_R   0.878894 0.615751 0.499636 0.866112
C35   C     C_2   0.850216 0.221369 0.516601 0.481058
C36   C     C_2   0.656334 0.035887 0.868730 0.350110
C37   C     C_2   0.156334 0.535887 0.868730 0.350109
C38   C     C_2   0.653378 0.956048 0.131646 0.536246
C39   C     C_2   0.153378 0.456048 0.131646 0.536247
C40   C     C_2   0.431253 0.055987 0.106270 0.780265
C41   C     C_2   0.931253 0.555987 0.106270 0.780265
C42   C     C_R   0.610585 0.125403 0.501282 0.925595
C43   C     C_R   0.617122 0.880590 0.499613 1.006304
C44   C     C_R   0.110585 0.625403 0.501282 0.925597
C45   C     C_R   0.117122 0.380590 0.499613 1.006301
C46   C     C_2   0.701149 0.766315 0.393726 -0.006132
F1    F     F_    0.437086 0.948201 0.898627 -0.562711
F2    F     F_    0.937086 0.448201 0.898627 -0.562709
H1    H     H_    0.734935 0.824743 0.579728 0.149017
H2    H     H_    0.254553 0.975824 0.409820 0.047488
H3    H     H_    0.924879 0.747623 0.340665 0.128260
H4    H     H_    0.754553 0.475824 0.409816 0.047488
H5    H     H_    0.157209 0.155543 0.572219 0.126091
H6    H     H_    0.316239 0.663227 0.477189 0.085451
H7    H     H_    0.657209 0.655543 0.572221 0.126092
H8    H     H_    0.816240 0.163227 0.477189 0.085451
H9    H     H_    0.674537 0.011857 0.771912 0.116752
H10   H     H_    0.174537 0.511857 0.771912 0.116752
H11   H     H_    0.682946 0.897962 0.088331 0.049608
H12   H     H_    0.674794 0.232823 0.605982 0.191907
H13   H     H_    0.182946 0.397962 0.088331 0.049607
H14   H     H_    0.364233 0.041517 0.136888 0.023592
H15   H     H_    0.864233 0.541517 0.136888 0.023592
H16   H     H_    0.234935 0.324743 0.579729 0.149017
H17   H     H_    0.174795 0.732822 0.605982 0.191906
H18   H     H_    0.661788 0.716963 0.191798 0.093542
H19   H     H_    0.695326 0.252507 0.183913 0.082151
H20   H     H_    0.161790 0.216965 0.191797 0.093542
H21   H     H_    0.195324 0.752510 0.183913 0.082150
H22   H     H_    0.424880 0.247623 0.340667 0.128258
N1    N     N_2   0.501330 0.000000 0.852150 0.136351
N2    N     N_2   0.001330 0.500000 0.852150 0.136351
N3    N     N_2   0.501360 0.000000 0.147810 -0.192383
N4    N     N_2   0.001360 0.500000 0.147810 -0.192383
O1    O     O_R   0.409520 0.909540 0.613040 -0.512183
O2    O     O_R   0.590440 0.909540 0.613100 -0.656586
O3    O     O_R   0.090440 0.590460 0.613100 -0.662397
O4    O     O_R   0.090440 0.409540 0.613100 -0.656586
O5    O     O_R   0.590480 0.090460 0.386960 -0.546033
O6    O     O_R   0.590480 0.909540 0.386960 -0.568914
O7    O     O_R   0.090480 0.590460 0.386960 -0.546032
O8    O     O_R   0.090480 0.409540 0.386960 -0.568914
O9    O     O_2   0.557353 0.748545 0.298828 -0.542368
O10   O     O_2   0.572250 0.220219 0.231417 -0.526254
O11   O     O_2   0.057355 0.248545 0.298826 -0.542371
O12   O     O_R   0.409520 0.090460 0.613040 -0.534772
O13   O     O_2   0.072249 0.720220 0.231418 -0.526255
O14   O     O_2   0.338327 0.299803 0.216432 -0.526250
O15   O     O_2   0.138427 0.932330 0.341718 -0.530547
O16   O     O_2   0.838325 0.799800 0.216429 -0.526252
O17   O     O_2   0.638428 0.432328 0.341713 -0.530545
O18   O     O_2   0.238318 0.079010 0.670772 -0.505260
O19   O     O_2   0.417443 0.711339 0.583313 -0.516999
O20   O     O_2   0.738319 0.579009 0.670773 -0.505259
O21   O     O_2   0.917438 0.211340 0.583325 -0.516996
O22   O     O_2   0.708150 0.084083 0.930351 -0.520748
O23   O     O_R   0.909520 0.409540 0.613040 -0.512180
O24   O     O_2   0.208150 0.584083 0.930351 -0.520749
O25   O     O_2   0.692878 0.996308 0.220289 -0.506928
O26   O     O_2   0.192878 0.496308 0.220290 -0.506927
O27   O     O_2   0.445859 0.123292 0.045724 -0.536046
O28   O     O_2   0.945859 0.623292 0.045724 -0.536046
O29   O     O_R   0.909520 0.590460 0.613040 -0.534772
O30   O     O_R   0.409560 0.909540 0.386900 -0.648109
O31   O     O_R   0.409560 0.090460 0.386900 -0.692308
O32   O     O_R   0.909560 0.409540 0.386900 -0.648110
O33   O     O_R   0.909560 0.590460 0.386900 -0.692308
O34   O     O_R   0.590440 0.090460 0.613100 -0.662397
Zn1   Zn    Zn3+2 0.499970 1.000000 0.650990 1.103560
Zn2   Zn    Zn3+2 0.999970 0.500000 0.650990 1.103561
Zn3   Zn    Zn3+2 0.500030 0.000000 0.349010 1.023976
Zn4   Zn    Zn3+2 0.000030 0.500000 0.349010 1.023976

loop_
_geom_bond_atom_site_label_1
_geom_bond_atom_site_label_2
_ccdc_geom_bond_type
C33   H7    S    
C12   O12   A    
O33   Zn4   S    
C45   O8    A    
C14   C31   S    
C4    C8    D    
C33   O20   D    
C15   C32   S    
O32   Zn4   S    
O34   Zn1   S    
C17   C23   S    
O29   Zn2   S    
C34   O33   A    
C7    C45   S    
C44   O3    A    
C19   C21   S    
C3    C7    D    
C10   C15   D    
N4    Zn4   S    
C12   O31   A    
C18   N1    D    
C40   H14   S    
C41   O28   D    
C2    C13   S    
C22   H18   S    
C19   C37   S    
C24   H19   S    
C16   C34   S    
C41   N4    S    
C28   H2    S    
O2    Zn1   S    
C45   O4    A    
C1    C15   S    
C37   H10   S    
C32   O19   D    
O31   Zn3   S    
C42   O5    A    
C5    H1    S    
C19   N2    D    
C2    C6    D    
C25   H20   S    
F2    N2    S    
C32   H6    S    
C37   O24   D    
N3    Zn3   S    
C39   H13   S    
N2    Zn2   S    
O1    Zn1   S    
C1    O1    A    
C6    H12   S    
C13   C30   S    
C3    C25   S    
O12   Zn1   S    
C36   H9    S    
C26   O13   D    
C43   O6    A    
C23   O32   A    
C21   N4    D    
O8    Zn4   S    
C9    C14   D    
C3    C9    S    
C16   C33   S    
C20   C38   S    
C11   C16   D    
C36   O22   D    
C21   C39   S    
O7    Zn4   S    
C30   O17   D    
C25   O11   D    
O4    Zn2   S    
C31   H5    S    
C1    O30   A    
F1    N1    S    
C28   O15   D    
C27   H22   S    
C22   C46   S    
C12   C14   S    
C44   O7    A    
C35   O21   D    
C2    C24   S    
C41   H15   S    
C4    C10   S    
C9    C27   S    
C40   O27   D    
C29   H3    S    
C10   C28   S    
C43   O2    A    
C30   H4    S    
C23   O23   A    
C35   H8    S    
C29   O16   D    
C8    C44   S    
C38   O25   D    
O30   Zn3   S    
C4    C26   S    
O5    Zn3   S    
C5    C46   D    
C34   O29   A    
C13   C17   D    
C22   O9    D    
C24   O10   D    
O23   Zn2   S    
C39   O26   D    
C42   O34   A    
N1    Zn1   S    
O6    Zn3   S    
C20   N3    D    
C18   C20   S    
C5    C43   S    
C27   O14   D    
C7    H16   S    
C38   H11   S    
C8    H17   S    
C11   C29   S    
C31   O18   D    
C6    C42   S    
C26   H21   S    
C11   C46   S    
C17   C35   S    
C40   N3    S    
C18   C36   S    
O3    Zn2   S    
