data_mof_unit_54285.cif
_audit_creation_date              2012-12-10T18:35:01-0500
_audit_creation_method            fapswitch 2.2
_symmetry_space_group_name_H-M    P1
_symmetry_Int_Tables_number       1
_space_group_crystal_system       triclinic
_cell_length_a                    15.149071
_cell_length_b                    13.825401
_cell_length_c                    10.867792
_cell_angle_alpha                 90.0015
_cell_angle_beta                  90.119668
_cell_angle_gamma                 89.99997
_cell_volume                      2276.16692401

loop_
_atom_site_label
_atom_site_type_symbol
_atom_type_description
_atom_site_fract_x
_atom_site_fract_y
_atom_site_fract_z
_atom_type_partial_charge
C1    C     C_R   0.329807 0.499853 0.503761 0.785668
C2    C     C_R   0.670193 0.499853 0.496235 0.785654
C3    C     C_R   0.233054 0.499779 0.509261 -0.078277
C4    C     C_R   0.766947 0.499779 0.490727 -0.078277
C5    C     C_R   0.184683 0.419487 0.554699 -0.005737
C6    C     C_R   0.815315 0.419482 0.445293 -0.005732
C7    C     C_R   0.092613 0.421714 0.549706 -0.210334
C8    C     C_R   0.907385 0.421709 0.450278 -0.210337
C9    C     C_R   0.048273 0.502618 0.503040 0.096539
C10   C     C_R   0.951727 0.502618 0.496934 0.096541
C11   C     C_R   0.564348 0.108081 0.565150 -0.292797
C12   C     C_R   0.435655 0.108078 0.434847 -0.292801
C13   C     C_R   0.562657 0.209616 0.564786 0.107802
C14   C     C_R   0.437344 0.209613 0.435212 0.107783
C15   C     C_R   0.500001 0.054830 0.499998 0.125095
C16   C     C_R   0.462089 0.892142 0.402582 -0.293050
C17   C     C_R   0.537914 0.892146 0.597415 -0.293040
C18   C     C_R   0.461745 0.790594 0.405255 0.065197
C19   C     C_R   0.538257 0.790598 0.594743 0.065176
C20   C     C_R   0.500002 0.945413 0.499998 0.135237
C21   C     C_R   0.506343 0.500664 0.262142 0.795449
C22   C     C_R   0.493662 0.500666 0.737859 0.795461
C23   C     C_R   0.540180 0.681762 0.114814 -0.172334
C24   C     C_R   0.459881 0.681780 0.885211 -0.172352
C25   C     C_R   0.522158 0.769126 0.056012 -0.163955
C26   C     C_R   0.477926 0.769136 0.944027 -0.163970
C27   C     C_R   0.486496 0.592556 0.938004 0.106016
C28   C     C_R   0.513542 0.592550 0.062007 0.106013
C29   C     C_R   0.511788 0.503531 0.127677 -0.122816
C30   C     C_R   0.488227 0.503537 0.872325 -0.122816
C31   C     C_R   0.503416 0.416324 0.063365 -0.224516
C32   C     C_R   0.496582 0.416327 0.936628 -0.224510
C33   C     C_R   0.096141 0.582739 0.461912 -0.174338
C34   C     C_R   0.903861 0.582744 0.538056 -0.174337
C35   C     C_R   0.187735 0.581259 0.464829 -0.203090
C36   C     C_R   0.812267 0.581264 0.535146 -0.203092
Cu1   Cu    Cu3+1 0.500000 0.596430 0.500000 0.924727
Cu2   Cu    Cu3+1 0.500000 0.403570 0.500000 0.950796
H1    H     H_    0.502783 0.347512 0.110897 0.158118
H2    H     H_    0.497198 0.347516 0.889090 0.158129
H3    H     H_    0.433547 0.927943 0.323521 0.123915
H4    H     H_    0.566458 0.927951 0.676475 0.123912
H5    H     H_    0.430995 0.751288 0.330636 0.132901
H6    H     H_    0.569009 0.751295 0.669360 0.132893
H7    H     H_    0.577190 0.685559 0.199665 0.160368
H8    H     H_    0.422871 0.685595 0.800362 0.160375
H9    H     H_    0.540623 0.836861 0.098932 0.131454
H10   H     H_    0.459477 0.836879 0.901118 0.131449
H11   H     H_    0.062666 0.645595 0.424886 0.129793
H12   H     H_    0.937338 0.645605 0.575073 0.129793
H13   H     H_    0.223216 0.643373 0.429597 0.153640
H14   H     H_    0.776788 0.643382 0.570373 0.153642
H15   H     H_    0.055185 0.360837 0.584830 0.131472
H16   H     H_    0.944812 0.360829 0.415159 0.131470
H17   H     H_    0.616976 0.072279 0.614664 0.121690
H18   H     H_    0.383028 0.072274 0.385331 0.121691
H19   H     H_    0.612303 0.249231 0.615671 0.120506
H20   H     H_    0.387698 0.249225 0.384328 0.120501
N1    N     N_R   0.500000 0.258690 0.500000 -0.169664
N2    N     N_R   0.500000 0.741330 0.500000 -0.173532
O1    O     O_R   0.371460 0.581430 0.500010 -0.586290
O2    O     O_R   0.628540 0.581430 0.499990 -0.586295
O3    O     O_R   0.371470 0.418560 0.500010 -0.577469
O4    O     O_R   0.628530 0.418560 0.499990 -0.577471
O5    O     O_R   0.500000 0.581450 0.319650 -0.601598
O6    O     O_R   0.500000 0.581450 0.680350 -0.601600
O7    O     O_R   0.500010 0.418580 0.319650 -0.582965
O8    O     O_R   0.499990 0.418580 0.680350 -0.582960
C37   C     C_R   0.227085 0.333657 0.611233 0.124668
C38   C     C_R   0.214332 0.241504 0.559675 -0.172484
C39   C     C_R   0.253624 0.160279 0.613408 -0.140185
C40   C     C_R   0.305482 0.170370 0.719101 -0.104188
C41   C     C_R   0.317483 0.261600 0.771887 -0.124565
C42   C     C_R   0.278436 0.343107 0.718429 -0.093670
H21   H     H_    0.174620 0.232788 0.477431 0.120596
H22   H     H_    0.244220 0.089548 0.572762 0.126724
H23   H     H_    0.336099 0.107456 0.760316 0.120062
H24   H     H_    0.356633 0.268979 0.854642 0.116214
H25   H     H_    0.288125 0.413407 0.760354 0.099570
C43   C     C_R   0.772910 0.333644 0.388773 0.124657
C44   C     C_R   0.785673 0.241493 0.440336 -0.172491
C45   C     C_R   0.746372 0.160261 0.386624 -0.140197
C46   C     C_R   0.694496 0.170342 0.280946 -0.104182
C47   C     C_R   0.682485 0.261569 0.228151 -0.124543
C48   C     C_R   0.721542 0.343083 0.281589 -0.093647
H26   H     H_    0.825398 0.232785 0.522571 0.120599
H27   H     H_    0.755782 0.089533 0.427276 0.126721
H28   H     H_    0.663872 0.107422 0.239748 0.120064
H29   H     H_    0.643320 0.268940 0.145408 0.116207
H30   H     H_    0.711846 0.413379 0.239657 0.099561

loop_
_geom_bond_atom_site_label_1
_geom_bond_atom_site_label_2
_ccdc_geom_bond_type
C4    C36   A    
C23   H7    S    
C41   C42   A    
C24   C27   A    
C44   C45   A    
C14   N1    A    
C43   C48   A    
C28   C29   A    
Cu1   Cu2   S    
C24   C26   A    
C39   H22   S    
C13   H19   S    
C33   H11   S    
C45   H27   S    
C17   C20   A    
C17   H4    S    
C22   O6    A    
C5    C37   S    
C17   C19   A    
C11   C15   A    
C31   C32   A    
Cu1   O5    S    
C41   H24   S    
C38   C39   A    
C9    C10   S    
C25   H9    S    
C44   H26   S    
C36   H14   S    
C26   H10   S    
C32   H2    S    
C46   H28   S    
C21   O7    A    
C27   C30   A    
C9    C33   A    
C1    O3    A    
C2    O4    A    
Cu1   O2    S    
Cu2   O4    S    
C15   C20   S    
C14   H20   S    
C34   H12   S    
C47   C48   A    
C4    C6    A    
C8    H16   S    
C5    C7    A    
C43   C44   A    
C6    C8    A    
C25   C26   A    
C21   C29   S    
C1    C3    S    
C2    C4    S    
C40   H23   S    
C6    C43   S    
C46   C47   A    
C12   C15   A    
C3    C35   A    
C16   C20   A    
Cu1   O6    S    
C37   C42   A    
C10   C34   A    
C16   C18   A    
C23   C28   A    
C22   O8    A    
C12   H18   S    
C18   N2    A    
C12   C14   A    
C42   H25   S    
C35   H13   S    
C47   H29   S    
C7    H15   S    
C38   H21   S    
C11   H17   S    
C19   H6    S    
Cu2   O3    S    
C7    C9    A    
C22   C30   S    
C21   O5    A    
Cu2   O8    S    
C40   C41   A    
C3    C5    A    
C1    O1    A    
Cu1   O1    S    
C48   H30   S    
C13   N1    A    
C19   N2    A    
C24   H8    S    
C39   C40   A    
C29   C31   A    
C18   H5    S    
C30   C32   A    
C11   C13   A    
C33   C35   A    
C31   H1    S    
C34   C36   A    
C23   C25   A    
C37   C38   A    
Cu1   N2    S    
Cu2   N1    S    
Cu2   O7    S    
C8    C10   A    
C45   C46   A    
C27   C28   A    
C16   H3    S    
C2    O2    A    
