data_mof_unit_48856.cif
_audit_creation_date              2012-12-10T19:25:55-0500
_audit_creation_method            fapswitch 2.2
_symmetry_space_group_name_H-M    P1
_symmetry_Int_Tables_number       1
_space_group_crystal_system       triclinic
_cell_length_a                    9.767581
_cell_length_b                    10.581213
_cell_length_c                    16.793115
_cell_angle_alpha                 89.673199
_cell_angle_beta                  86.261313
_cell_angle_gamma                 87.790367
_cell_volume                      1730.62604371

loop_
_atom_site_label
_atom_site_type_symbol
_atom_type_description
_atom_site_fract_x
_atom_site_fract_y
_atom_site_fract_z
_atom_type_partial_charge
C1    C     C_R   0.497730 0.742359 0.498106 0.978541
C2    C     C_3   0.608274 0.953521 0.455899 0.463733
C3    C     C_3   0.944724 0.600598 0.531149 0.680591
C4    C     C_3   0.055236 0.399459 0.468717 0.674414
C5    C     C_3   0.049272 0.595638 0.459388 -0.248454
C6    C     C_3   0.950804 0.404485 0.540433 -0.208229
C7    C     C_3   0.040156 0.507080 0.572308 -0.266714
C8    C     C_3   0.959479 0.493022 0.427496 -0.295127
C9    C     C_R   0.482883 0.494855 0.653627 0.912922
C10   C     C_R   0.517399 0.504422 0.346786 0.942527
C11   C     C_R   0.477758 0.491868 0.741958 -0.218909
C12   C     C_R   0.502202 0.257875 0.501465 1.004981
C13   C     C_R   0.523640 0.539652 0.261951 -0.222949
C14   C     C_R   0.599826 0.512890 0.781354 0.510172
C15   C     C_R   0.412984 0.613595 0.233063 0.496115
C16   C     C_R   0.590147 0.527501 0.864181 -0.269365
C17   C     C_R   0.427966 0.671780 0.158954 -0.194798
C18   C     C_R   0.463245 0.534018 0.906533 0.027884
C19   C     C_R   0.543706 0.644702 0.108874 -0.001934
C20   C     C_R   0.345341 0.504860 0.869559 -0.206507
C21   C     C_R   0.652874 0.570328 0.135479 -0.239144
C22   C     C_R   0.352105 0.476680 0.788235 -0.096354
C23   C     C_3   0.383562 0.969457 0.466696 0.399975
C24   C     C_R   0.643952 0.515588 0.211543 -0.063033
C25   C     C_2   0.457445 0.556419 0.992672 0.409461
C26   C     C_2   0.528055 0.650997 0.022705 0.387670
C27   C     C_3   0.819295 0.594885 0.766896 -0.150318
C28   C     C_3   0.193476 0.550627 0.248618 -0.207932
C29   C     C_3   0.969026 0.796040 0.585565 -0.313194
C30   C     C_3   0.038675 0.224680 0.390031 -0.324607
C31   C     C_2   0.753802 0.422481 0.232138 0.910557
C32   C     C_2   0.229650 0.421667 0.756439 0.921768
C33   C     C_3   0.644175 0.839438 0.012488 -0.271148
C34   C     C_3   0.615711 0.031476 0.532670 0.419814
C35   C     C_3   0.430887 0.354495 0.039432 -0.310092
C36   C     C_2   0.497671 0.102937 0.341761 0.959913
C37   C     C_2   0.495431 0.899534 0.657597 0.912825
C38   C     C_3   0.274716 0.893454 0.359483 -0.234045
C39   C     C_3   0.718249 0.116995 0.639556 -0.257179
C40   C     C_3   0.171045 0.035579 0.601166 -0.131312
C41   C     C_3   0.824574 0.969523 0.392994 -0.168319
C42   C     C_3   0.498118 0.045475 0.423744 -0.300465
C43   C     C_3   0.500907 0.955508 0.575288 -0.279375
C44   C     C_3   0.506382 0.123334 0.500521 -0.356895
C45   C     C_3   0.493116 0.877384 0.498599 -0.353678
C46   C     C_3   0.391451 0.047509 0.543106 0.472354
H1    H     H_    0.079079 0.516469 0.632225 0.177587
H2    H     H_    0.768624 0.687275 0.784613 0.152731
H3    H     H_    0.898282 0.614125 0.718665 0.207152
H4    H     H_    0.221825 0.450133 0.261694 0.194381
H5    H     H_    0.181146 0.563727 0.183628 0.190028
H6    H     H_    0.092081 0.573561 0.279427 0.187466
H7    H     H_    0.024643 0.832532 0.530914 0.177372
H8    H     H_    0.042691 0.755847 0.627654 0.132030
H9    H     H_    0.912446 0.876999 0.615767 0.226560
H10   H     H_    0.032217 0.273812 0.331686 0.170537
H11   H     H_    0.934581 0.214513 0.419875 0.152567
H12   H     H_    0.919281 0.486075 0.367541 0.176204
H13   H     H_    0.083912 0.128447 0.378252 0.218124
H14   H     H_    0.803368 0.257131 0.285347 0.327312
H15   H     H_    0.153428 0.293855 0.684629 0.351770
H16   H     H_    0.729142 0.809626 0.050229 0.179209
H17   H     H_    0.558951 0.888618 0.048781 0.171606
H18   H     H_    0.685511 0.908294 0.967954 0.192443
H19   H     H_    0.543246 0.348485 0.047725 0.160842
H20   H     H_    0.408641 0.309860 0.982158 0.184479
H21   H     H_    0.379510 0.299468 0.088452 0.197951
H22   H     H_    0.413584 0.233659 0.269877 0.329300
H23   H     H_    0.249181 0.498681 0.905230 0.203903
H24   H     H_    0.572590 0.771819 0.732608 0.331276
H25   H     H_    0.184642 0.839157 0.345596 0.197161
H26   H     H_    0.368814 0.831938 0.347679 0.191807
H27   H     H_    0.275770 0.976372 0.318859 0.169160
H28   H     H_    0.707166 0.038723 0.683370 0.182738
H29   H     H_    0.628372 0.184955 0.646005 0.173223
H30   H     H_    0.810078 0.167869 0.654615 0.170504
H31   H     H_    0.200054 0.934532 0.612088 0.146764
H32   H     H_    0.107185 0.045996 0.549035 0.193339
H33   H     H_    0.107171 0.069662 0.654304 0.156759
H34   H     H_    0.738566 0.544472 0.093649 0.172902
H35   H     H_    0.886914 0.975751 0.445616 0.190206
H36   H     H_    0.789479 0.065238 0.373553 0.155852
H37   H     H_    0.892337 0.927925 0.343591 0.162591
H38   H     H_    0.342065 0.726159 0.136708 0.144284
H39   H     H_    0.681666 0.534155 0.896621 0.159982
H40   H     H_    0.095862 0.675604 0.426152 0.180424
H41   H     H_    0.904851 0.323618 0.572968 0.165407
H42   H     H_    0.873003 0.552935 0.817477 0.188533
N1    N     N_3   0.136700 0.499970 0.500060 -0.115112
N2    N     N_3   0.863300 0.500030 0.499940 -0.112272
O1    O     O_R   0.383390 0.686040 0.500000 -0.632195
O2    O     O_3   0.289843 0.632092 0.277518 -0.654952
O3    O     O_3   0.873868 0.707083 0.565919 -0.534767
O4    O     O_3   0.124887 0.289126 0.438333 -0.536329
O5    O     O_2   0.872190 0.435750 0.205893 -0.676169
O6    O     O_R   0.721007 0.316249 0.278354 -0.796786
O7    O     O_2   0.114826 0.457012 0.782345 -0.689390
O8    O     O_R   0.244981 0.323530 0.700891 -0.740509
O9    O     O_3   0.597221 0.735282 0.971430 -0.643083
O10   O     O_3   0.377946 0.480364 0.043738 -0.639667
O11   O     O_2   0.576358 0.061001 0.287928 -0.621129
O12   O     O_R   0.616610 0.313960 0.500000 -0.633773
O13   O     O_R   0.404560 0.202626 0.327140 -0.770267
O14   O     O_2   0.409667 0.939177 0.708548 -0.609074
O15   O     O_R   0.589119 0.802556 0.675721 -0.769685
O16   O     O_3   0.257228 0.932825 0.439458 -0.637914
O17   O     O_3   0.740688 0.068876 0.561509 -0.626418
O18   O     O_3   0.285900 0.111229 0.590430 -0.542226
O19   O     O_3   0.714709 0.889397 0.409361 -0.566446
O20   O     O_R   0.616650 0.686050 0.499970 -0.512969
O21   O     O_R   0.383350 0.313950 0.500030 -0.502425
O22   O     O_R   0.369590 0.500020 0.615820 -0.619964
O23   O     O_R   0.630410 0.499980 0.384180 -0.619590
O24   O     O_R   0.602840 0.500020 0.615790 -0.538963
O25   O     O_R   0.397160 0.499980 0.384210 -0.554344
O26   O     O_3   0.727170 0.508501 0.738360 -0.590866
Zn1   Zn    Zn3+2 0.344250 0.499990 0.500020 1.045560
Zn2   Zn    Zn3+2 0.655750 0.500010 0.499980 1.051111

loop_
_geom_bond_atom_site_label_1
_geom_bond_atom_site_label_2
_ccdc_geom_bond_type
C27   H2    S    
C2    O19   S    
C38   O16   S    
C23   C45   S    
C36   C42   S    
H15   O8    S    
H22   O13   S    
C4    C8    S    
O20   Zn2   S    
C12   O12   A    
C23   C42   S    
C22   C32   S    
C3    N2    S    
C34   O17   S    
N2    Zn2   S    
C19   C21   A    
C3    C7    S    
O22   Zn1   S    
C28   H5    S    
C14   O26   S    
C29   H8    S    
C35   H19   S    
C31   O6    S    
C7    N1    S    
C30   H11   S    
C32   O7    D    
C39   H28   S    
C19   C26   S    
C8    H12   S    
C15   O2    S    
C28   H4    S    
C33   H16   S    
O25   Zn1   S    
C46   O18   S    
O1    Zn1   S    
C39   H29   S    
C18   C20   A    
O12   Zn2   S    
C26   O9    S    
C40   O18   S    
C27   O26   S    
C2    C34   S    
C9    O22   A    
C1    O1    A    
C23   C46   S    
C41   O19   S    
C18   C25   S    
C42   C44   S    
C44   C46   S    
C2    C45   S    
C38   H26   S    
C34   C44   S    
C4    C6    S    
C17   C19   A    
C29   H9    S    
C35   H20   S    
C25   C26   D    
C6    N2    S    
C23   O16   S    
C30   H10   S    
C10   C13   S    
C6    H41   S    
C13   C24   A    
C36   O11   D    
C33   O9    S    
C7    H1    S    
C37   C43   S    
C39   O17   S    
C37   O15   S    
C1    O20   A    
C37   O14   D    
C9    C11   S    
C25   O10   S    
C35   H21   S    
C33   H17   S    
C41   H35   S    
C30   H13   S    
C40   H33   S    
C3    O3    S    
C39   H30   S    
C43   C45   S    
O24   Zn2   S    
C10   O23   A    
C4    O4    S    
C5    H40   S    
H14   O6    S    
C16   C18   A    
N1    Zn1   S    
C36   O13   S    
C16   H39   S    
C14   C16   A    
C20   H23   S    
C8    N2    S    
C9    O24   A    
C35   O10   S    
C4    N1    S    
C15   C17   A    
C38   H25   S    
C34   C43   S    
C20   C22   A    
C3    C5    S    
H24   O15   S    
C5    C8    S    
C6    C7    S    
C11   C22   A    
O21   Zn1   S    
C17   H38   S    
C13   C15   A    
C24   C31   S    
C30   O4    S    
C29   O3    S    
C28   H6    S    
C1    C45   S    
C29   H7    S    
C2    C42   S    
C33   H18   S    
C31   O5    D    
C41   H36   S    
C21   H34   S    
C11   C14   A    
C32   O8    S    
C40   H32   S    
C27   H42   S    
C43   C46   S    
O23   Zn2   S    
C28   O2    S    
C12   C44   S    
C21   C24   A    
C40   H31   S    
C12   O21   A    
C5    N1    S    
C10   O25   A    
C27   H3    S    
C38   H27   S    
C41   H37   S    
