data_mof_unit_38552.cif
_audit_creation_date              2012-12-10T18:13:56-0500
_audit_creation_method            fapswitch 2.2
_symmetry_space_group_name_H-M    P1
_symmetry_Int_Tables_number       1
_space_group_crystal_system       triclinic
_cell_length_a                    10.748861
_cell_length_b                    9.407114
_cell_length_c                    23.511666
_cell_angle_alpha                 90.385666
_cell_angle_beta                  90.152617
_cell_angle_gamma                 90.353186
_cell_volume                      2377.29227117

loop_
_atom_site_label
_atom_site_type_symbol
_atom_type_description
_atom_site_fract_x
_atom_site_fract_y
_atom_site_fract_z
_atom_type_partial_charge
C1    C     C_R   0.259587 0.499621 0.499509 0.769614
C2    C     C_R   0.314079 0.626530 0.971452 -0.155976
C3    C     C_R   0.316589 0.630083 0.030763 -0.147735
C4    C     C_R   0.420182 0.578694 0.060614 -0.026055
C5    C     C_R   0.522484 0.524435 0.030275 -0.015957
C6    C     C_R   0.626796 0.472505 0.059827 -0.028309
C7    C     C_R   0.728352 0.418872 0.029108 -0.143079
C8    C     C_R   0.725966 0.415737 0.969752 -0.154182
C9    C     C_R   0.423658 0.578364 0.120237 0.580316
C10   C     C_R   0.625800 0.473883 0.119527 0.605335
C11   C     C_R   0.581072 0.620392 0.243058 0.445026
C12   C     C_R   0.499522 0.499738 0.390905 0.838634
C13   C     C_R   0.572852 0.612199 0.302177 -0.268164
C14   C     C_R   0.505841 0.501478 0.328224 -0.145288
C15   C     C_R   0.445986 0.398087 0.293621 -0.041151
C16   C     C_R   0.455123 0.406747 0.234495 -0.182456
C17   C     C_R   0.521957 0.517136 0.209098 0.260494
C18   C     C_R   0.507178 0.378165 0.761933 -0.099716
C19   C     C_R   0.503353 0.375146 0.702598 -0.228654
C20   C     C_R   0.503293 0.502691 0.671782 -0.043310
C21   C     C_R   0.507194 0.633036 0.701383 -0.227208
C22   C     C_R   0.511105 0.635731 0.760616 -0.100781
C23   C     C_R   0.739916 0.500609 0.500123 0.778662
C24   C     C_R   0.511050 0.508467 0.791147 0.355929
C25   C     C_3   0.071755 0.654406 0.500432 -0.381474
C26   C     C_3   0.071208 0.422738 0.552149 -0.396778
C27   C     C_3   0.929378 0.655662 0.502314 -0.379098
C28   C     C_3   0.927894 0.417140 0.550806 -0.377161
C29   C     C_3   0.068042 0.421646 0.443205 -0.009007
C30   C     C_3   0.121058 0.498636 0.498205 0.065199
C31   C     C_3   0.877428 0.501513 0.499270 0.118175
C32   C     C_3   0.923282 0.432106 0.443240 -0.413424
C33   C     C_3   0.623269 0.084831 0.517970 -0.188643
C34   C     C_3   0.622927 0.917327 0.518478 -0.192723
C35   C     C_3   0.407614 0.083905 0.541795 -0.190002
C36   C     C_3   0.406594 0.916158 0.541292 -0.187719
C37   C     C_3   0.469753 0.082372 0.444475 -0.174244
C38   C     C_3   0.470976 0.915263 0.444239 -0.166737
C39   C     C_R   0.500533 0.500553 0.609147 0.801435
C40   C     C_R   0.616898 0.462804 0.880211 0.535051
C41   C     C_R   0.414120 0.565672 0.881134 0.534045
C42   C     C_R   0.415201 0.571738 0.940760 -0.015176
C43   C     C_R   0.519976 0.520979 0.970252 -0.012312
C44   C     C_R   0.621898 0.465989 0.939874 -0.015456
Cu1   Cu    Cu3+1 0.499860 0.642410 0.500030 0.904677
Cu2   Cu    Cu3+1 0.499860 0.357590 0.500030 0.911147
H1    H     H_    0.232518 0.666397 0.949780 0.192176
H2    H     H_    0.500478 0.273208 0.680941 0.145363
H3    H     H_    0.507587 0.733068 0.678850 0.145915
H4    H     H_    0.514430 0.736822 0.782892 0.142103
H5    H     H_    0.104269 0.715281 0.462804 0.187204
H6    H     H_    0.108326 0.312930 0.555291 0.170071
H7    H     H_    0.108405 0.710574 0.538880 0.169109
H8    H     H_    0.102878 0.480922 0.591013 0.168323
H9    H     H_    0.898253 0.708583 0.542284 0.167213
H10   H     H_    0.890629 0.462221 0.591159 0.161129
H11   H     H_    0.893778 0.719205 0.466014 0.174642
H12   H     H_    0.896602 0.304264 0.548006 0.169672
H13   H     H_    0.889068 0.496308 0.406756 0.162703
H14   H     H_    0.878845 0.325389 0.437851 0.163344
H15   H     H_    0.650531 0.126414 0.560658 0.141216
H16   H     H_    0.648559 0.878930 0.561580 0.139661
H17   H     H_    0.236829 0.672389 0.053107 0.196933
H18   H     H_    0.696020 0.121138 0.487728 0.147688
H19   H     H_    0.696459 0.879522 0.488975 0.145358
H20   H     H_    0.428096 0.122292 0.585657 0.139290
H21   H     H_    0.424518 0.877277 0.585066 0.140568
H22   H     H_    0.376670 0.119651 0.431190 0.189877
H23   H     H_    0.379244 0.873839 0.429332 0.166039
H24   H     H_    0.537521 0.121060 0.412369 0.156340
H25   H     H_    0.541256 0.878836 0.412808 0.152245
H26   H     H_    0.312955 0.122623 0.531216 0.159082
H27   H     H_    0.311884 0.878078 0.529449 0.147758
H28   H     H_    0.809705 0.378544 0.050804 0.195311
H29   H     H_    0.805646 0.373258 0.947404 0.191716
H30   H     H_    0.619362 0.692596 0.327873 0.176847
H31   H     H_    0.408162 0.328894 0.207674 0.166821
H32   H     H_    0.506635 0.279317 0.785272 0.142555
N1    N     N_R   0.513994 0.511925 0.852175 -0.469728
N2    N     N_R   0.524976 0.525600 0.148277 -0.452513
N3    N     N_3   0.500250 0.143650 0.501250 -0.127154
N4    N     N_3   0.500250 0.856350 0.501250 -0.124719
O1    O     O_R   0.317570 0.620260 0.500030 -0.592800
O2    O     O_R   0.317570 0.379740 0.500030 -0.588229
O3    O     O_R   0.499840 0.620290 0.417900 -0.586773
O4    O     O_R   0.499840 0.379710 0.417900 -0.587924
O5    O     O_R   0.682190 0.620260 0.500010 -0.599012
O6    O     O_R   0.682190 0.379740 0.500010 -0.597847
O7    O     O_R   0.499920 0.620230 0.582140 -0.590701
O8    O     O_R   0.499920 0.379770 0.582140 -0.591051
O9    O     O_2   0.714360 0.412138 0.850416 -0.536254
O10   O     O_2   0.313680 0.611984 0.852282 -0.536263
O11   O     O_2   0.326371 0.629406 0.150061 -0.502592
O12   O     O_2   0.723927 0.422651 0.148655 -0.496644
C45   C     C_1   0.118278 0.487491 0.391057 0.204522
N5    N     N_1   0.157503 0.539462 0.350328 -0.241889
C46   C     C_1   0.102512 0.269560 0.441418 0.253157
N6    N     N_1   0.128029 0.150231 0.440212 -0.313545
Cl1   Cl    Cl    0.663671 0.762218 0.212336 -0.551755
C47   C     C_1   0.367644 0.287624 0.316459 0.293471
N7    N     N_1   0.303440 0.198709 0.333590 -0.273791

loop_
_geom_bond_atom_site_label_1
_geom_bond_atom_site_label_2
_ccdc_geom_bond_type
C12   O4    A    
C45   N5    T    
C41   C42   A    
Cu1   N4    S    
C15   C47   S    
C21   H3    S    
C46   N6    T    
C35   N3    S    
C36   H21   S    
C7    C8    A    
Cu1   Cu2   S    
C1    O2    A    
C29   C30   S    
C12   O3    A    
C18   C24   A    
Cu1   O5    S    
C25   H7    S    
C18   C19   A    
C29   C32   S    
C5    C6    A    
C27   H9    S    
C10   O12   S    
C15   C16   A    
C37   H22   S    
C34   H16   S    
C11   Cl1   S    
C16   H31   S    
C1    C30   S    
C19   C20   A    
C9    N2    A    
C36   N4    S    
C16   C17   A    
C13   C14   A    
Cu1   O7    S    
C39   O8    A    
C22   H4    S    
C5    C43   A    
C38   H23   S    
C23   O5    A    
C21   C22   A    
C38   N4    S    
C37   N3    S    
Cu1   O1    S    
C26   H8    S    
C34   H19   S    
C7    H28   S    
Cu2   O6    S    
C28   H10   S    
C27   C31   S    
C27   H11   S    
C29   C45   S    
C20   C39   S    
C10   N2    A    
C19   H2    S    
C35   H20   S    
C17   N2    S    
C35   C36   S    
C23   C31   S    
Cu1   O3    S    
C43   C44   A    
C25   H5    S    
C41   N1    A    
C37   C38   S    
C26   H6    S    
Cu2   N3    S    
C24   N1    S    
C31   C32   S    
C13   H30   S    
C18   H32   S    
C33   C34   S    
C40   N1    A    
Cu2   O2    S    
C12   C14   S    
C35   H26   S    
C26   C30   S    
C28   H12   S    
C23   O6    A    
C22   C24   A    
C1    O1    A    
C42   C43   A    
C32   H14   S    
C3    C4    A    
C9    O11   S    
C25   C30   S    
C38   H25   S    
C11   C17   A    
C28   C31   S    
C8    C44   A    
C4    C5    A    
C6    C10   A    
C6    C7    A    
Cu2   O8    S    
C3    H17   S    
C2    H1    S    
C25   C27   S    
C26   C28   S    
C29   C46   S    
C2    C3    A    
C11   C13   A    
C2    C42   A    
C33   H18   S    
C47   N7    T    
C8    H29   S    
C40   O9    S    
C36   H27   S    
C40   C44   A    
C41   O10   S    
C20   C21   A    
C33   H15   S    
C14   C15   A    
C34   N4    S    
C32   H13   S    
C4    C9    A    
C37   H24   S    
C33   N3    S    
C39   O7    A    
Cu2   O4    S    
