data_mof_unit_58122.cif
_audit_creation_date              2012-12-10T16:54:59-0500
_audit_creation_method            fapswitch 2.2
_symmetry_space_group_name_H-M    P1
_symmetry_Int_Tables_number       1
_space_group_crystal_system       triclinic
_cell_length_a                    7.820255
_cell_length_b                    8.583017
_cell_length_c                    15.715999
_cell_angle_alpha                 91.155265
_cell_angle_beta                  86.959029
_cell_angle_gamma                 92.982187
_cell_volume                      1051.80741577

loop_
_atom_site_label
_atom_site_type_symbol
_atom_type_description
_atom_site_fract_x
_atom_site_fract_y
_atom_site_fract_z
_atom_type_partial_charge
C1    C     C_R   0.544128 0.793830 0.493569 0.978053
C2    C     C_2   0.430777 0.044201 0.477814 -0.223212
C3    C     C_R   0.503784 0.500883 0.661302 0.898744
C4    C     C_R   0.454437 0.205707 0.496926 0.881128
C5    C     C_R   0.496083 0.498810 0.338678 0.900273
C6    C     C_3   0.349054 0.591585 0.953825 -0.003883
C7    C     C_3   0.669500 0.556231 0.952984 -0.414533
C8    C     C_3   0.648933 0.571136 0.050617 -0.425239
C9    C     C_1   0.485452 0.492649 0.250246 -0.114022
C10   C     C_3   0.499032 0.488041 0.917203 0.152186
C11   C     C_1   0.187695 0.555182 0.911366 0.163614
C12   C     C_3   0.325599 0.567456 0.051763 -0.434280
C13   C     C_2   0.270533 0.987680 0.436411 0.979027
C14   C     C_2   0.978747 0.605675 0.599355 1.136694
C15   C     C_1   0.389317 0.758792 0.937249 0.192957
C16   C     C_1   0.309562 0.239016 0.917609 0.236208
C17   C     C_1   0.608846 0.216027 0.908579 0.181766
C18   C     C_2   0.352392 0.198019 0.093310 0.921161
C19   C     C_3   0.480636 0.482682 0.083477 0.189646
C20   C     C_3   0.481296 0.311157 0.047565 -0.237327
C21   C     C_3   0.472024 0.312369 0.947400 -0.109484
C22   C     C_1   0.478858 0.487003 0.175160 -0.046512
C23   C     C_1   0.511939 0.494918 0.824992 -0.064834
C24   C     C_1   0.511832 0.498638 0.749766 -0.098997
C25   C     C_2   0.565280 0.957352 0.490128 -0.424128
H1    H     H_    0.313719 0.681234 0.086607 0.186229
H2    H     H_    0.013391 0.994440 0.432906 0.345270
H3    H     H_    0.884071 0.793122 0.661027 0.327742
H4    H     H_    0.315169 0.000129 0.160518 0.356594
H5    H     H_    0.204266 0.499299 0.068343 0.211081
H6    H     H_    0.608619 0.268829 0.062807 0.159326
H7    H     H_    0.687783 0.006889 0.510367 0.208497
H8    H     H_    0.012408 0.400142 0.427737 0.204914
H9    H     H_    0.773799 0.477348 0.936290 0.218279
H10   H     H_    0.709836 0.671562 0.925326 0.206262
H11   H     H_    0.646325 0.696748 0.069632 0.218386
H12   H     H_    0.762546 0.523811 0.079096 0.192407
N1    N     N_2   0.950340 0.457950 0.477370 -0.189739
N2    N     N_2   0.049660 0.542050 0.522630 -0.157317
N3    N     N_1   0.064025 0.527720 0.875613 -0.163849
N4    N     N_1   0.420751 0.889445 0.924230 -0.186887
N5    N     N_1   0.183171 0.180934 0.894185 -0.137589
N6    N     N_1   0.716100 0.141524 0.878285 -0.149972
O1    O     O_R   0.389240 0.738570 0.505550 -0.608028
O2    O     O_R   0.111787 0.040452 0.466398 -0.766978
O3    O     O_2   0.974975 0.529991 0.664556 -0.619340
O4    O     O_R   0.928911 0.759639 0.602122 -0.797657
O5    O     O_2   0.199001 0.220305 0.096560 -0.629193
O6    O     O_R   0.411479 0.067450 0.132251 -0.798332
O7    O     O_R   0.678400 0.711630 0.491050 -0.598944
O8    O     O_R   0.355360 0.513470 0.630110 -0.604926
O9    O     O_R   0.644510 0.486530 0.615610 -0.610295
O10   O     O_R   0.321600 0.288370 0.508950 -0.589113
O11   O     O_R   0.610760 0.261430 0.494450 -0.615222
O12   O     O_R   0.355490 0.513470 0.384390 -0.615012
O13   O     O_R   0.644640 0.486530 0.369890 -0.621312
O14   O     O_2   0.278631 0.897981 0.374977 -0.621935
Zn1   Zn    Zn3+2 0.306930 0.517990 0.509680 1.027413
Zn2   Zn    Zn3+2 0.693070 0.482010 0.490320 1.004230

loop_
_geom_bond_atom_site_label_1
_geom_bond_atom_site_label_2
_ccdc_geom_bond_type
C6    C10   S    
C7    C10   S    
C2    C4    S    
C3    O9    A    
C17   N6    T    
H3    O4    S    
C5    C9    S    
C16   C21   S    
O9    Zn2   S    
C4    O10   A    
C1    O7    A    
C5    O13   A    
C19   C20   S    
O13   Zn2   S    
O10   Zn1   S    
C23   C24   T    
C12   H5    S    
H2    O2    S    
C25   H7    S    
C14   N2    S    
C7    C8    S    
C14   O3    D    
O8    Zn1   S    
H4    O6    S    
C1    C25   S    
C15   N4    T    
C3    C24   S    
C14   O4    S    
O7    Zn2   S    
C12   C19   S    
C2    C25   D    
C18   C20   S    
O11   Zn2   S    
C10   C21   S    
C6    C12   S    
C11   N3    T    
C10   C23   S    
C7    H9    S    
C9    C22   T    
C8    C19   S    
C13   O14   D    
C8    H12   S    
N1    Zn2   S    
C16   N5    T    
C19   C22   S    
N1    N2    D    
C20   C21   S    
C13   O2    S    
C8    H11   S    
O12   Zn1   S    
O1    Zn1   S    
C6    C11   S    
C2    C13   S    
C3    O8    A    
C1    O1    A    
C4    O11   A    
C6    C15   S    
N2    Zn1   S    
C7    H10   S    
C5    O12   A    
C17   C21   S    
H8    N1    S    
C18   O6    S    
C12   H1    S    
C20   H6    S    
C18   O5    D    
