data_mof_unit_34423.cif
_audit_creation_date              2012-12-11T16:23:18-0500
_audit_creation_method            fapswitch 2.2
_symmetry_space_group_name_H-M    P1
_symmetry_Int_Tables_number       1
_space_group_crystal_system       triclinic
_cell_length_a                    20.177934
_cell_length_b                    7.18751
_cell_length_c                    19.804572
_cell_angle_alpha                 90.647666
_cell_angle_beta                  98.886719
_cell_angle_gamma                 90.473729
_cell_volume                      2837.43299598

loop_
_atom_site_label
_atom_site_type_symbol
_atom_type_description
_atom_site_fract_x
_atom_site_fract_y
_atom_site_fract_z
_atom_type_partial_charge
O1    O     O_R   0.188410 0.619490 0.310050 -0.527151
O2    O     O_R   0.811590 0.380510 0.689950 -0.531463
O3    O     O_R   0.311590 0.119490 0.189950 -0.527923
O4    O     O_R   0.688410 0.880510 0.810050 -0.532808
O5    O     O_R   0.327280 0.288800 0.321740 -0.540005
O6    O     O_R   0.672720 0.711200 0.678260 -0.540084
O7    O     O_R   0.172720 0.788800 0.178260 -0.540965
O8    O     O_R   0.827280 0.211200 0.821740 -0.540439
C1    C     C_R   0.352247 0.460251 0.337548 0.714507
C2    C     C_R   0.648161 0.539694 0.662129 0.714980
C3    C     C_R   0.148270 0.957509 0.161411 0.710709
C4    C     C_R   0.851228 0.042509 0.839056 0.714673
O9    O     O_R   0.189900 0.289710 0.318190 -0.549858
O10   O     O_R   0.810100 0.710290 0.681810 -0.534366
O11   O     O_R   0.310100 0.789710 0.181810 -0.547274
O12   O     O_R   0.689900 0.210290 0.818190 -0.533055
O13   O     O_R   0.173230 0.120350 0.186370 -0.531663
O14   O     O_R   0.826770 0.879650 0.813630 -0.532203
O15   O     O_R   0.326770 0.620350 0.313630 -0.530938
O16   O     O_R   0.673230 0.379650 0.686370 -0.529484
C5    C     C_R   0.169953 0.458366 0.334037 0.693249
C6    C     C_R   0.830092 0.540931 0.665284 0.689466
C7    C     C_R   0.330165 0.958300 0.165965 0.683181
C8    C     C_R   0.669340 0.041292 0.833992 0.687270
O17   O     O_3   0.244690 0.453290 0.206760 -0.371226
O18   O     O_3   0.755310 0.546710 0.793240 -0.370732
O19   O     O_3   0.255310 0.953290 0.293240 -0.373378
O20   O     O_3   0.744690 0.046710 0.706760 -0.371891
V1    V     V_3+5 0.250980 0.178070 0.258020 1.404731
V2    V     V_3+5 0.749020 0.821930 0.741980 1.409976
V3    V     V_3+5 0.249020 0.678070 0.241980 1.410672
V4    V     V_3+5 0.750980 0.321930 0.758020 1.415371
C9    C     C_R   0.486204 0.087178 0.088830 -0.137754
C10   C     C_R   0.530077 0.865407 0.929866 -0.132720
C11   C     C_R   0.009971 0.569027 0.406455 -0.136272
C12   C     C_R   0.968261 0.368908 0.566561 -0.132973
H1    H     H_    0.532714 0.163118 0.104201 0.120842
H2    H     H_    0.499623 0.741167 0.930937 0.124108
H3    H     H_    0.961418 0.629418 0.389077 0.121941
H4    H     H_    0.999632 0.247841 0.565038 0.124980
C13   C     C_R   0.439579 0.076320 0.134678 0.129790
C14   C     C_R   0.575198 0.873786 0.882633 0.128588
C15   C     C_R   0.056704 0.553051 0.360726 0.126263
C16   C     C_R   0.922541 0.374414 0.613286 0.124018
C17   C     C_R   0.379639 0.968883 0.117219 -0.144354
C18   C     C_R   0.620011 0.029381 0.883609 -0.161915
C19   C     C_R   0.119712 0.468216 0.381926 -0.141891
C20   C     C_R   0.878286 0.528658 0.614113 -0.163867
C21   C     C_R   0.368071 0.876630 0.052190 0.310360
C22   C     C_R   0.615319 0.175261 0.932098 0.307715
C23   C     C_R   0.133603 0.397687 0.449534 0.308232
C24   C     C_R   0.882403 0.672903 0.565742 0.310313
C25   C     C_R   0.414045 0.898236 0.006713 -0.122622
C26   C     C_R   0.565985 0.168393 0.974696 -0.140121
C27   C     C_R   0.087079 0.421634 0.494378 -0.122720
C28   C     C_R   0.931163 0.666792 0.522269 -0.138898
H5    H     H_    0.401843 0.833985 0.956601 0.138765
H6    H     H_    0.562056 0.285723 0.008534 0.138149
H7    H     H_    0.100193 0.372854 0.546226 0.139222
H8    H     H_    0.934415 0.781319 0.487818 0.138805
C29   C     C_R   0.473949 0.000278 0.024242 0.000411
C30   C     C_R   0.523864 0.012347 0.975530 0.002258
C31   C     C_R   0.024610 0.504311 0.473641 -0.001948
C32   C     C_R   0.974105 0.514721 0.521587 0.000167
C33   C     C_R   0.085099 0.968162 0.110387 -0.092695
C34   C     C_R   0.913757 0.032322 0.890635 -0.096127
C35   C     C_R   0.414476 0.481544 0.389468 -0.109466
C36   C     C_R   0.586832 0.517778 0.609514 -0.113483
C37   C     C_R   0.034453 0.981844 0.918840 0.164807
C38   C     C_R   0.964304 0.023062 0.082601 0.172015
C39   C     C_R   0.488280 0.326570 0.566063 0.161556
C40   C     C_R   0.514650 0.668947 0.431527 0.166464
C41   C     C_R   0.975115 0.978857 0.870233 0.106502
C42   C     C_R   0.023935 0.022705 0.131155 0.108707
C43   C     C_R   0.536002 0.390376 0.621378 0.102055
C44   C     C_R   0.465784 0.606206 0.376781 0.105063
C45   C     C_R   0.912996 0.078688 0.960370 0.072057
C46   C     C_R   0.085331 0.923845 0.040491 0.057598
C47   C     C_R   0.584940 0.591225 0.543116 0.078998
C48   C     C_R   0.417357 0.408296 0.455876 0.056853
C49   C     C_R   0.968301 0.026822 0.011258 0.021562
C50   C     C_R   0.030118 0.977188 0.990011 0.022167
C51   C     C_R   0.525929 0.566019 0.493215 0.018034
C52   C     C_R   0.477051 0.430704 0.504784 0.020828
C53   C     C_3   0.455661 0.179054 0.202230 -0.745357
H9    H     H_    0.452449 0.083433 0.245080 0.191988
H10   H     H_    0.507019 0.240413 0.209959 0.196017
H11   H     H_    0.419987 0.294763 0.204041 0.215079
C54   C     C_3   0.572208 0.715426 0.831275 -0.695621
H12   H     H_    0.566694 0.770698 0.778578 0.187280
H13   H     H_    0.617915 0.629261 0.842152 0.245663
H14   H     H_    0.528607 0.621249 0.833164 0.185408
C55   C     C_3   0.037553 0.621822 0.288810 -0.759088
H15   H     H_    0.044318 0.509852 0.251548 0.198603
H16   H     H_    0.984348 0.665763 0.278641 0.193392
H17   H     H_    0.069626 0.742716 0.280489 0.222869
C56   C     C_3   0.924095 0.213906 0.661942 -0.696083
H18   H     H_    0.931367 0.266952 0.715476 0.195461
H19   H     H_    0.877067 0.130621 0.650524 0.250925
H20   H     H_    0.965909 0.117404 0.657316 0.186925
O21   O     O_3   0.312300 0.767920 0.028895 -0.650691
H21   H     H_    0.284637 0.751255 0.065110 0.293984
O22   O     O_3   0.658397 0.326356 0.940552 -0.641545
H22   H     H_    0.703831 0.281895 0.936190 0.289579
O23   O     O_3   0.192017 0.307720 0.475279 -0.651676
H23   H     H_    0.214323 0.263333 0.437388 0.292343
O24   O     O_3   0.839165 0.821160 0.558062 -0.643077
H24   H     H_    0.794098 0.774971 0.563817 0.290733
C57   C     C_3   0.141553 0.804852 0.022200 -0.746181
H25   H     H_    0.151269 0.687234 0.057976 0.216818
H26   H     H_    0.128746 0.736931 0.971369 0.226370
H27   H     H_    0.187468 0.891505 0.024497 0.207578
C58   C     C_3   0.856787 0.200788 0.977377 -0.766010
H28   H     H_    0.849894 0.320461 0.942221 0.219730
H29   H     H_    0.809216 0.119617 0.972418 0.183575
H30   H     H_    0.868321 0.266063 0.028751 0.223529
C59   C     C_3   0.352331 0.342864 0.477336 -0.713976
H31   H     H_    0.312094 0.442634 0.458856 0.197708
H32   H     H_    0.338286 0.202357 0.455694 0.210985
H33   H     H_    0.354329 0.343223 0.533510 0.228931
C60   C     C_3   0.650003 0.664325 0.523411 -0.749556
H34   H     H_    0.692420 0.574286 0.544710 0.175179
H35   H     H_    0.649825 0.658419 0.467506 0.219481
H36   H     H_    0.660424 0.808328 0.543272 0.214112
C61   C     C_3   0.019854 0.074217 0.204971 -0.776077
H37   H     H_    0.997182 0.213916 0.206777 0.211808
H38   H     H_    0.988014 0.973194 0.227380 0.209401
H39   H     H_    0.068929 0.079622 0.238708 0.205212
C62   C     C_3   0.979859 0.926403 0.796684 -0.780526
H40   H     H_    0.003482 0.787720 0.795269 0.214237
H41   H     H_    0.930924 0.917301 0.762871 0.212372
H42   H     H_    0.010924 0.029619 0.774248 0.207529
C63   C     C_3   0.465242 0.686103 0.306241 -0.735599
H43   H     H_    0.516465 0.727021 0.297851 0.207351
H44   H     H_    0.446860 0.581558 0.265966 0.188170
H45   H     H_    0.432420 0.809563 0.300020 0.211077
C64   C     C_3   0.534429 0.311329 0.691861 -0.726162
H46   H     H_    0.481869 0.299060 0.701648 0.203371
H47   H     H_    0.557961 0.171984 0.695940 0.208802
H48   H     H_    0.560669 0.403331 0.732954 0.193705
C65   C     C_3   0.100402 0.020180 0.893401 -0.750816
H49   H     H_    0.094294 0.136231 0.856529 0.205219
H50   H     H_    0.140145 0.070128 0.934616 0.221762
H51   H     H_    0.117205 0.894951 0.867698 0.214651
C66   C     C_3   0.898218 0.989828 0.108370 -0.767775
H52   H     H_    0.903327 0.872936 0.144902 0.205873
H53   H     H_    0.883014 0.116251 0.134579 0.211425
H54   H     H_    0.857659 0.943911 0.067261 0.220660
C67   C     C_3   0.458215 0.133403 0.570216 -0.765458
H55   H     H_    0.498038 0.034746 0.591175 0.210024
H56   H     H_    0.419089 0.134355 0.603907 0.212509
H57   H     H_    0.437220 0.075810 0.519160 0.221825
C68   C     C_3   0.544422 0.862368 0.427089 -0.770816
H58   H     H_    0.505259 0.958927 0.402949 0.212754
H59   H     H_    0.562260 0.923808 0.478323 0.221994
H60   H     H_    0.585750 0.860030 0.396085 0.207867

loop_
_geom_bond_atom_site_label_1
_geom_bond_atom_site_label_2
_ccdc_geom_bond_type
O17   V3    S    
C6    C20   S    
O1    C5    A    
C55   H15   S    
C7    C17   S    
C27   H7    S    
O19   V1    S    
O13   V1    S    
O23   H23   S    
O3    C7    A    
C10   C14   A    
C10   C30   A    
C40   C44   A    
O15   V3    S    
C56   H20   S    
C56   H18   S    
C67   H55   S    
C53   H9    S    
C36   C43   A    
O7    C3    A    
C64   H47   S    
O21   H21   S    
O9    V1    S    
C58   H28   S    
C67   H56   S    
C21   O21   S    
O4    C8    A    
C42   C61   S    
C37   C65   S    
O1    V3    S    
O2    V4    S    
C14   C18   A    
O3    V1    S    
C38   C49   A    
C60   H36   S    
C37   C50   A    
C57   H26   S    
C66   H53   S    
C25   C29   A    
C1    O15   A    
C24   O24   S    
C2    O16   A    
C27   C31   A    
C38   C42   A    
C61   H39   S    
O24   H24   S    
C28   C32   A    
C37   C41   A    
O14   V2    S    
C45   C49   A    
C68   H59   S    
C11   C15   A    
C57   H25   S    
C48   C52   A    
C58   H30   S    
C36   C47   A    
O11   C7    A    
C22   O22   S    
O12   C8    A    
O10   V2    S    
C45   C58   S    
C56   H19   S    
O16   V4    S    
C49   C50   A    
O5    V1    S    
C53   H10   S    
C64   H48   S    
C41   C62   S    
C39   C43   A    
O7    V3    S    
O8    V4    S    
C12   H4    S    
C43   C64   S    
C67   H57   S    
C25   H5    S    
O18   V4    S    
C19   C23   A    
C26   C30   A    
C34   C41   A    
C4    C34   S    
C9    H1    S    
C33   C42   A    
C57   H27   S    
C58   H29   S    
C54   H14   S    
C65   H50   S    
C11   H3    S    
C1    C35   S    
O5    C1    A    
C63   H45   S    
C63   H43   S    
C47   C60   S    
C16   C56   S    
C46   C50   A    
C51   C52   A    
C17   C21   A    
O8    C4    A    
O9    C5    A    
C38   C66   S    
C22   C26   A    
C40   C68   S    
C68   H60   S    
C60   H34   S    
C9    C29   A    
O6    V2    S    
C55   H17   S    
C61   H37   S    
C59   H33   S    
C54   H13   S    
C54   H12   S    
C66   H52   S    
C66   H54   S    
C63   H44   S    
C39   C52   A    
C26   H6    S    
C53   H11   S    
C34   C45   A    
C48   C59   S    
C3    O13   A    
C33   C46   A    
C10   H2    S    
C3    C33   S    
C35   C48   A    
O6    C2    A    
C44   C63   S    
O11   V3    S    
C65   H51   S    
C2    C36   S    
O12   V4    S    
C13   C53   S    
C64   H46   S    
C18   C22   A    
C14   C54   S    
C9    C13   A    
C62   H42   S    
C59   H32   S    
C62   H40   S    
C8    C18   S    
C12   C32   A    
C65   H49   S    
C47   C51   A    
O10   C6    A    
C39   C67   S    
C21   C25   A    
O20   V2    S    
O2    C6    A    
C15   C55   S    
C46   C57   S    
C23   C27   A    
C29   C30   S    
C23   O23   S    
C60   H35   S    
C40   C51   A    
C12   C16   A    
C31   C32   S    
C16   C20   A    
C20   C24   A    
C28   H8    S    
C55   H16   S    
C4    O14   A    
O22   H22   S    
C61   H38   S    
C13   C17   A    
C11   C31   A    
C35   C44   A    
C62   H41   S    
C68   H58   S    
C59   H31   S    
C15   C19   A    
O4    V2    S    
C24   C28   A    
C5    C19   S    
