data_mof_unit_35483.cif
_audit_creation_date              2012-12-11T15:59:27-0500
_audit_creation_method            fapswitch 2.2
_symmetry_space_group_name_H-M    P1
_symmetry_Int_Tables_number       1
_space_group_crystal_system       triclinic
_cell_length_a                    10.771184
_cell_length_b                    10.748348
_cell_length_c                    17.038071
_cell_angle_alpha                 99.586565
_cell_angle_beta                  99.544938
_cell_angle_gamma                 60.485993
_cell_volume                      1684.51454075

loop_
_atom_site_label
_atom_site_type_symbol
_atom_type_description
_atom_site_fract_x
_atom_site_fract_y
_atom_site_fract_z
_atom_type_partial_charge
Br1   Br    Br    0.880280 0.698368 0.142505 -0.156844
Br2   Br    Br    0.568063 0.939487 0.807941 -0.363181
Br3   Br    Br    0.093119 0.610717 0.837356 -0.197962
Br4   Br    Br    0.910010 0.004458 0.394373 -0.210623
C1    C     C_R   0.384919 0.707919 0.387763 0.528324
C2    C     C_R   0.873647 0.307114 0.339671 -0.024990
C3    C     C_R   0.353634 0.787002 0.146158 0.027889
C4    C     C_R   0.371165 0.347346 0.356977 0.580422
C5    C     C_R   0.486437 0.752120 0.190035 -0.133246
C6    C     C_R   0.502324 0.737230 0.273249 -0.079744
C7    C     C_R   0.277654 0.723950 0.251434 -0.117907
C8    C     C_R   0.259630 0.752121 0.173597 0.373600
C9    C     C_R   0.602215 0.732035 0.151797 -0.124172
C10   C     C_R   0.731468 0.707499 0.195068 0.215483
C11   C     C_R   0.744494 0.709736 0.277701 0.529788
C12   C     C_R   0.837507 0.231474 0.199699 -0.155761
C13   C     C_R   0.630319 0.731729 0.317191 0.416391
C14   C     C_R   0.388335 0.730239 0.304851 -0.061030
C15   C     C_R   0.355246 0.330322 0.827581 -0.036765
C16   C     C_R   0.784694 0.370639 0.407141 0.552965
C17   C     C_R   0.492473 0.232504 0.797005 -0.126824
C18   C     C_R   0.524889 0.255039 0.725544 -0.139474
C19   C     C_R   0.291925 0.477057 0.720493 0.355498
C20   C     C_R   0.263532 0.458330 0.792548 0.152159
C21   C     C_R   0.597379 0.104715 0.832353 0.192807
C22   C     C_R   0.740796 0.055928 0.827445 0.428964
C23   C     C_R   0.849059 0.210262 0.280624 -0.195494
C24   C     C_R   0.776136 0.071262 0.757109 0.436765
C25   C     C_R   0.667835 0.155639 0.702138 0.344883
C26   C     C_R   0.412529 0.370610 0.682565 -0.035438
C27   C     C_1   0.847287 0.329107 0.705380 0.024510
C28   C     C_R   0.357769 0.769310 0.627281 0.555696
C29   C     C_1   0.894439 0.294381 0.772077 -0.005354
C30   C     C_1   0.338366 0.809766 0.709313 0.059630
C31   C     C_1   0.312722 0.837454 0.777513 0.070663
C32   C     C_R   0.946765 0.287982 0.099921 0.608476
C33   C     C_R   0.320251 0.301437 0.119394 0.575508
C34   C     C_R   0.944996 0.375134 0.321069 0.406691
C35   C     C_R   0.298564 0.880823 0.080793 0.532972
C36   C     C_R   0.943699 0.273369 0.854575 0.527467
C37   C     C_R   0.310587 0.291802 0.892873 0.568574
C38   C     C_R   0.279127 0.884489 0.857412 0.542731
C39   C     C_R   0.416022 0.379609 0.598605 0.573901
C40   C     C_R   0.777791 0.378436 0.628969 0.546145
C41   C     C_1   0.347123 0.338720 0.273464 0.045440
C42   C     C_1   0.335214 0.329455 0.202568 0.043241
C43   C     C_R   0.906221 0.304276 0.180247 -0.041267
C44   C     C_R   0.966486 0.368355 0.242130 0.328656
C45   C     C_R   0.760536 0.176422 0.142486 0.387428
C46   C     C_R   0.722699 0.081026 0.163451 0.443184
C47   C     C_R   0.748141 0.049495 0.242041 0.396938
C48   C     C_R   0.821797 0.103244 0.299197 0.174379
Cr1   Cr    Cr6+3 0.608100 0.610860 0.522250 1.193914
Cr2   Cr    Cr6+3 0.288890 0.599990 0.488420 1.226715
Cr3   Cr    Cr6+3 0.603040 0.289190 0.489390 1.189257
Cr4   Cr    Cr6+3 0.053960 0.052250 0.967380 1.228021
Cr5   Cr    Cr6+3 0.059890 0.373160 0.992710 1.178196
Cr6   Cr    Cr6+3 0.373370 0.061690 0.991710 1.164491
F1    F     F_    0.990814 0.450394 0.379204 -0.512085
F2    F     F_    0.669546 0.011644 0.106133 -0.529006
F3    F     F_    0.691489 0.975673 0.264529 -0.577052
F4    F     F_    0.144010 0.753477 0.126733 -0.559541
F5    F     F_    0.863428 0.706739 0.321163 -0.451795
F6    F     F_    0.643709 0.768647 0.396587 -0.507235
F7    F     F_    0.195921 0.598264 0.685606 -0.544342
F8    F     F_    0.841486 0.953803 0.874020 -0.500550
F9    F     F_    0.912181 0.987433 0.736623 -0.515965
F10   F     F_    0.707078 0.116501 0.627288 -0.521318
F11   F     F_    0.707252 0.225574 0.069362 -0.574355
F12   F     F_    0.042565 0.428702 0.225944 -0.586257
H1    H     H_    0.199262 0.702734 0.270523 0.213444
H2    H     H_    0.593846 0.732655 0.087670 0.182819
O1    O     O_R   0.749810 0.499790 0.438040 -0.414596
O2    O     O_R   0.411730 0.181020 0.091530 -0.429248
O3    O     O_R   0.365010 0.944360 0.063320 -0.500587
O4    O     O_R   0.477660 0.726260 0.439290 -0.401110
O5    O     O_R   0.159380 0.906670 0.876210 -0.406698
O6    O     O_R   0.930820 0.177420 0.886730 -0.462205
O7    O     O_R   0.910360 0.395420 0.895720 -0.473629
O8    O     O_R   0.186010 0.361730 0.919870 -0.481488
O9    O     O_R   0.400000 0.173010 0.914630 -0.458572
O10   O     O_R   0.354140 0.936940 0.899340 -0.490719
O11   O     O_3   0.162410 0.162370 0.983930 -0.363208
O12   O     O_R   0.298970 0.468800 0.557390 -0.402718
O13   O     O_R   0.260150 0.743000 0.412270 -0.465327
O14   O     O_R   0.297740 0.466550 0.394720 -0.460515
O15   O     O_R   0.488080 0.253500 0.386430 -0.468553
O16   O     O_R   0.722670 0.303800 0.421940 -0.501906
O17   O     O_R   0.751130 0.502220 0.613520 -0.468301
O18   O     O_R   0.478890 0.728510 0.601960 -0.485477
O19   O     O_R   0.261470 0.745430 0.587750 -0.423814
O20   O     O_R   0.489400 0.255930 0.561910 -0.401401
O21   O     O_R   0.723890 0.306050 0.584610 -0.445149
O22   O     O_3   0.500010 0.500010 0.500020 -0.399694
O23   O     O_R   0.171100 0.914680 0.053100 -0.424472
O24   O     O_R   0.941680 0.184840 0.050710 -0.417740
O25   O     O_R   0.922080 0.403420 0.072610 -0.449765
O26   O     O_R   0.196880 0.369150 0.083850 -0.442553

loop_
_geom_bond_atom_site_label_1
_geom_bond_atom_site_label_2
_ccdc_geom_bond_type
Cr4   O23   S    
C33   O2    A    
C7    C14   A    
C18   C25   A    
Cr5   O7    S    
C38   O10   A    
Cr3   O21   S    
C37   O8    A    
Cr2   O12   S    
C41   C42   T    
Br4   C48   S    
C24   C25   A    
C15   C17   A    
Cr6   O10   S    
C13   F6    S    
C7    H1    S    
C28   O19   A    
C6    C13   A    
Cr4   O6    S    
C32   C43   S    
Cr4   O24   S    
C30   C31   T    
Cr3   O16   S    
C31   C38   S    
C5    C9    A    
C4    C41   S    
C40   O21   A    
C28   O18   A    
C2    C23   A    
C47   F3    S    
C19   C20   A    
C2    C34   A    
C32   O25   A    
C35   O3    A    
C5    C6    A    
C34   C44   A    
C1    O13   A    
C12   C23   A    
Cr5   O25   S    
C45   F11   S    
C9    C10   A    
C39   O12   A    
Cr5   O8    S    
Br3   C20   S    
Cr3   O22   S    
C12   C43   A    
C33   O26   A    
Cr6   O3    S    
C3    C8    A    
C29   C36   S    
C27   C29   T    
C47   C48   A    
C22   F8    S    
C19   C26   A    
C24   F9    S    
C12   C45   A    
C27   C40   S    
Cr6   O9    S    
Cr2   O14   S    
C1    C14   S    
C21   C22   A    
Cr4   O5    S    
C28   C30   S    
Cr3   O20   S    
C25   F10   S    
C8    F4    S    
C32   O24   A    
C43   C44   A    
C37   O9    A    
Cr5   O11   S    
C46   C47   A    
C36   O7    A    
C35   O23   A    
Cr1   O17   S    
C36   O6    A    
C26   C39   S    
Cr1   O4    S    
C23   C48   A    
Cr6   O2    S    
Cr4   O11   S    
C11   C13   A    
C17   C21   A    
C11   F5    S    
C18   C26   A    
Cr1   O22   S    
Cr1   O1    S    
C44   F12   S    
Cr2   O13   S    
C7    C8    A    
C9    H2    S    
C2    C16   S    
C22   C24   A    
C39   O20   A    
C4    O15   A    
C46   F2    S    
C19   F7    S    
C1    O4    A    
C15   C20   A    
Cr2   O19   S    
Cr6   O11   S    
C6    C14   A    
Cr5   O26   S    
C16   O16   A    
C16   O1    A    
Br2   C21   S    
C4    O14   A    
Cr3   O15   S    
Cr2   O22   S    
C34   F1    S    
C3    C5    A    
C38   O5    A    
C45   C46   A    
Cr1   O18   S    
C3    C35   S    
C10   C11   A    
Br1   C10   S    
C33   C42   S    
C17   C18   A    
C40   O17   A    
C15   C37   S    
