data_mof_unit_59450.cif
_audit_creation_date              2012-10-26T19:41:35-0400
_audit_creation_method            fapswitch 2.2
_symmetry_space_group_name_H-M    P1
_symmetry_Int_Tables_number       1
_space_group_crystal_system       triclinic
_cell_length_a                    17.137942
_cell_length_b                    11.040093
_cell_length_c                    9.869892
_cell_angle_alpha                 111.711778
_cell_angle_beta                  92.413789
_cell_angle_gamma                 92.522714
_cell_volume                      1729.83024755

loop_
_atom_site_label
_atom_site_type_symbol
_atom_type_description
_atom_site_fract_x
_atom_site_fract_y
_atom_site_fract_z
_atom_type_partial_charge
C1    C     C_R   0.494319 0.254136 0.440983 0.552788
C2    C     C_R   0.647848 0.497990 0.478564 0.541580
C3    C     C_R   0.268633 0.515849 0.541424 -0.011230
C4    C     C_R   0.731112 0.511222 0.465331 -0.001167
C5    C     C_R   0.214960 0.427696 0.437192 -0.154832
C6    C     C_R   0.777994 0.409812 0.460568 -0.160072
C7    C     C_R   0.135273 0.440310 0.452662 -0.171148
C8    C     C_R   0.858732 0.427762 0.460209 -0.173195
C9    C     C_R   0.108451 0.542959 0.570734 0.081025
C10   C     C_R   0.892964 0.548087 0.467493 0.079089
C11   C     C_R   0.162211 0.632262 0.675985 0.150716
C12   C     C_R   0.505776 0.745863 0.559001 0.549601
C13   C     C_R   0.845622 0.649875 0.470356 0.151132
C14   C     C_R   0.242353 0.617825 0.660452 -0.142192
C15   C     C_R   0.764455 0.630446 0.469363 -0.133955
C16   C     C_2   0.023444 0.553660 0.582854 0.153314
C17   C     C_2   0.978803 0.565178 0.471482 0.153480
C18   C     C_3   0.988504 0.520643 0.207895 -0.303254
C19   C     C_3   0.009434 0.446000 0.757948 -0.305587
C20   C     C_3   0.121133 0.851905 0.760457 -0.310006
C21   C     C_3   0.900981 0.862088 0.626567 -0.312802
C22   C     C_3   0.356815 0.528189 0.926044 -0.009816
C23   C     C_2   0.491329 0.114131 0.407884 -0.134031
C24   C     C_3   0.277404 0.452622 0.883875 -0.376743
C25   C     C_3   0.643410 0.461927 0.065135 -0.013229
C26   C     C_3   0.721027 0.538587 0.075878 -0.382207
C27   C     C_2   0.508979 0.885864 0.592077 -0.135286
C28   C     C_2   0.501671 0.069719 0.515749 -0.159586
C29   C     C_2   0.498933 0.930285 0.484161 -0.160240
C30   C     C_2   0.512809 0.496042 0.072587 0.353100
C31   C     C_2   0.487828 0.501524 0.926067 0.349390
C32   C     C_R   0.351998 0.505012 0.522156 0.545720
Cu1   Cu    Cu3+1 0.513640 0.521550 0.643210 0.970677
Cu2   Cu    Cu3+1 0.486360 0.478450 0.356790 0.970557
H1    H     H_    0.234782 0.348749 0.344528 0.123465
H2    H     H_    0.480720 0.047053 0.295068 0.098538
H3    H     H_    0.586148 0.600729 0.911733 0.202061
H4    H     H_    0.413633 0.399437 0.088918 0.199422
H5    H     H_    0.069817 0.639647 0.376941 0.249942
H6    H     H_    0.968436 0.586569 0.153541 0.161284
H7    H     H_    0.940073 0.447054 0.198108 0.141487
H8    H     H_    0.038485 0.468207 0.150253 0.121198
H9    H     H_    0.933338 0.579143 0.729748 0.248099
H10   H     H_    0.981166 0.456539 0.860552 0.126672
H11   H     H_    0.073649 0.446976 0.779252 0.160732
H12   H     H_    0.752160 0.317795 0.458653 0.110042
H13   H     H_    0.988000 0.351171 0.671943 0.125768
H14   H     H_    0.170839 0.761993 0.890069 0.238591
H15   H     H_    0.176833 0.896021 0.740191 0.130896
H16   H     H_    0.094281 0.925372 0.853674 0.134790
H17   H     H_    0.080232 0.825301 0.662148 0.162510
H18   H     H_    0.846754 0.815881 0.421189 0.240381
H19   H     H_    0.933225 0.950410 0.623536 0.133117
H20   H     H_    0.939423 0.815913 0.684390 0.165218
H21   H     H_    0.847714 0.892081 0.688032 0.129807
H22   H     H_    0.357251 0.611672 0.889219 0.151450
H23   H     H_    0.727504 0.709323 0.475463 0.110627
H24   H     H_    0.364025 0.570512 0.047562 0.096022
H25   H     H_    0.274087 0.376252 0.931944 0.135370
H26   H     H_    0.230170 0.520078 0.925562 0.097728
H27   H     H_    0.268480 0.404802 0.763292 0.175680
H28   H     H_    0.628103 0.404408 0.946862 0.097890
H29   H     H_    0.651815 0.390665 0.118812 0.164418
H30   H     H_    0.736803 0.603630 0.190458 0.171056
H31   H     H_    0.767987 0.470162 0.036025 0.097388
H32   H     H_    0.716822 0.599368 0.008305 0.135461
H33   H     H_    0.283946 0.688922 0.738209 0.098937
H34   H     H_    0.894855 0.348550 0.456139 0.111427
H35   H     H_    0.094217 0.370406 0.372084 0.116508
H36   H     H_    0.488467 0.863494 0.371113 0.164603
H37   H     H_    0.512254 0.136514 0.628773 0.165166
H38   H     H_    0.519469 0.952932 0.704921 0.099022
N1    N     N_2   0.465840 0.446060 0.141630 -0.342598
N2    N     N_2   0.534160 0.553940 0.858370 -0.342843
N3    N     N_2   0.013495 0.597679 0.358688 -0.505203
N4    N     N_2   0.990118 0.552624 0.713366 -0.502460
N5    N     N_2   0.136025 0.738229 0.794849 -0.492142
N6    N     N_2   0.879416 0.772656 0.478991 -0.494007
O1    O     O_R   0.507280 0.332200 0.576490 -0.467750
O2    O     O_3   0.586242 0.549154 0.136123 -0.542230
O3    O     O_R   0.492720 0.667800 0.423510 -0.471004
O4    O     O_R   0.484240 0.295800 0.334620 -0.503957
O5    O     O_R   0.515760 0.704200 0.665380 -0.505370
O6    O     O_R   0.399260 0.520290 0.634950 -0.458797
O7    O     O_R   0.600740 0.479710 0.365050 -0.457467
O8    O     O_R   0.376220 0.483890 0.393080 -0.510925
O9    O     O_R   0.623780 0.516110 0.606920 -0.508438
O10   O     O_3   0.415846 0.443568 0.859719 -0.539168

loop_
_geom_bond_atom_site_label_1
_geom_bond_atom_site_label_2
_ccdc_geom_bond_type
H3    N2    S    
C18   N3    S    
C27   C29   D    
C25   O2    S    
C24   H27   S    
C20   N5    S    
C19   N4    S    
C9    C16   S    
C20   H17   S    
C18   H8    S    
C25   H29   S    
C30   C31   S    
C11   C14   A    
C19   H13   S    
C10   C17   S    
C2    O7    A    
Cu2   O8    S    
C26   H30   S    
C18   H6    S    
C11   N5    S    
C16   C17   D    
C21   N6    S    
C20   H16   S    
C14   H33   S    
Cu2   O3    S    
C22   O10   S    
C30   O2    S    
C15   H23   S    
H18   N6    S    
C25   C26   S    
C32   O6    A    
C12   C27   S    
C26   H32   S    
C4    C6    A    
C18   H7    S    
C21   H21   S    
C30   N1    D    
Cu1   O1    S    
C31   N2    D    
C6    C8    A    
C1    O4    A    
C12   O5    A    
Cu2   O7    S    
H14   N5    S    
C2    C4    S    
C7    H35   S    
C20   H15   S    
C9    C11   A    
C24   H26   S    
C32   O8    A    
Cu1   Cu2   S    
C2    O9    A    
C23   C28   D    
Cu1   O5    S    
C3    C14   A    
C1    C23   S    
H5    N3    S    
C13   C15   A    
C1    O1    A    
C22   C24   S    
C28   H37   S    
C19   H10   S    
C5    C7    A    
C29   H36   S    
H9    N4    S    
C7    C9    A    
C13   N6    S    
C28   C29   S    
C31   O10   S    
C6    H12   S    
C16   N4    S    
C26   H31   S    
C3    C5    A    
C10   C13   A    
C22   H24   S    
C22   H22   S    
C19   H11   S    
C8    H34   S    
C4    C15   A    
Cu1   O9    S    
C21   H19   S    
C21   H20   S    
C24   H25   S    
C5    H1    S    
C12   O3    A    
C25   H28   S    
C3    C32   S    
Cu1   O6    S    
Cu2   N1    S    
Cu1   N2    S    
C8    C10   A    
C23   H2    S    
C17   N3    S    
Cu2   O4    S    
C27   H38   S    
H4    N1    S    
