data_mof_unit_20933.cif
_audit_creation_date              2012-12-11T16:45:52-0500
_audit_creation_method            fapswitch 2.2
_symmetry_space_group_name_H-M    P1
_symmetry_Int_Tables_number       1
_space_group_crystal_system       triclinic
_cell_length_a                    19.805549
_cell_length_b                    17.162598
_cell_length_c                    15.388677
_cell_angle_alpha                 89.465772
_cell_angle_beta                  53.067434
_cell_angle_gamma                 90.28063
_cell_volume                      4180.69187771

loop_
_atom_site_label
_atom_site_type_symbol
_atom_type_description
_atom_site_fract_x
_atom_site_fract_y
_atom_site_fract_z
_atom_type_partial_charge
Br1   Br    Br    0.844920 0.214823 0.202181 -0.601293
Br2   Br    Br    0.092853 0.200522 0.838705 -0.606906
Br3   Br    Br    0.342925 0.715368 0.203701 -0.580427
Br4   Br    Br    0.583792 0.700890 0.846227 -0.622158
Br5   Br    Br    0.947280 0.568824 0.382212 -0.579150
Br6   Br    Br    0.046116 0.566936 0.625575 -0.622340
Br7   Br    Br    0.445709 0.069006 0.382633 -0.601426
Br8   Br    Br    0.538888 0.068153 0.633171 -0.617601
C1    C     C_R   0.869636 0.691697 0.999786 -0.110028
C2    C     C_R   0.155299 0.313153 0.065073 0.117438
C3    C     C_R   0.349412 0.812143 0.928350 0.108134
C4    C     C_R   0.706661 0.844907 0.986145 0.109926
C5    C     C_R   0.883415 0.680927 0.304960 0.004878
C6    C     C_R   0.103332 0.689215 0.702267 0.007439
C7    C     C_R   0.386914 0.185312 0.300206 0.022212
C8    C     C_R   0.602802 0.189048 0.702509 0.004510
C9    C     C_R   0.763613 0.674213 0.492901 0.198668
C10   C     C_R   0.126355 0.733144 0.532296 0.223830
C11   C     C_R   0.327578 0.221649 0.484305 0.215927
C12   C     C_R   0.159551 0.673932 0.953728 -0.105408
C13   C     C_R   0.628993 0.230984 0.530449 0.227745
C14   C     C_R   0.827646 0.719171 0.404633 0.061732
C15   C     C_R   0.119302 0.751600 0.625922 0.022041
C16   C     C_R   0.327417 0.228574 0.394712 0.016223
C17   C     C_R   0.619296 0.250924 0.625379 0.026372
C18   C     C_R   0.255607 0.257226 0.406616 -0.193132
C19   C     C_R   0.656584 0.320525 0.625984 -0.186953
C20   C     C_R   0.828780 0.799916 0.410693 -0.183234
C21   C     C_R   0.157940 0.820414 0.625821 -0.186020
C22   C     C_R   0.188417 0.285024 0.505644 -0.179590
C23   C     C_R   0.342190 0.174054 0.042841 -0.108682
C24   C     C_R   0.717223 0.358509 0.528860 -0.193399
C25   C     C_R   0.761524 0.835361 0.503192 -0.191994
C26   C     C_R   0.217896 0.858533 0.528602 -0.177463
C27   C     C_R   0.193069 0.283400 0.592267 0.067452
C28   C     C_R   0.738336 0.329637 0.430338 0.041322
C29   C     C_R   0.693086 0.789590 0.587258 0.020684
C30   C     C_R   0.237241 0.830573 0.430597 0.040444
C31   C     C_R   0.696850 0.709092 0.583661 0.226429
C32   C     C_R   0.185821 0.772683 0.434507 0.236940
C33   C     C_R   0.261043 0.249252 0.582253 0.221140
C34   C     C_R   0.658120 0.175450 0.955957 -0.103622
C35   C     C_R   0.688529 0.270709 0.433164 0.244800
C36   C     C_3   0.634694 0.652170 0.594218 -0.432858
C37   C     C_3   0.124552 0.786652 0.410250 -0.516217
C38   C     C_3   0.316814 0.283447 0.607611 -0.539788
C39   C     C_3   0.628728 0.282562 0.406062 -0.525734
C40   C     C_R   0.855831 0.322430 0.224588 0.315840
C41   C     C_R   0.112501 0.306163 0.786879 0.298865
C42   C     C_R   0.355051 0.822986 0.224678 0.320107
C43   C     C_R   0.607850 0.805005 0.787075 0.278455
C44   C     C_3   0.708889 0.612779 0.494796 -0.552404
C45   C     C_R   0.813990 0.357227 0.326552 -0.031329
C46   C     C_3   0.059255 0.746657 0.516754 -0.423922
C47   C     C_3   0.390514 0.253858 0.498605 -0.455899
C48   C     C_3   0.563473 0.241607 0.511588 -0.456325
C49   C     C_2   0.780442 0.188886 0.963357 -0.165983
C50   C     C_2   0.220394 0.187276 0.034953 -0.174817
C51   C     C_2   0.284240 0.685616 0.957322 -0.167574
C52   C     C_2   0.797515 0.733054 0.919139 -0.174551
C53   C     C_2   0.310011 0.754278 0.903367 -0.182473
C54   C     C_2   0.777363 0.803016 0.966373 -0.187121
C55   C     C_2   0.808255 0.255805 0.905819 -0.176303
C56   C     C_R   0.136479 0.326956 0.686149 -0.030029
C57   C     C_2   0.195831 0.255250 0.088053 -0.178960
C58   C     C_R   0.864940 0.390316 0.896982 -0.123021
C59   C     C_R   0.136187 0.389181 0.101304 -0.132661
C60   C     C_R   0.365751 0.889502 0.896095 -0.134589
C61   C     C_R   0.665671 0.906145 0.057415 -0.121133
C62   C     C_R   0.908717 0.606769 0.301514 0.288912
C63   C     C_R   0.086640 0.610747 0.700680 0.307771
C64   C     C_R   0.408129 0.108878 0.301612 0.285916
C65   C     C_R   0.585514 0.110706 0.701499 0.304958
C66   C     C_R   0.879258 0.299124 0.987327 -0.053750
C67   C     C_R   0.312911 0.858106 0.326436 -0.038466
C68   C     C_R   0.125708 0.300415 0.005758 -0.081658
C69   C     C_R   0.378883 0.798915 0.987866 -0.049078
C70   C     C_R   0.658312 0.820793 0.954713 -0.074161
C71   C     C_R   0.892213 0.696036 0.210651 -0.197660
C72   C     C_R   0.098704 0.699299 0.794575 -0.192771
C73   C     C_R   0.398600 0.197902 0.204494 -0.205075
C74   C     C_R   0.598775 0.199246 0.794393 -0.187798
C75   C     C_R   0.861217 0.421103 0.315014 -0.151313
C76   C     C_R   0.110476 0.401266 0.687982 -0.153049
C77   C     C_R   0.360488 0.921776 0.314741 -0.141929
C78   C     C_R   0.629211 0.825771 0.686279 -0.010290
C79   C     C_R   0.605107 0.900795 0.690137 -0.155471
C80   C     C_R   0.860215 0.601189 0.903146 -0.102583
C81   C     C_R   0.169521 0.581489 0.049840 -0.091012
C82   C     C_R   0.331580 0.082231 0.947837 -0.091572
C83   C     C_R   0.666222 0.085850 0.056323 -0.098718
C84   C     C_R   0.839331 0.676890 0.941384 0.136152
C85   C     C_R   0.210619 0.645469 0.979756 0.114829
C86   C     C_R   0.291812 0.146156 0.015586 0.117776
C87   C     C_R   0.707458 0.148889 0.985304 0.115862
C88   C     C_R   0.849027 0.313006 0.928793 0.107590
H1    H     H_    0.874011 0.746392 0.030195 0.091526
H2    H     H_    0.111851 0.849510 0.408606 0.199291
H3    H     H_    0.314152 0.348131 0.611899 0.203181
H4    H     H_    0.614480 0.344968 0.404551 0.200013
H5    H     H_    0.591003 0.679611 0.580476 0.197923
H6    H     H_    0.140532 0.753394 0.338610 0.239375
H7    H     H_    0.308783 0.253269 0.677594 0.227639
H8    H     H_    0.646856 0.249103 0.333575 0.240033
H9    H     H_    0.721384 0.553923 0.512578 0.211843
H10   H     H_    0.008975 0.786370 0.578277 0.193734
H11   H     H_    0.430982 0.301005 0.438809 0.201302
H12   H     H_    0.168977 0.724807 0.905749 0.097437
H13   H     H_    0.510981 0.279920 0.572442 0.202409
H14   H     H_    0.708020 0.616312 0.423260 0.206802
H15   H     H_    0.035105 0.691784 0.506222 0.261732
H16   H     H_    0.424919 0.207025 0.506301 0.243016
H17   H     H_    0.542941 0.185360 0.498937 0.255495
H18   H     H_    0.801035 0.169438 0.011090 0.158161
H19   H     H_    0.198526 0.167516 0.989064 0.148509
H20   H     H_    0.306137 0.665274 0.003236 0.159695
H21   H     H_    0.773739 0.711832 0.876088 0.147926
H22   H     H_    0.858849 0.418571 0.838913 0.126117
H23   H     H_    0.334002 0.225117 0.088273 0.092463
H24   H     H_    0.141400 0.415087 0.160883 0.126174
H25   H     H_    0.360887 0.917030 0.836572 0.131106
H26   H     H_    0.682626 0.932642 0.105193 0.113101
H27   H     H_    0.894907 0.242973 0.001667 0.180421
H28   H     H_    0.116937 0.245049 0.982247 0.165341
H29   H     H_    0.393836 0.742836 0.003249 0.183108
H30   H     H_    0.669832 0.773637 0.902758 0.149880
H31   H     H_    0.881753 0.750527 0.184823 0.126635
H32   H     H_    0.094749 0.754152 0.831109 0.113581
H33   H     H_    0.394791 0.252914 0.172904 0.123530
H34   H     H_    0.667342 0.226171 0.907845 0.096842
H35   H     H_    0.595460 0.254128 0.830443 0.113933
H36   H     H_    0.847680 0.460949 0.376746 0.154122
H37   H     H_    0.116470 0.431978 0.622403 0.185015
H38   H     H_    0.346464 0.962120 0.376218 0.161380
H39   H     H_    0.610107 0.932718 0.625986 0.184213
H40   H     H_    0.853451 0.574599 0.845262 0.141306
H41   H     H_    0.190234 0.547777 0.089348 0.119791
H42   H     H_    0.311014 0.049335 0.907859 0.119779
H43   H     H_    0.683653 0.057871 0.103070 0.120810
H44   H     H_    0.250713 0.257530 0.340203 0.141533
H45   H     H_    0.134996 0.310317 0.513494 0.153728
H46   H     H_    0.648371 0.340410 0.698142 0.139053
H47   H     H_    0.879035 0.834986 0.343020 0.146759
H48   H     H_    0.151533 0.839369 0.697136 0.140168
H49   H     H_    0.289427 0.774006 0.855735 0.132592
H50   H     H_    0.802930 0.824913 0.006961 0.131905
H51   H     H_    0.788471 0.274824 0.857022 0.131430
H52   H     H_    0.216005 0.273973 0.136269 0.128064
H53   H     H_    0.751213 0.406432 0.531889 0.146543
H54   H     H_    0.762553 0.898216 0.508323 0.153573
H55   H     H_    0.253015 0.905657 0.530974 0.154982
H56   H     H_    0.603463 0.614915 0.668602 0.237942
N1    N     N_R   0.908660 0.628630 0.995840 -0.049894
N2    N     N_R   0.096530 0.421430 0.063580 -0.047517
N3    N     N_R   0.403470 0.921430 0.936420 -0.048289
N4    N     N_R   0.596530 0.921430 0.063580 -0.043323
N5    N     N_R   0.927500 0.575670 0.211370 -0.073000
N6    N     N_R   0.072500 0.575670 0.788630 -0.066923
N7    N     N_R   0.427500 0.075670 0.211370 -0.070537
N8    N     N_R   0.572500 0.075670 0.788630 -0.067737
N9    N     N_R   0.908660 0.365680 0.995820 -0.057491
N10   N     N_R   0.091340 0.365680 0.004180 -0.052785
N11   N     N_R   0.408660 0.865680 0.995820 -0.057857
N12   N     N_R   0.091340 0.628630 0.004160 -0.048903
N13   N     N_R   0.591340 0.865680 0.004180 -0.044341
N14   N     N_R   0.922310 0.631420 0.151980 -0.056949
N15   N     N_R   0.077690 0.631420 0.848020 -0.058091
N16   N     N_R   0.422310 0.131420 0.151980 -0.058093
N17   N     N_R   0.577690 0.131420 0.848020 -0.059005
N18   N     N_R   0.927500 0.426330 0.211360 -0.051468
N19   N     N_R   0.072500 0.426330 0.788640 -0.054017
N20   N     N_R   0.427500 0.926330 0.211360 -0.052735
N21   N     N_R   0.572500 0.926330 0.788640 -0.055420
N22   N     N_R   0.903470 0.570760 0.936440 -0.046228
N23   N     N_R   0.408660 0.128630 0.995840 -0.049465
N24   N     N_R   0.096530 0.570760 0.063560 -0.040435
N25   N     N_R   0.403470 0.070760 0.936440 -0.039421
N26   N     N_R   0.596530 0.070760 0.063560 -0.040481
N27   N     N_R   0.591340 0.128630 0.004160 -0.048993
N28   N     N_R   0.922310 0.368460 0.151950 -0.071314
N29   N     N_R   0.077690 0.368460 0.848050 -0.077136
N30   N     N_R   0.422310 0.868460 0.151950 -0.070954
N31   N     N_R   0.577690 0.868460 0.848050 -0.076238
N32   N     N_R   0.903470 0.421430 0.936420 -0.047508
Ni1   Ni    Ni4+2 0.000000 0.630300 0.000000 0.202472
Ni2   Ni    Ni4+2 0.500000 0.130300 0.000000 0.204404
Ni3   Ni    Ni4+2 0.000000 0.369700 0.000000 0.263546
Ni4   Ni    Ni4+2 0.500000 0.869700 0.000000 0.276875
Ni5   Ni    Ni4+2 0.988090 0.497570 0.863760 0.248111
Ni6   Ni    Ni4+2 0.011910 0.497570 0.136240 0.261663
Ni7   Ni    Ni4+2 0.488090 0.997570 0.863760 0.253630
Ni8   Ni    Ni4+2 0.511910 0.997570 0.136240 0.269434

loop_
_geom_bond_atom_site_label_1
_geom_bond_atom_site_label_2
_ccdc_geom_bond_type
C69   N11   A    
C12   C85   A    
C5    C71   A    
N25   Ni7   S    
C47   H16   S    
N14   Ni1   S    
C6    C63   A    
C68   N10   A    
C8    C65   A    
C38   H3    S    
C76   N19   A    
N26   N27   A    
N29   Ni3   S    
N8    N17   A    
N23   N25   A    
N27   Ni2   S    
C23   N23   A    
C2    C59   A    
N20   Ni8   S    
C7    C64   A    
C65   N8    A    
N19   Ni5   S    
C36   H56   S    
C22   H45   S    
C22   C27   A    
C59   N2    A    
C24   C28   A    
N28   Ni3   S    
C16   C18   A    
N17   Ni2   S    
C18   H44   S    
C25   H54   S    
N10   Ni3   S    
C54   H50   S    
C5    C62   A    
C12   N12   A    
C83   N26   A    
C19   H46   S    
C80   N22   A    
N7    N16   A    
C1    C84   A    
C52   C54   D    
C9    C31   A    
C53   H49   S    
N5    Ni6   S    
C56   C76   A    
C13   C17   A    
C28   C45   S    
C3    C69   A    
C13   C35   A    
C2    C68   A    
C67   C77   A    
C43   C78   A    
C24   H53   S    
C80   C84   A    
C51   H20   S    
C4    C70   A    
C38   C47   S    
C46   H15   S    
C33   C38   S    
C82   C86   A    
C27   C56   S    
C6    C72   A    
C59   H24   S    
C72   N15   A    
C77   H38   S    
C36   C44   S    
C66   H27   S    
N2    Ni6   S    
C82   N25   A    
C1    N1    A    
C41   C56   A    
C14   C20   A    
C42   N30   A    
C9    C44   S    
C55   H51   S    
C82   H42   S    
Br3   C42   S    
N2    N10   A    
N6    N15   A    
C49   C55   D    
C30   C67   S    
C52   C84   S    
C40   C45   A    
C79   N21   A    
C76   H37   S    
C51   C53   D    
C61   N4    A    
N16   Ni2   S    
C46   H10   S    
Br4   C43   S    
C34   C87   A    
C77   N20   A    
C79   H39   S    
C29   C78   S    
C80   H40   S    
C7    C73   A    
N12   Ni1   S    
N6    Ni5   S    
Br7   C64   S    
C78   C79   A    
C72   H32   S    
N3    N11   A    
C21   H48   S    
N1    N22   A    
N21   Ni7   S    
C25   C29   A    
C39   H4    S    
C10   C15   A    
N18   N28   A    
N11   Ni4   S    
C68   H28   S    
C6    C15   S    
C60   H25   S    
Br5   C62   S    
Br2   C41   S    
C66   C88   A    
C13   C48   S    
C4    C54   S    
N13   Ni4   S    
C50   C57   D    
N24   Ni6   S    
C44   H14   S    
C34   N27   A    
C48   H17   S    
C8    C74   A    
C52   H21   S    
C34   H34   S    
C20   H47   S    
N30   Ni4   S    
C57   H52   S    
C64   N7    A    
C23   H23   S    
C31   C36   S    
C60   N3    A    
N3    Ni7   S    
C41   N29   A    
N4    Ni8   S    
C26   H55   S    
C7    C16   S    
C4    C61   A    
C20   C25   A    
C18   C22   A    
C81   H41   S    
C49   C87   S    
C73   H33   S    
C83   H43   S    
C70   H30   S    
C15   C21   A    
C48   H13   S    
C40   N28   A    
C69   H29   S    
C3    C60   A    
C58   C88   A    
C44   H9    S    
C2    C57   S    
C11   C47   S    
C8    C17   S    
C55   C88   S    
C63   N6    A    
C58   N32   A    
C70   N13   A    
C1    H1    S    
C39   H8    S    
C19   C24   A    
C26   C30   A    
N7    Ni8   S    
N19   N29   A    
N8    Ni7   S    
Br6   C63   S    
C3    C53   S    
N5    N14   A    
C37   C46   S    
C66   N9    A    
C36   H5    S    
Br1   C40   S    
C49   H18   S    
C75   N18   A    
C17   C19   A    
C23   C86   A    
C38   H7    S    
N18   Ni6   S    
C43   N31   A    
C9    C14   A    
C45   C75   A    
C37   H2    S    
C62   N5    A    
N9    N32   A    
C11   C16   A    
C50   C86   S    
C71   H31   S    
C75   H36   S    
N9    Ni3   S    
N31   Ni4   S    
N23   Ni2   S    
C30   C32   A    
C50   H19   S    
N1    Ni1   S    
C61   H26   S    
C21   C26   A    
Br8   C65   S    
C73   N16   A    
C5    C14   S    
N12   N24   A    
N26   Ni8   S    
C71   N14   A    
C81   C85   A    
C27   C33   A    
N4    N13   A    
C74   N17   A    
C37   H6    S    
C10   C46   S    
N22   Ni5   S    
C83   C87   A    
N20   N30   A    
C10   C32   A    
C32   C37   S    
N21   N31   A    
C29   C31   A    
C58   H22   S    
C47   H11   S    
N32   Ni5   S    
C28   C35   A    
C51   C85   S    
C81   N24   A    
C74   H35   S    
C42   C67   A    
C35   C39   S    
C11   C33   A    
C39   C48   S    
C12   H12   S    
N15   Ni1   S    
