data_mof_unit_49436.cif
_audit_creation_date              2012-10-26T18:43:32-0400
_audit_creation_method            fapswitch 2.2
_symmetry_space_group_name_H-M    P1
_symmetry_Int_Tables_number       1
_space_group_crystal_system       triclinic
_cell_length_a                    10.786261
_cell_length_b                    10.841621
_cell_length_c                    9.598021
_cell_angle_alpha                 91.16897
_cell_angle_beta                  92.220985
_cell_angle_gamma                 92.025898
_cell_volume                      1120.58731416

loop_
_atom_site_label
_atom_site_type_symbol
_atom_type_description
_atom_site_fract_x
_atom_site_fract_y
_atom_site_fract_z
_atom_type_partial_charge
C1    C     C_R   0.496323 0.262467 0.498657 0.532720
C2    C     C_R   0.471966 0.938975 0.621891 0.019538
C3    C     C_3   0.550416 0.940615 0.753079 -0.274606
C4    C     C_R   0.259798 0.494026 0.496909 0.537605
C5    C     C_3   0.548075 0.080032 0.752679 -0.265100
C6    C     C_R   0.533788 0.603832 0.079179 0.111532
C7    C     C_R   0.447624 0.403616 0.067610 0.315025
C8    C     C_R   0.450474 0.403364 0.919960 0.040935
C9    C     C_R   0.535280 0.604336 0.932553 0.150346
C10   C     C_3   0.657787 0.677428 0.946642 -0.152909
C11   C     C_3   0.650642 0.676797 0.103850 -0.236457
C12   C     C_3   0.877607 0.490970 0.500550 0.065556
C13   C     C_R   0.497072 0.737633 0.500513 0.570317
C14   C     C_R   0.739719 0.495930 0.501550 0.590721
C15   C     C_3   0.074856 0.433092 0.628241 -0.256537
C16   C     C_3   0.934647 0.445937 0.640027 -0.248894
C17   C     C_3   0.076658 0.624982 0.484054 -0.205692
C18   C     C_3   0.060925 0.411615 0.364173 -0.103705
C19   C     C_3   0.121323 0.491147 0.490814 0.027212
C20   C     C_3   0.770150 0.612649 0.896040 -0.399637
C21   C     C_3   0.085899 0.460891 0.216640 -0.420984
C22   C     C_3   0.872853 0.265161 0.398578 -0.422663
C23   C     C_3   0.932809 0.623043 0.470345 0.096344
C24   C     C_3   0.916995 0.400734 0.380528 -0.126569
C25   C     C_R   0.471050 0.066068 0.620543 0.019854
C26   C     C_R   0.481752 0.129087 0.496104 0.003827
C27   C     C_R   0.474177 0.061120 0.369730 -0.162814
C28   C     C_R   0.474169 0.932377 0.371042 -0.161255
C29   C     C_R   0.482876 0.870563 0.498731 0.013051
Cu1   Cu    Cu3+1 0.499990 0.499980 0.640670 0.929309
Cu2   Cu    Cu3+1 0.500010 0.500020 0.359330 0.934933
H1    H     H_    0.121075 0.478686 0.722444 0.141514
H2    H     H_    0.640650 0.125308 0.737795 0.139786
H3    H     H_    0.097670 0.333824 0.630754 0.117334
H4    H     H_    0.409856 0.325397 0.860424 0.138750
H5    H     H_    0.652955 0.772131 0.908405 0.124385
H6    H     H_    0.723675 0.624256 0.158925 0.155229
H7    H     H_    0.635009 0.769392 0.150198 0.116774
H8    H     H_    0.890215 0.357084 0.670921 0.120079
H9    H     H_    0.920652 0.512831 0.725007 0.115782
H10   H     H_    0.111710 0.677142 0.579490 0.122008
H11   H     H_    0.101137 0.318439 0.368190 0.141222
H12   H     H_    0.869397 0.429248 0.281834 0.149897
H13   H     H_    0.347111 0.335631 0.208566 0.358184
H14   H     H_    0.760228 0.510831 0.905892 0.154422
H15   H     H_    0.779300 0.638670 0.786849 0.187893
H16   H     H_    0.855566 0.647200 0.954840 0.102068
H17   H     H_    0.924123 0.714590 0.648040 0.314211
H18   H     H_    0.049423 0.554275 0.202153 0.115424
H19   H     H_    0.184380 0.463228 0.190795 0.171819
H20   H     H_    0.038189 0.398338 0.136833 0.121003
H21   H     H_    0.923459 0.222123 0.486778 0.134070
H22   H     H_    0.771770 0.258379 0.416095 0.151964
H23   H     H_    0.116674 0.674043 0.394663 0.111422
H24   H     H_    0.890062 0.210878 0.302274 0.134944
H25   H     H_    0.906387 0.644786 0.360575 0.148467
H26   H     H_    0.475074 0.106725 0.270491 0.178787
H27   H     H_    0.473874 0.882358 0.272267 0.131047
H28   H     H_    0.499506 0.900069 0.840680 0.131893
H29   H     H_    0.644426 0.905832 0.735524 0.148146
H30   H     H_    0.495476 0.118950 0.839547 0.147315
N1    N     N_R   0.500800 0.500930 0.147930 -0.242904
N2    N     N_R   0.500800 0.500890 0.852020 -0.267038
O1    O     O_R   0.500000 0.319640 0.618810 -0.519060
O2    O     O_3   0.882844 0.715716 0.554105 -0.723838
O3    O     O_R   0.500010 0.319680 0.381230 -0.497723
O4    O     O_R   0.317690 0.499960 0.618790 -0.512208
O5    O     O_R   0.317700 0.500000 0.381210 -0.531731
O6    O     O_R   0.499990 0.680320 0.618770 -0.487884
O7    O     O_R   0.500000 0.680360 0.381190 -0.506898
O8    O     O_R   0.682300 0.500000 0.618790 -0.498326
O9    O     O_R   0.682310 0.500040 0.381210 -0.518802
O10   O     O_3   0.388247 0.304456 0.125778 -0.740434

loop_
_geom_bond_atom_site_label_1
_geom_bond_atom_site_label_2
_ccdc_geom_bond_type
C11   H7    S    
C7    N1    A    
C22   H24   S    
C10   C20   S    
Cu1   O1    S    
H17   O2    S    
C22   H22   S    
C18   C21   S    
C9    C10   S    
C12   C24   S    
C15   H3    S    
C8    N2    A    
Cu1   O4    S    
C12   C23   S    
C6    C11   S    
Cu1   Cu2   S    
C3    H29   S    
C23   O2    S    
C6    C9    A    
C21   H18   S    
Cu1   O8    S    
C5    H30   S    
C15   H1    S    
C7    O10   S    
Cu1   N2    S    
C15   C19   S    
C4    C19   S    
Cu2   N1    S    
C6    N1    A    
C26   C27   A    
C17   C23   S    
C12   C16   S    
C13   O6    A    
C16   H9    S    
C2    C29   A    
C18   C24   S    
C22   C24   S    
C13   C29   S    
C28   C29   A    
C17   C19   S    
C12   C14   S    
C2    C3    S    
C2    C25   A    
C28   H27   S    
C5    H2    S    
C18   H11   S    
C27   H26   S    
H13   O10   S    
C5    C25   S    
C1    C26   S    
C20   H16   S    
C7    C8    A    
C10   C11   S    
C16   H8    S    
C15   C16   S    
C1    O1    A    
C13   O7    A    
C21   H20   S    
Cu1   O6    S    
C8    H4    S    
Cu2   O5    S    
C22   H21   S    
C18   C19   S    
C14   O8    A    
C23   H25   S    
C27   C28   A    
C4    O5    A    
C24   H12   S    
Cu2   O9    S    
C10   H5    S    
C21   H19   S    
C17   H10   S    
C25   C26   A    
C9    N2    A    
Cu2   O3    S    
C14   O9    A    
C17   H23   S    
C11   H6    S    
Cu2   O7    S    
C20   H15   S    
C20   H14   S    
C3    H28   S    
C3    C5    S    
C4    O4    A    
C1    O3    A    
