data_mof_unit_46199.cif
_audit_creation_date              2012-12-10T17:27:08-0500
_audit_creation_method            fapswitch 2.2
_symmetry_space_group_name_H-M    P1
_symmetry_Int_Tables_number       1
_space_group_crystal_system       triclinic
_cell_length_a                    17.906581
_cell_length_b                    18.457721
_cell_length_c                    12.151612
_cell_angle_alpha                 89.999045
_cell_angle_beta                  85.42654
_cell_angle_gamma                 90.000957
_cell_volume                      4003.49792953

loop_
_atom_site_label
_atom_site_type_symbol
_atom_type_description
_atom_site_fract_x
_atom_site_fract_y
_atom_site_fract_z
_atom_type_partial_charge
Br1   Br    Br    0.640570 0.994558 0.191286 -0.570103
Br2   Br    Br    0.359430 0.994549 0.808713 -0.569981
Br3   Br    Br    0.140570 0.505448 0.191286 -0.569980
Br4   Br    Br    0.859429 0.505442 0.808716 -0.570102
C1    C     C_R   0.400906 0.100931 0.521630 0.882781
C2    C     C_R   0.535646 0.998088 0.020188 -0.022613
C3    C     C_R   0.964354 0.501911 0.979813 -0.022617
C4    C     C_R   0.035646 0.501914 0.020188 -0.022635
C5    C     C_R   0.589685 0.001304 0.829849 0.194612
C6    C     C_R   0.410315 0.001297 0.170150 0.194658
C7    C     C_R   0.089685 0.498700 0.829850 0.194655
C8    C     C_R   0.910315 0.498697 0.170152 0.194617
C9    C     C_R   0.597794 0.998498 0.943634 -0.285671
C10   C     C_R   0.402206 0.998487 0.056365 -0.285649
C11   C     C_R   0.097793 0.501511 0.943635 -0.285650
C12   C     C_R   0.599671 0.899637 0.478452 0.891595
C13   C     C_R   0.902206 0.501504 0.056366 -0.285660
C14   C     C_R   0.457025 0.997898 0.863856 0.335052
C15   C     C_R   0.542975 0.997903 0.136144 0.335053
C16   C     C_R   0.957025 0.502097 0.863857 0.335054
C17   C     C_R   0.042974 0.502100 0.136144 0.335053
C18   C     C_R   0.655471 0.156062 0.464347 -0.057784
C19   C     C_R   0.345136 0.843413 0.534131 -0.048861
C20   C     C_R   0.344531 0.156064 0.535646 -0.057828
C21   C     C_R   0.654871 0.843419 0.465875 -0.048929
C22   C     C_R   0.154864 0.656587 0.465869 -0.048859
C23   C     C_R   0.599094 0.100931 0.478368 0.882776
C24   C     C_R   0.844526 0.343941 0.535648 -0.057803
C25   C     C_R   0.845131 0.656582 0.534125 -0.048925
C26   C     C_R   0.155465 0.343933 0.464355 -0.057831
C27   C     C_R   0.281563 0.749758 0.642362 -0.219338
C28   C     C_R   0.765015 0.205006 0.363052 -0.228992
C29   C     C_R   0.718586 0.749891 0.357531 -0.219348
C30   C     C_R   0.235030 0.205050 0.636992 -0.228992
C31   C     C_R   0.734980 0.295000 0.636938 -0.229037
C32   C     C_R   0.218437 0.750242 0.357638 -0.219335
C33   C     C_R   0.264962 0.294943 0.363012 -0.229031
C34   C     C_R   0.400329 0.899637 0.521550 0.891588
C35   C     C_R   0.781416 0.750111 0.642469 -0.219345
C36   C     C_R   0.332408 0.806238 0.634337 -0.162778
C37   C     C_R   0.704704 0.157844 0.368935 -0.185970
C38   C     C_R   0.667713 0.806346 0.365584 -0.162742
C39   C     C_R   0.295335 0.157884 0.631098 -0.185936
C40   C     C_R   0.795292 0.342160 0.631059 -0.185971
C41   C     C_R   0.167591 0.693762 0.365663 -0.162780
C42   C     C_R   0.204659 0.342112 0.368904 -0.185933
C43   C     C_R   0.832289 0.693656 0.634416 -0.162745
C44   C     C_R   0.306385 0.825405 0.442768 -0.279544
C45   C     C_R   0.900329 0.600363 0.521548 0.891596
C46   C     C_R   0.663640 0.203627 0.551428 -0.277929
C47   C     C_R   0.693528 0.825327 0.557310 -0.279594
C48   C     C_R   0.336328 0.203596 0.448535 -0.277926
C49   C     C_R   0.836355 0.296379 0.448562 -0.277956
C50   C     C_R   0.193614 0.674595 0.557233 -0.279543
C51   C     C_R   0.163664 0.296398 0.551468 -0.277958
C52   C     C_R   0.806474 0.674675 0.442690 -0.279590
C53   C     C_R   0.256168 0.769098 0.449770 0.184543
C54   C     C_R   0.724299 0.249861 0.547323 0.185534
C55   C     C_R   0.743773 0.769045 0.550277 0.184536
C56   C     C_R   0.099093 0.399069 0.478370 0.882792
C57   C     C_R   0.275675 0.249835 0.452653 0.185536
C58   C     C_R   0.775696 0.250146 0.452667 0.185550
C59   C     C_R   0.243832 0.730902 0.550230 0.184541
C60   C     C_R   0.224317 0.250159 0.547351 0.185558
C61   C     C_R   0.756229 0.730957 0.449723 0.184535
C62   C     C_3   0.337817 0.004699 0.243262 -0.386261
C63   C     C_3   0.296353 0.076553 0.228842 -0.364783
C64   C     C_3   0.226096 0.081766 0.308356 -0.843193
C65   C     C_3   0.662183 0.004719 0.756736 -0.386235
C66   C     C_3   0.703616 0.076597 0.771126 -0.364674
C67   C     C_R   0.099671 0.600363 0.478450 0.891589
C68   C     C_3   0.773889 0.081812 0.691640 -0.843064
C69   C     C_3   0.837817 0.495292 0.243267 -0.386233
C70   C     C_3   0.796357 0.423431 0.228860 -0.364710
C71   C     C_3   0.726094 0.418223 0.308366 -0.843171
C72   C     C_3   0.162184 0.495301 0.756737 -0.386236
C73   C     C_3   0.203656 0.423448 0.771163 -0.364680
C74   C     C_3   0.273920 0.418250 0.691657 -0.843195
C75   C     C_R   0.900905 0.399071 0.521632 0.882787
C76   C     C_R   0.464354 0.998084 0.979812 -0.022634
H1    H     H_    0.623723 0.203312 0.623430 0.150987
H2    H     H_    0.362359 0.819993 0.705473 0.186937
H3    H     H_    0.301887 0.121295 0.699069 0.206153
H4    H     H_    0.637838 0.820165 0.294389 0.187036
H5    H     H_    0.137640 0.680008 0.294526 0.186935
H6    H     H_    0.801819 0.378775 0.699005 0.206165
H7    H     H_    0.862163 0.679836 0.705611 0.187036
H8    H     H_    0.198109 0.378703 0.300932 0.206155
H9    H     H_    0.696311 0.294561 0.710256 0.149327
H10   H     H_    0.227882 0.779306 0.280257 0.144774
H11   H     H_    0.303600 0.294473 0.289661 0.149318
H12   H     H_    0.315628 0.854584 0.365420 0.155845
H13   H     H_    0.771878 0.779093 0.719921 0.144764
H14   H     H_    0.272117 0.720695 0.719743 0.144773
H15   H     H_    0.803684 0.205446 0.289734 0.149318
H16   H     H_    0.728124 0.720909 0.280079 0.144763
H17   H     H_    0.196391 0.205520 0.710342 0.149308
H18   H     H_    0.653749 0.997410 0.970958 0.198480
H19   H     H_    0.346252 0.997389 0.029041 0.198475
H20   H     H_    0.153748 0.502611 0.970960 0.198476
H21   H     H_    0.846252 0.502598 0.029043 0.198479
H22   H     H_    0.186246 0.037818 0.291311 0.259182
H23   H     H_    0.376213 0.203252 0.376501 0.151037
H24   H     H_    0.240747 0.077313 0.395186 0.268481
H25   H     H_    0.198324 0.134809 0.297628 0.258591
H26   H     H_    0.334083 0.122565 0.243770 0.235025
H27   H     H_    0.279337 0.081492 0.143247 0.224994
H28   H     H_    0.301284 0.958993 0.221466 0.170867
H29   H     H_    0.345763 0.997922 0.330413 0.262872
H30   H     H_    0.813757 0.037888 0.708746 0.259160
H31   H     H_    0.759259 0.077321 0.604798 0.268458
H32   H     H_    0.801635 0.134875 0.702343 0.258576
H33   H     H_    0.665869 0.122588 0.756141 0.235036
H34   H     H_    0.684196 0.854422 0.634733 0.155919
H35   H     H_    0.720611 0.081574 0.856732 0.224963
H36   H     H_    0.698735 0.959032 0.778557 0.170874
H37   H     H_    0.654242 0.997917 0.669587 0.262857
H38   H     H_    0.740748 0.422630 0.395198 0.268491
H39   H     H_    0.686266 0.462198 0.291360 0.259186
H40   H     H_    0.698292 0.365200 0.297590 0.258578
H41   H     H_    0.779344 0.418482 0.143261 0.224984
H42   H     H_    0.834089 0.377422 0.243809 0.235037
H43   H     H_    0.845762 0.502077 0.330416 0.262885
H44   H     H_    0.801280 0.540995 0.221464 0.170864
H45   H     H_    0.184372 0.645416 0.634581 0.155843
H46   H     H_    0.259263 0.422638 0.604820 0.268483
H47   H     H_    0.313736 0.462242 0.708642 0.259176
H48   H     H_    0.301737 0.365239 0.702454 0.258577
H49   H     H_    0.220669 0.418505 0.856768 0.224969
H50   H     H_    0.165929 0.377429 0.756222 0.234994
H51   H     H_    0.154239 0.502075 0.669585 0.262867
H52   H     H_    0.198714 0.541012 0.778533 0.170848
H53   H     H_    0.876269 0.296697 0.376556 0.151012
H54   H     H_    0.815805 0.645580 0.365266 0.155916
H55   H     H_    0.123777 0.296741 0.623502 0.151034
H56   H     H_    0.698179 0.121228 0.300990 0.206161
N1    N     N_R   0.480750 0.000000 0.209750 -0.129850
N2    N     N_R   0.519250 0.000000 0.790250 -0.129856
N3    N     N_R   0.980750 0.500000 0.209750 -0.129860
N4    N     N_R   0.019250 0.500000 0.790250 -0.129852
O1    O     O_R   0.418020 0.076820 0.422210 -0.640915
O2    O     O_R   0.569630 0.923170 0.391410 -0.576878
O3    O     O_R   0.569630 0.076830 0.391410 -0.580997
O4    O     O_R   0.430370 0.923170 0.608590 -0.576867
O5    O     O_R   0.930370 0.576830 0.608590 -0.576879
O6    O     O_R   0.069630 0.423170 0.391410 -0.581014
O7    O     O_R   0.069630 0.576830 0.391410 -0.576869
O8    O     O_R   0.930370 0.423170 0.608590 -0.580996
O9    O     O_R   0.581980 0.923180 0.577790 -0.656958
O10   O     O_R   0.581980 0.076820 0.577790 -0.640908
O11   O     O_R   0.418020 0.923180 0.422210 -0.656928
O12   O     O_R   0.918020 0.576820 0.422210 -0.656962
O13   O     O_R   0.081980 0.423180 0.577790 -0.640922
O14   O     O_R   0.081980 0.576820 0.577790 -0.656926
O15   O     O_R   0.918020 0.423180 0.422210 -0.640914
O16   O     O_R   0.430370 0.076830 0.608590 -0.581016
Zn1   Zn    Zn3+2 0.491750 0.000000 0.375560 0.972594
Zn2   Zn    Zn3+2 0.508250 0.000000 0.624440 0.972576
Zn3   Zn    Zn3+2 0.991750 0.500000 0.375560 0.972576
Zn4   Zn    Zn3+2 0.008250 0.500000 0.624440 0.972593

loop_
_geom_bond_atom_site_label_1
_geom_bond_atom_site_label_2
_ccdc_geom_bond_type
C20   C48   A    
C67   O7    A    
C68   H32   S    
C65   H36   S    
C54   C58   A    
Br2   C14   S    
C39   H3    S    
C69   C70   S    
C12   O2    A    
C11   H20   S    
C74   H48   S    
C29   C61   A    
C10   H19   S    
C48   H23   S    
C25   C45   S    
C73   C74   S    
C2    C15   A    
C25   C43   A    
C31   C54   A    
C29   C38   A    
O11   Zn1   S    
C5    C65   S    
C48   C57   A    
C72   H51   S    
C18   C37   A    
C50   C59   A    
C52   C61   A    
C30   H17   S    
C27   C36   A    
O8    Zn4   S    
C9    H18   S    
C14   N2    A    
C24   C75   S    
C5    C9    A    
C56   O13   A    
C35   H13   S    
C13   H21   S    
C22   C41   A    
C7    C11   A    
C69   H43   S    
C26   C56   S    
C8    C13   A    
C23   O3    A    
C28   C37   A    
O3    Zn1   S    
C12   O9    A    
C64   H22   S    
C6    N1    A    
C10   C76   A    
O9    Zn2   S    
C18   C46   A    
C62   C63   S    
O12   Zn3   S    
N3    Zn3   S    
C8    C69   S    
C22   C67   S    
C71   H38   S    
C56   O6    A    
C40   H6    S    
C74   H47   S    
C22   C50   A    
C53   C59   A    
C42   H8    S    
C6    C62   S    
C66   H33   S    
C50   H45   S    
C68   H30   S    
Br1   C15   S    
C47   H34   S    
C70   C71   S    
C33   H11   S    
O15   Zn3   S    
C63   C64   S    
C46   C54   A    
C36   H2    S    
C44   C53   A    
C49   H53   S    
C72   C73   S    
C32   C53   A    
C6    C10   A    
O5    Zn4   S    
O6    Zn3   S    
C3    C13   A    
C67   O14   A    
C24   C40   A    
C43   H7    S    
C57   C60   A    
C41   H5    S    
C7    N4    A    
C21   C47   A    
O14   Zn4   S    
C45   O5    A    
C27   C59   A    
C5    N2    A    
N2    Zn2   S    
C1    O1    A    
C15   N1    A    
C69   H44   S    
C35   C55   A    
C51   C60   A    
C28   H15   S    
C30   C60   A    
C4    C17   A    
C8    N3    A    
C38   H4    S    
C32   C41   A    
C73   H49   S    
C31   C40   A    
C31   H9    S    
O1    Zn1   S    
C70   H42   S    
C4    C11   A    
C18   C23   S    
C2    C76   A    
Br3   C17   S    
C47   C55   A    
C64   H25   S    
C17   N3    A    
O2    Zn1   S    
O4    Zn2   S    
C1    O16   A    
C29   H16   S    
C34   O11   A    
C35   C43   A    
O7    Zn3   S    
C32   H10   S    
C12   C21   S    
C19   C44   A    
O10   Zn2   S    
C45   O12   A    
C34   O4    A    
C26   C42   A    
C71   H40   S    
C64   H24   S    
C62   H28   S    
C21   C38   A    
C33   C57   A    
C24   C49   A    
C63   H26   S    
C75   O8    A    
C25   C52   A    
C66   H35   S    
C23   O10   A    
C27   H14   S    
C26   C51   A    
C52   H54   S    
C19   C34   S    
N1    Zn1   S    
C7    C72   S    
C16   N4    A    
O13   Zn4   S    
O16   Zn2   S    
C28   C58   A    
C71   H39   S    
C55   C61   A    
C2    C9    A    
C72   H52   S    
C63   H27   S    
C1    C20   S    
C51   H55   S    
C65   H37   S    
C73   H50   S    
C62   H29   S    
C65   C66   S    
C68   H31   S    
C3    C4    A    
C75   O15   A    
Br4   C16   S    
C70   H41   S    
C49   C58   A    
C14   C76   A    
C3    C16   A    
C44   H12   S    
C20   C39   A    
C66   C68   S    
C33   C42   A    
C30   C39   A    
C37   H56   S    
N4    Zn4   S    
C19   C36   A    
C46   H1    S    
C74   H46   S    
