data_mof_unit_24313.cif
_audit_creation_date              2012-12-10T17:20:24-0500
_audit_creation_method            fapswitch 2.2
_symmetry_space_group_name_H-M    P1
_symmetry_Int_Tables_number       1
_space_group_crystal_system       triclinic
_cell_length_a                    11.688321
_cell_length_b                    10.943271
_cell_length_c                    9.712698
_cell_angle_alpha                 88.810861
_cell_angle_beta                  89.611038
_cell_angle_gamma                 96.926804
_cell_volume                      1232.94887537

loop_
_atom_site_label
_atom_site_type_symbol
_atom_type_description
_atom_site_fract_x
_atom_site_fract_y
_atom_site_fract_z
_atom_type_partial_charge
C1    C     C_R   0.502815 0.262797 0.502049 0.823531
C2    C     C_R   0.517258 0.040803 0.883368 -0.174091
C3    C     C_R   0.450638 0.926637 0.878072 -0.247960
C4    C     C_R   0.428707 0.871367 0.751758 -0.103264
C5    C     C_R   0.471900 0.931771 0.629066 -0.038191
C6    C     C_R   0.509322 0.059411 0.633199 -0.122345
C7    C     C_R   0.506381 0.128624 0.507257 -0.280494
C8    C     C_R   0.496594 0.063260 0.383831 0.401838
C9    C     C_R   0.522735 0.943060 0.387526 0.354220
C10   C     C_R   0.490022 0.870287 0.504300 -0.274338
C11   C     C_R   0.642876 0.693633 0.125299 0.615073
C12   C     C_R   0.284492 0.500537 0.501085 0.771030
C13   C     C_R   0.677863 0.799536 0.043251 -0.223543
C14   C     C_R   0.681981 0.790859 0.903056 -0.320593
C15   C     C_R   0.637174 0.682696 0.844310 -0.070722
C16   C     C_R   0.566637 0.591553 0.920384 0.043358
C17   C     C_R   0.568640 0.592877 0.068861 -0.059188
C18   C     C_R   0.426228 0.419066 0.077758 0.498050
C19   C     C_R   0.433788 0.410779 0.929136 0.397051
C20   C     C_R   0.496727 0.736948 0.500247 0.841306
C21   C     C_R   0.715387 0.498623 0.500134 0.814094
C22   C     C_1   0.162598 0.500886 0.505380 -0.214925
C23   C     C_1   0.059776 0.499414 0.506681 -0.014290
C24   C     C_1   0.939647 0.497128 0.504721 -0.021109
C25   C     C_1   0.837018 0.496650 0.501971 -0.224499
C26   C     C_R   0.548943 0.107466 0.761852 0.597533
Cu1   Cu    Cu3+1 0.499990 0.499990 0.640660 0.956933
Cu2   Cu    Cu3+1 0.500010 0.500010 0.359340 1.027897
H1    H     H_    0.726836 0.864953 0.840557 0.158961
H2    H     H_    0.659262 0.674905 0.738753 0.203589
H3    H     H_    0.545662 0.077481 0.981623 0.181782
H4    H     H_    0.423228 0.876212 0.971688 0.154862
H5    H     H_    0.379676 0.781106 0.752071 0.170944
H6    H     H_    0.723622 0.880915 0.086841 0.166811
N1    N     N_R   0.501070 0.501210 0.147910 -0.237315
N2    N     N_R   0.501110 0.501290 0.852040 -0.233684
O1    O     O_R   0.499990 0.319640 0.618810 -0.521298
O2    O     O_R   0.500000 0.319660 0.381240 -0.499916
O3    O     O_R   0.337190 0.500000 0.618790 -0.619213
O4    O     O_R   0.337200 0.500030 0.381210 -0.537811
O5    O     O_R   0.500000 0.680340 0.618760 -0.620389
O6    O     O_R   0.500010 0.680360 0.381190 -0.522285
O7    O     O_R   0.662800 0.499970 0.618790 -0.584488
O8    O     O_R   0.662810 0.500000 0.381210 -0.526391
O9    O     O_3   0.477713 0.120033 0.258878 -0.560492
C27   C     C_3   0.376631 0.059758 0.198474 0.124984
H7    H     H_    0.386036 0.962523 0.175308 0.119656
H8    H     H_    0.364439 0.107262 0.098918 0.206611
C28   C     C_3   0.268193 0.065057 0.286999 -0.868670
H9    H     H_    0.260416 0.990056 0.366556 0.213014
H10   H     H_    0.273445 0.154181 0.339849 0.279991
H11   H     H_    0.190211 0.053645 0.221614 0.211849
O10   O     O_3   0.401627 0.295274 0.873230 -0.556641
C29   C     C_3   0.295675 0.285225 0.801261 0.145405
H12   H     H_    0.310591 0.299078 0.690306 0.194193
H13   H     H_    0.236475 0.351621 0.832315 0.087286
C30   C     C_3   0.235952 0.153167 0.812546 -0.904879
H14   H     H_    0.234901 0.115709 0.919204 0.241728
H15   H     H_    0.145865 0.149915 0.775869 0.206084
H16   H     H_    0.281710 0.092289 0.747142 0.256684
O11   O     O_3   0.625242 0.213733 0.771342 -0.548105
C31   C     C_3   0.737877 0.190432 0.734203 0.069902
H17   H     H_    0.778713 0.270226 0.671746 0.167383
H18   H     H_    0.740645 0.108189 0.668744 0.057025
C32   C     C_3   0.810292 0.176037 0.863008 -0.390425
H19   H     H_    0.771811 0.094725 0.924899 0.195527
H20   H     H_    0.898511 0.159546 0.830965 0.173413
C33   C     C_3   0.818793 0.290465 0.951611 -0.754361
H21   H     H_    0.855903 0.372944 0.890580 0.244450
H22   H     H_    0.875629 0.278119 0.040613 0.217871
H23   H     H_    0.732399 0.305451 0.991579 0.277224
O12   O     O_3   0.608907 0.913463 0.301168 -0.596480
C34   C     C_3   0.717602 0.960137 0.357650 0.056988
H24   H     H_    0.780406 0.895942 0.334047 0.167408
H25   H     H_    0.717036 0.964472 0.472478 0.109081
C35   C     C_3   0.763355 0.086672 0.294631 -0.358711
H26   H     H_    0.765734 0.081646 0.180713 0.224226
H27   H     H_    0.706623 0.156531 0.322630 0.236100
C36   C     C_3   0.883963 0.130414 0.346426 -0.967132
H28   H     H_    0.885009 0.130017 0.460777 0.250914
H29   H     H_    0.909976 0.226058 0.308750 0.263889
H30   H     H_    0.946808 0.070316 0.308044 0.258983
O13   O     O_3   0.344404 0.343535 0.154737 -0.529098
C37   C     C_3   0.231694 0.351388 0.104124 0.053610
H31   H     H_    0.201137 0.264727 0.053388 0.175554
H32   H     H_    0.225421 0.431803 0.033181 0.090608
C38   C     C_3   0.146149 0.363284 0.219013 -0.788553
H33   H     H_    0.151896 0.461110 0.246392 0.251797
H34   H     H_    0.057616 0.335832 0.181501 0.193519
H35   H     H_    0.161532 0.305230 0.310069 0.252893
O14   O     O_3   0.700469 0.681776 0.246939 -0.569033
C39   C     C_3   0.821934 0.686767 0.223138 0.016841
H36   H     H_    0.864730 0.687606 0.324534 0.154068
H37   H     H_    0.859422 0.774639 0.172515 0.120621
C40   C     C_3   0.855664 0.576820 0.141742 -0.335697
H38   H     H_    0.838936 0.490809 0.205041 0.231187
H39   H     H_    0.804840 0.564247 0.045953 0.211155
C41   C     C_3   0.982715 0.597947 0.100468 -0.941808
H40   H     H_    0.999027 0.678866 0.028999 0.257744
H41   H     H_    0.006809 0.516098 0.046857 0.256076
H42   H     H_    0.037020 0.614825 0.193034 0.260013

loop_
_geom_bond_atom_site_label_1
_geom_bond_atom_site_label_2
_ccdc_geom_bond_type
C8    C9    A    
C38   H33   S    
C34   H24   S    
C40   H38   S    
C9    O12   S    
C20   O5    A    
C40   C41   S    
C7    C8    A    
O9    C27   S    
C27   C28   S    
C26   O11   S    
C35   H27   S    
C19   N2    A    
C5    C6    A    
C30   H15   S    
Cu2   O4    S    
C15   C16   A    
C41   H40   S    
C12   C22   S    
C18   C19   A    
C27   H7    S    
C8    O9    S    
C31   H18   S    
C21   O7    A    
C37   H31   S    
Cu2   N1    S    
Cu1   O3    S    
C16   C17   A    
C32   H20   S    
C23   C24   S    
C37   C38   S    
C9    C10   A    
C1    O1    A    
C28   H11   S    
C13   C14   A    
C34   H25   S    
C3    H4    S    
C27   H8    S    
C29   H13   S    
C35   H26   S    
C10   C20   S    
O14   C39   S    
C36   H29   S    
C33   H21   S    
C30   H16   S    
C28   H10   S    
O10   C29   S    
Cu2   O8    S    
C39   C40   S    
C2    H3    S    
C12   O4    A    
C31   H17   S    
Cu1   O7    S    
C21   O8    A    
Cu1   O5    S    
O13   C37   S    
C14   C15   A    
Cu2   O2    S    
C32   C33   S    
C39   H37   S    
C18   O13   S    
C2    C26   A    
C24   C25   T    
C1    O2    A    
C28   H9    S    
C41   H41   S    
C38   H34   S    
C34   C35   S    
C14   H1    S    
C3    C4    A    
C15   H2    S    
C18   N1    A    
C4    H5    S    
C21   C25   S    
C29   H12   S    
C11   C17   A    
C31   C32   S    
C1    C7    S    
C37   H32   S    
O12   C34   S    
C13   H6    S    
C36   H30   S    
C20   O6    A    
C40   H39   S    
C6    C7    A    
Cu1   N2    S    
C41   H42   S    
C12   O3    A    
C2    C3    A    
C5    C10   A    
C16   N2    A    
C11   C13   A    
C19   O10   S    
C30   H14   S    
C6    C26   A    
Cu1   O1    S    
C33   H23   S    
Cu2   O6    S    
C39   H36   S    
O11   C31   S    
C36   H28   S    
C11   O14   S    
C4    C5    A    
C35   C36   S    
C33   H22   S    
C32   H19   S    
C38   H35   S    
Cu1   Cu2   S    
C22   C23   T    
C17   N1    A    
C29   C30   S    
