data_mof_unit_61884.cif
_audit_creation_date              2012-12-10T20:03:06-0500
_audit_creation_method            fapswitch 2.2
_symmetry_space_group_name_H-M    P1
_symmetry_Int_Tables_number       1
_space_group_crystal_system       triclinic
_cell_length_a                    8.615923
_cell_length_b                    18.946533
_cell_length_c                    18.48339
_cell_angle_alpha                 90.593384
_cell_angle_beta                  98.032399
_cell_angle_gamma                 89.740601
_cell_volume                      2987.48673036

loop_
_atom_site_label
_atom_site_type_symbol
_atom_type_description
_atom_site_fract_x
_atom_site_fract_y
_atom_site_fract_z
_atom_type_partial_charge
C1    C     C_R   0.507265 0.365300 0.500163 0.857412
C2    C     C_R   0.501381 0.634854 0.500315 0.844715
C3    C     C_R   0.667056 0.963682 0.587848 -0.168257
C4    C     C_R   0.672429 0.034009 0.455922 -0.165819
C5    C     C_R   0.665076 0.036953 0.586770 -0.172009
C6    C     C_R   0.675043 0.960795 0.457068 -0.164283
C7    C     C_R   0.660427 0.072317 0.520224 0.121680
C8    C     C_R   0.665073 0.925434 0.522447 0.122205
C9    C     C_R   0.390128 0.532628 0.725692 0.280376
C10   C     C_R   0.396299 0.462770 0.261406 0.253797
C11   C     C_R   0.399750 0.528114 0.802759 0.007414
C12   C     C_R   0.405771 0.465481 0.185435 0.014448
C13   C     C_R   0.533390 0.497582 0.843810 -0.038148
C14   C     C_R   0.532760 0.500489 0.160632 -0.035997
C15   C     C_R   0.646430 0.465756 0.805706 0.370527
C16   C     C_R   0.639003 0.537406 0.212313 0.367947
C17   C     C_R   0.624328 0.466230 0.728307 -0.148982
C18   C     C_R   0.617238 0.537550 0.286805 -0.136341
C19   C     C_R   0.565794 0.435996 0.965204 -0.120823
C20   C     C_R   0.552157 0.562646 0.042543 -0.121798
C21   C     C_R   0.570639 0.434832 0.041635 0.464293
C22   C     C_R   0.557952 0.564021 0.966877 0.463383
C23   C     C_R   0.201612 0.501521 0.481441 0.908350
C24   C     C_R   0.798387 0.498121 0.518506 0.864636
C25   C     C_R   0.554117 0.498903 0.080915 -0.023690
C26   C     C_R   0.555179 0.499603 0.926292 -0.020970
C27   C     C_2   0.038294 0.512362 0.473582 0.207629
C28   C     C_2   0.961542 0.486533 0.526006 0.207564
C29   C     C_R   0.661729 0.733585 0.471629 -0.205603
C30   C     C_R   0.467625 0.246913 0.545846 -0.213239
C31   C     C_R   0.708878 0.803429 0.479864 -0.156058
C32   C     C_R   0.506869 0.175991 0.552565 -0.159004
C33   C     C_R   0.627594 0.850313 0.519928 0.011595
C34   C     C_R   0.625843 0.147947 0.516212 0.010428
C35   C     C_R   0.497646 0.827052 0.551025 -0.146137
C36   C     C_R   0.705192 0.191475 0.473010 -0.155123
C37   C     C_R   0.447053 0.757530 0.541830 0.450769
C38   C     C_R   0.669417 0.262985 0.466896 0.451937
C39   C     C_R   0.532316 0.710067 0.502890 -0.152845
C40   C     C_R   0.546367 0.290630 0.502603 -0.150675
H1    H     H_    0.709812 0.440955 0.698962 0.152632
H2    H     H_    0.697146 0.566563 0.326460 0.197310
H3    H     H_    0.568496 0.386351 0.935771 0.206203
H4    H     H_    0.544341 0.612219 0.071592 0.206225
H5    H     H_    0.728703 0.697338 0.442260 0.181629
H6    H     H_    0.375012 0.267715 0.574129 0.179105
H7    H     H_    0.808759 0.820908 0.455187 0.156545
H8    H     H_    0.442017 0.142723 0.584987 0.153308
H9    H     H_    0.430543 0.863866 0.579646 0.163604
H10   H     H_    0.798854 0.170286 0.445670 0.164429
H11   H     H_    0.661407 0.936835 0.638878 0.153673
H12   H     H_    0.668178 0.060364 0.403958 0.149712
H13   H     H_    0.659358 0.065915 0.637171 0.146852
H14   H     H_    0.672209 0.931966 0.405980 0.145611
N1    N     N_R   0.500020 0.499980 0.689440 -0.133748
N2    N     N_R   0.499980 0.500020 0.310560 -0.141043
O1    O     O_R   0.500010 0.398180 0.560840 -0.611782
O2    O     O_R   0.499990 0.601820 0.439160 -0.618518
O3    O     O_R   0.499930 0.398180 0.439210 -0.583633
O4    O     O_R   0.500070 0.601820 0.560790 -0.579885
O5    O     O_R   0.271780 0.500000 0.546590 -0.551002
O6    O     O_R   0.728220 0.500000 0.453410 -0.578442
O7    O     O_R   0.271710 0.499990 0.424960 -0.621558
O8    O     O_R   0.728290 0.500010 0.575040 -0.640230
Zn1   Zn    Zn3+2 0.500050 0.500000 0.581210 1.009233
Zn2   Zn    Zn3+2 0.499950 0.500000 0.418790 1.000732
O9    O     O_3   0.965268 0.555067 0.418171 -0.804434
H15   H     H_    0.044069 0.573291 0.388846 0.340593
O10   O     O_3   0.034478 0.443496 0.581170 -0.763879
H16   H     H_    0.955533 0.425486 0.610541 0.336385
O11   O     O_3   0.777771 0.435394 0.844765 -0.724623
H17   H     H_    0.845568 0.416177 0.810052 0.344140
O12   O     O_3   0.763706 0.572088 0.189284 -0.732912
H18   H     H_    0.827298 0.594603 0.232142 0.342116
O13   O     O_3   0.588530 0.369887 0.075064 -0.710637
H19   H     H_    0.613389 0.376766 0.128559 0.355620
O14   O     O_3   0.562609 0.629429 0.934980 -0.713241
H20   H     H_    0.590357 0.623626 0.885087 0.353215
O15   O     O_3   0.312251 0.739122 0.569360 -0.735641
H21   H     H_    0.269530 0.695420 0.544510 0.330742
O16   O     O_3   0.760710 0.303570 0.427866 -0.735433
H22   H     H_    0.763041 0.352577 0.446802 0.334506
I1    I     I_    0.212402 0.597436 0.668910 -0.188482
I2    I     I_    0.227585 0.395423 0.298845 -0.175315
I3    I     I_    0.207253 0.561984 0.856989 -0.203515
I4    I     I_    0.222304 0.421825 0.107694 -0.181473

loop_
_geom_bond_atom_site_label_1
_geom_bond_atom_site_label_2
_ccdc_geom_bond_type
C38   C40   A    
O12   H18   S    
C28   O10   S    
O16   H22   S    
O14   H20   S    
C37   O15   S    
C4    H12   S    
C5    H13   S    
C35   C37   A    
C1    O3    A    
O3    Zn2   S    
C2    O4    A    
C20   C25   A    
C19   C26   A    
C18   H2    S    
C20   H4    S    
C2    C39   S    
O2    Zn2   S    
C35   H9    S    
C31   C33   A    
C9    N1    A    
C23   C27   S    
C10   N2    A    
C17   N1    A    
C1    C40   S    
C18   N2    A    
C23   O7    A    
O7    Zn2   S    
C24   O8    A    
C31   H7    S    
C32   H8    S    
C6    H14   S    
C4    C7    A    
N1    Zn1   S    
C19   H3    S    
O6    Zn2   S    
O9    H15   S    
C4    C6    A    
C3    C8    A    
C5    C7    A    
C3    H11   S    
C6    C8    A    
C16   O12   S    
C29   H5    S    
C32   C34   A    
O13   H19   S    
C1    O1    A    
C29   C39   A    
C30   C40   A    
C9    C11   A    
C10   C12   A    
C9    I1    S    
C16   C18   A    
C20   C22   A    
O4    Zn1   S    
C13   C15   A    
C38   O16   S    
C7    C34   S    
C14   C16   A    
C13   C26   S    
C36   H10   S    
C15   C17   A    
C21   C25   A    
C24   O6    A    
C19   C21   A    
C30   H6    S    
C24   C28   S    
C22   O14   S    
O1    Zn1   S    
C3    C5    A    
C2    O2    A    
C15   O11   S    
C21   O13   S    
C12   I4    S    
O8    Zn1   S    
C36   C38   A    
C12   C14   A    
O11   H17   S    
C37   C39   A    
C30   C32   A    
C11   C13   A    
C11   I3    S    
N2    Zn2   S    
C10   I2    S    
C33   C35   A    
C34   C36   A    
C8    C33   S    
C14   C25   S    
O10   H16   S    
C17   H1    S    
C27   O9    S    
O15   H21   S    
O5    Zn1   S    
C23   O5    A    
C29   C31   A    
C22   C26   A    
C27   C28   D    
