data_mof_unit_11141.cif
_audit_creation_date              2012-12-10T20:57:48-0500
_audit_creation_method            fapswitch 2.2
_symmetry_space_group_name_H-M    P1
_symmetry_Int_Tables_number       1
_space_group_crystal_system       triclinic
_cell_length_a                    18.205534
_cell_length_b                    18.261324
_cell_length_c                    18.382675
_cell_angle_alpha                 120.041061
_cell_angle_beta                  89.927865
_cell_angle_gamma                 119.998714
_cell_volume                      4321.56662797

loop_
_atom_site_label
_atom_site_type_symbol
_atom_type_description
_atom_site_fract_x
_atom_site_fract_y
_atom_site_fract_z
_atom_type_partial_charge
Br1   Br    Br    0.153628 0.303415 0.267438 -0.557535
Br2   Br    Br    0.992614 0.975260 0.859153 -0.614126
C1    C     C_R   0.358412 0.220081 0.361113 0.802029
C2    C     C_3   0.800219 0.941458 0.722268 -0.367900
C3    C     C_3   0.698869 0.897545 0.699113 0.179917
C4    C     C_R   0.641035 0.781037 0.640049 0.738849
C5    C     C_3   0.799416 0.102358 0.803162 0.159638
C6    C     C_3   0.736808 0.057831 0.848526 -0.359290
C7    C     C_3   0.858828 0.060752 0.782929 -0.356570
C8    C     C_3   0.679799 0.390116 0.245005 -0.421857
C9    C     C_3   0.739800 0.386259 0.183380 -0.011065
C10   C     C_3   0.677058 0.524253 0.239728 -0.390084
C11   C     C_3   0.799353 0.579602 0.359755 -0.377711
C12   C     C_3   0.334391 0.612974 0.337778 -0.473145
C13   C     C_3   0.698294 0.498851 0.302266 0.145232
C14   C     C_3   0.798851 0.496340 0.199885 0.059717
C15   C     C_3   0.737714 0.525589 0.181234 -0.435712
C16   C     C_R   0.359275 0.500535 0.640732 0.805151
C17   C     C_3   0.858280 0.580126 0.300185 -0.375443
C18   C     C_R   0.351389 0.161140 0.586440 -0.130882
C19   C     C_R   0.340829 0.114327 0.495714 -0.125958
C20   C     C_R   0.274816 0.098898 0.439294 0.151203
C21   C     C_R   0.218867 0.129481 0.474211 -0.120809
C22   C     C_R   0.229231 0.175571 0.564762 -0.135576
C23   C     C_3   0.301247 0.500352 0.301008 0.027172
C24   C     C_R   0.295582 0.191693 0.620930 -0.101275
C25   C     C_R   0.212602 0.943969 0.287744 -0.256090
C26   C     C_R   0.194272 0.892393 0.195676 -0.053436
C27   C     C_R   0.228279 0.949338 0.158254 -0.010691
C28   C     C_R   0.640756 0.500134 0.359583 0.755748
C29   C     C_R   0.281666 0.056215 0.214292 -0.230662
C30   C     C_R   0.300477 0.107754 0.306380 -0.052748
C31   C     C_R   0.264122 0.050884 0.343583 -0.013929
C32   C     C_R   0.264397 0.875572 0.018698 -0.110287
C33   C     C_R   0.244635 0.828198 0.926868 -0.233738
C34   C     C_3   0.197687 0.499841 0.200263 0.104819
C35   C     C_R   0.169262 0.806164 0.876828 0.070171
C36   C     C_R   0.114319 0.833160 0.920179 -0.090796
C37   C     C_R   0.134227 0.880745 0.011997 -0.151963
C38   C     C_R   0.208941 0.901443 0.061532 0.142816
C39   C     C_R   0.913145 0.700371 0.616448 -0.120866
C40   C     C_R   0.641962 0.500146 0.640034 0.800361
C41   C     C_R   0.860804 0.624137 0.630797 -0.034826
C42   C     C_R   0.844995 0.651716 0.712373 0.103526
C43   C     C_R   0.883935 0.756462 0.779964 -0.211789
C44   C     C_R   0.937062 0.832626 0.765715 0.307596
C45   C     C_3   0.141023 0.440382 0.240073 -0.194708
C46   C     C_R   0.951114 0.804437 0.683724 -0.119194
C47   C     C_R   0.842217 0.569970 0.784823 -0.236647
C48   C     C_R   0.799330 0.498535 0.805985 -0.057218
C49   C     C_R   0.704672 0.427469 0.772006 -0.015903
C50   C     C_R   0.655638 0.429049 0.716481 -0.256011
C51   C     C_R   0.698559 0.500752 0.695430 -0.051499
C52   C     C_R   0.359418 0.501309 0.359319 0.813857
C53   C     C_R   0.793317 0.572233 0.729838 -0.000496
C54   C     C_R   0.628395 0.249197 0.734970 -0.151774
C55   C     C_R   0.582094 0.177940 0.755939 -0.148580
C56   C     C_3   0.276824 0.612635 0.275903 -0.358464
C57   C     C_R   0.560988 0.208108 0.834609 -0.074048
C58   C     C_R   0.585509 0.309369 0.892126 -0.126190
C59   C     C_R   0.631655 0.380812 0.871351 -0.117297
C60   C     C_R   0.653937 0.351224 0.792942 0.154098
C61   C     C_R   0.383202 0.800142 0.717873 -0.149515
C62   C     C_R   0.363151 0.736174 0.746316 -0.146718
C63   C     C_R   0.289027 0.631981 0.692646 0.128758
C64   C     C_3   0.301289 0.444785 0.202370 -0.108042
C65   C     C_R   0.234726 0.592706 0.610787 -0.129667
C66   C     C_R   0.255004 0.656988 0.582651 -0.107288
C67   C     C_3   0.681141 0.940829 0.652222 -0.396907
C68   C     C_R   0.329258 0.760521 0.636025 -0.106851
C69   C     C_R   0.216129 0.560688 0.774853 -0.253391
C70   C     C_R   0.195274 0.498605 0.805541 -0.021710
C71   C     C_R   0.229380 0.437897 0.782228 0.064952
C72   C     C_R   0.282892 0.440788 0.728674 -0.223049
C73   C     C_R   0.303158 0.502194 0.697434 -0.051865
C74   C     C_R   0.269678 0.563534 0.721344 -0.003230
C75   C     C_R   0.266503 0.403287 0.890362 0.053583
C76   C     C_3   0.239701 0.444081 0.143917 -0.490891
C77   C     C_R   0.244716 0.332171 0.911312 -0.254068
C78   C     C_3   0.740230 0.060885 0.713153 -0.398132
C79   C     C_R   0.169085 0.229953 0.855635 -0.068635
C80   C     C_R   0.114192 0.196840 0.777872 -0.122882
C81   C     C_R   0.134749 0.265851 0.755444 -0.199770
C82   C     C_R   0.210432 0.369148 0.810840 0.126138
C83   C     C_R   0.857005 0.499336 0.142718 0.728244
C84   C     C_R   0.138622 0.499638 0.861657 0.803325
C85   C     C_R   0.856827 0.218943 0.862215 0.746534
C86   C     C_R   0.138447 0.779984 0.141101 0.791299
C87   C     C_R   0.855829 0.499757 0.862065 0.793456
C88   C     C_3   0.202889 0.443430 0.301650 0.050576
C89   C     C_3   0.678056 0.937780 0.787671 -0.395333
C90   C     C_R   0.139997 0.500177 0.142765 0.753150
C91   C     C_2   0.086175 0.477480 0.287286 0.409564
C92   C     C_2   0.394664 0.493291 0.195525 0.365709
C93   C     C_2   0.802156 0.360294 0.202887 0.461849
C94   C     C_2   0.677003 0.301694 0.086808 0.374969
C95   C     C_2   0.148945 0.755127 0.779735 0.361319
C96   C     C_2   0.347433 0.511005 0.953655 0.341879
H1    H     H_    0.273165 0.362686 0.174954 0.222779
H2    H     H_    0.815076 0.912281 0.756631 0.211512
H3    H     H_    0.817798 0.914685 0.660226 0.171064
H4    H     H_    0.904193 0.090697 0.749608 0.171897
H5    H     H_    0.902000 0.088549 0.846164 0.212747
H6    H     H_    0.690963 0.908541 0.823100 0.169087
H7    H     H_    0.777722 0.086291 0.913305 0.176288
H8    H     H_    0.606940 0.331562 0.204785 0.156100
H9    H     H_    0.690233 0.370045 0.290140 0.203837
H10   H     H_    0.605356 0.465510 0.196088 0.214516
H11   H     H_    0.277263 0.482102 0.111528 0.164515
H12   H     H_    0.251826 0.659340 0.315857 0.230151
H13   H     H_    0.695672 0.472313 0.109846 0.170094
H14   H     H_    0.814455 0.658408 0.403668 0.172893
H15   H     H_    0.816159 0.560603 0.403269 0.188824
H16   H     H_    0.906527 0.566813 0.318378 0.200225
H17   H     H_    0.899180 0.658363 0.313581 0.182573
H18   H     H_    0.687664 0.600968 0.279779 0.164261
H19   H     H_    0.780098 0.604403 0.195969 0.173916
H20   H     H_    0.303691 0.227819 0.691108 0.133046
H21   H     H_    0.402820 0.173756 0.629991 0.130682
H22   H     H_    0.384427 0.091066 0.469588 0.118735
H23   H     H_    0.203881 0.485935 0.371488 0.164943
H24   H     H_    0.185701 0.362278 0.089023 0.208651
H25   H     H_    0.167602 0.117868 0.431361 0.124583
H26   H     H_    0.185952 0.199015 0.591347 0.123932
H27   H     H_    0.185232 0.901019 0.316803 0.176737
H28   H     H_    0.308414 0.099128 0.185132 0.183526
H29   H     H_    0.322361 0.891331 0.056297 0.132320
H30   H     H_    0.288035 0.808415 0.894843 0.129041
H31   H     H_    0.056033 0.817404 0.883182 0.173043
H32   H     H_    0.090984 0.900548 0.044410 0.145263
H33   H     H_    0.992247 0.863156 0.672487 0.144489
H34   H     H_    0.608992 0.911431 0.635338 0.175711
H35   H     H_    0.925327 0.679036 0.553628 0.134827
H36   H     H_    0.832678 0.543882 0.578660 0.122259
H37   H     H_    0.873875 0.778805 0.843842 0.158959
H38   H     H_    0.914817 0.624880 0.810992 0.185609
H39   H     H_    0.583036 0.374084 0.690451 0.174824
H40   H     H_    0.644968 0.225315 0.674172 0.119460
H41   H     H_    0.562661 0.099373 0.711292 0.116584
H42   H     H_    0.525475 0.152981 0.850900 0.130599
H43   H     H_    0.568818 0.332516 0.952816 0.120199
H44   H     H_    0.091174 0.358385 0.182810 0.140876
H45   H     H_    0.696004 0.913563 0.588643 0.151151
H46   H     H_    0.650830 0.459251 0.916564 0.117421
H47   H     H_    0.344951 0.810031 0.613983 0.127236
H48   H     H_    0.440673 0.880310 0.759130 0.128329
H49   H     H_    0.405653 0.767331 0.809538 0.134655
H50   H     H_    0.177471 0.512408 0.568681 0.135648
H51   H     H_    0.213281 0.626555 0.519453 0.176818
H52   H     H_    0.190288 0.607276 0.792116 0.162835
H53   H     H_    0.309227 0.394755 0.711863 0.165343
H54   H     H_    0.286521 0.355764 0.971119 0.145280
H55   H     H_    0.329466 0.651428 0.405548 0.207911
H56   H     H_    0.783681 0.091303 0.678956 0.153721
H57   H     H_    0.153203 0.176251 0.872797 0.181993
H58   H     H_    0.055780 0.117423 0.734712 0.134241
H59   H     H_    0.091503 0.238836 0.694659 0.118920
H60   H     H_    0.406402 0.660189 0.345007 0.154098
H61   H     H_    0.319823 0.651367 0.246321 0.150989
H62   H     H_    0.013478 0.427958 0.257660 0.080041
H63   H     H_    0.433634 0.572369 0.214905 0.058443
H64   H     H_    0.845039 0.352256 0.162778 0.050539
H65   H     H_    0.623394 0.302227 0.061930 0.070050
H66   H     H_    0.192845 0.736187 0.747778 0.080958
H67   H     H_    0.696254 0.088535 0.725027 0.177780
H68   H     H_    0.387682 0.531218 0.012625 0.059397
H69   H     H_    0.605777 0.908021 0.773585 0.180030
H70   H     H_    0.692440 0.085053 0.862907 0.210738
O1    O     O_3   0.500000 0.500000 0.500000 -0.485070
O2    O     O_R   0.113800 0.731630 0.056520 -0.635628
O3    O     O_R   0.819390 0.439310 0.886160 -0.636842
O4    O     O_R   0.383400 0.268380 0.323710 -0.634078
O5    O     O_R   0.115110 0.560720 0.179280 -0.632971
O6    O     O_R   0.941380 0.560750 0.885620 -0.650270
O7    O     O_R   0.115110 0.439270 0.057830 -0.640490
O8    O     O_R   0.942690 0.268390 0.886930 -0.645375
O9    O     O_R   0.114340 0.731630 0.178520 -0.647656
O10   O     O_R   0.820160 0.439310 0.057830 -0.625407
O11   O     O_R   0.113800 0.560730 0.885620 -0.644207
O12   O     O_R   0.383400 0.560740 0.616060 -0.628731
O13   O     O_R   0.555060 0.731630 0.615290 -0.643545
O14   O     O_R   0.383950 0.439280 0.616600 -0.641383
O15   O     O_R   0.677590 0.560710 0.444390 -0.657261
O16   O     O_R   0.556370 0.439260 0.616600 -0.647722
O17   O     O_R   0.382640 0.439290 0.322940 -0.592630
O18   O     O_R   0.678360 0.560700 0.616060 -0.646101
O19   O     O_R   0.382640 0.560750 0.444390 -0.652224
O20   O     O_2   0.122144 0.562763 0.357530 -0.592344
O21   O     O_2   0.426460 0.443354 0.166706 -0.573718
O22   O     O_2   0.806197 0.348898 0.262459 -0.590312
O23   O     O_R   0.555060 0.439270 0.322940 -0.628568
O24   O     O_2   0.684357 0.231787 0.036180 -0.596964
O25   O     O_2   0.083089 0.733494 0.734255 -0.571792
O26   O     O_2   0.370338 0.578424 0.941902 -0.571762
O27   O     O_R   0.383950 0.268380 0.445700 -0.638640
O28   O     O_R   0.677590 0.731610 0.615290 -0.645206
O29   O     O_3   0.997750 0.500010 0.002220 -0.483008
O30   O     O_R   0.942690 0.560750 0.179280 -0.647939
O31   O     O_R   0.114340 0.439270 0.886160 -0.637992
O32   O     O_R   0.820160 0.268410 0.886930 -0.620518
Zn1   Zn    Zn3+2 0.456040 0.586770 0.543190 0.978429
Zn2   Zn    Zn3+2 0.456820 0.413240 0.543960 0.981447
Zn3   Zn    Zn3+2 0.631110 0.586750 0.543190 0.952681
Zn4   Zn    Zn3+2 0.456040 0.413240 0.369660 1.016659
Zn5   Zn    Zn3+2 0.041710 0.413240 0.959030 0.974421
Zn6   Zn    Zn3+2 0.866640 0.413270 0.959030 0.987842
Zn7   Zn    Zn3+2 0.040930 0.586780 0.958260 0.972057
Zn8   Zn    Zn3+2 0.041710 0.586770 0.132560 0.967604

loop_
_geom_bond_atom_site_label_1
_geom_bond_atom_site_label_2
_ccdc_geom_bond_type
C9    C94   S    
C64   H1    S    
C7    H4    S    
C16   C73   S    
C41   H36   S    
C71   C72   A    
O29   Zn5   S    
O31   Zn5   S    
C89   H6    S    
C41   C42   A    
C6    H7    S    
C4    O28   A    
C79   C80   A    
C8    H9    S    
C86   O9    A    
O27   Zn2   S    
C43   C44   A    
C25   C31   A    
C85   O8    A    
C45   H44   S    
C96   O26   D    
C23   C88   S    
Br1   C88   S    
C63   C74   S    
C12   H55   S    
C12   H60   S    
C32   C38   A    
C87   O6    A    
O17   Zn4   S    
C89   H69   S    
C26   C27   A    
C33   C35   A    
C22   C24   A    
C14   C83   S    
C11   H14   S    
C34   C56   S    
C8    C13   S    
C14   C17   S    
C40   C51   S    
C3    C4    S    
C1    O4    A    
C55   C57   A    
C69   H52   S    
C16   O14   A    
C22   H26   S    
C54   C55   A    
C55   H41   S    
C34   C45   S    
C32   C33   A    
C28   O15   A    
C95   O25   D    
O4    Zn4   S    
C3    C67   S    
C66   H51   S    
C6    H70   S    
C93   O22   D    
O1    Zn2   S    
C23   C64   S    
C5    C85   S    
C29   C30   A    
C14   C15   S    
C63   C65   A    
C52   O17   A    
C10   C15   S    
C26   C86   S    
C21   C22   A    
C10   C13   S    
C46   H33   S    
O5    Zn8   S    
C61   H48   S    
C59   C60   A    
C15   H19   S    
C84   O31   A    
C64   C92   S    
C80   H58   S    
C34   C90   S    
C75   C77   A    
C16   O12   A    
C57   C58   A    
O14   Zn2   S    
C19   C20   A    
C39   C41   A    
O29   Zn6   S    
C33   H30   S    
C49   C60   S    
C85   O32   A    
C12   C56   S    
C15   H13   S    
C35   C95   S    
C48   C49   A    
C44   C46   A    
C51   C53   A    
C90   O7    A    
C36   C37   A    
C64   C76   S    
O11   Zn7   S    
C43   H37   S    
C86   O2    A    
C72   C73   A    
C11   C17   S    
C4    O13   A    
O30   Zn8   S    
C49   C50   A    
C36   H31   S    
C5    C6    S    
O16   Zn2   S    
C23   C52   S    
C87   O3    A    
C70   C71   A    
O12   Zn1   S    
C93   H64   S    
C37   C38   A    
C6    C89   S    
C32   H29   S    
C21   H25   S    
C75   C82   A    
C40   O16   A    
C47   C53   A    
Br2   C44   S    
C65   C66   A    
C58   C59   A    
O28   Zn3   S    
O8    Zn5   S    
C91   H62   S    
C73   C74   A    
C35   C36   A    
C48   C87   S    
C58   H43   S    
O1    Zn3   S    
C54   H40   S    
C9    C14   S    
C59   H46   S    
C81   C82   A    
C81   H59   S    
C61   C68   A    
C17   H17   S    
C7    H5    S    
C95   H66   S    
C2    H3    S    
C50   H39   S    
C45   C91   S    
C75   C96   S    
C68   H47   S    
C3    C89   S    
C28   O23   A    
O3    Zn6   S    
C92   H63   S    
C96   H68   S    
C39   H35   S    
C47   H38   S    
C47   C48   A    
C52   O19   A    
C11   C13   S    
C62   H49   S    
O6    Zn7   S    
C45   C88   S    
C54   C60   A    
C72   H53   S    
C8    H8    S    
O23   Zn4   S    
O7    Zn5   S    
C78   H67   S    
C25   C26   A    
C50   C51   A    
C13   C28   S    
C10   H10   S    
C9    C93   S    
C5    C7    S    
C20   C31   S    
O32   Zn6   S    
C71   C82   S    
C56   H12   S    
O13   Zn1   S    
C42   C43   A    
C24   H20   S    
C2    C3    S    
O29   Zn8   S    
C79   H57   S    
C70   C84   S    
O9    Zn8   S    
C78   H56   S    
C37   H32   S    
C90   O5    A    
C67   H45   S    
O19   Zn1   S    
C77   C79   A    
C17   H16   S    
C94   H65   S    
C56   H61   S    
O15   Zn3   S    
C62   C63   A    
C94   O24   D    
C2    H2    S    
C83   O10   A    
C92   O21   D    
O2    Zn7   S    
C27   C29   A    
C34   C76   S    
C30   C31   A    
O1    Zn4   S    
C25   H27   S    
C42   C53   S    
C40   O18   A    
C69   C74   A    
C18   C24   A    
C57   H42   S    
C67   H34   S    
O10   Zn6   S    
C27   C38   S    
C84   O11   A    
C88   H23   S    
C39   C46   A    
O18   Zn3   S    
C76   H11   S    
C12   C23   S    
C1    C30   S    
C76   H24   S    
C1    O27   A    
O29   Zn7   S    
C8    C9    S    
O1    Zn1   S    
C61   C62   A    
C91   O20   D    
C83   O30   A    
C69   C70   A    
C18   C19   A    
C66   C68   A    
C80   C81   A    
C65   H50   S    
C20   C21   A    
C77   H54   S    
C67   C78   S    
C29   H28   S    
C2    C7    S    
C19   H22   S    
C18   H21   S    
C11   H15   S    
C5    C78   S    
C10   H18   S    
