data_mof_unit_36846.cif
_audit_creation_date              2012-10-26T20:58:18-0400
_audit_creation_method            fapswitch 2.2
_symmetry_space_group_name_H-M    P1
_symmetry_Int_Tables_number       1
_space_group_crystal_system       triclinic
_cell_length_a                    10.633237
_cell_length_b                    14.773314
_cell_length_c                    14.696097
_cell_angle_alpha                 65.191509
_cell_angle_beta                  103.996104
_cell_angle_gamma                 102.740727
_cell_volume                      2014.66080845

loop_
_atom_site_label
_atom_site_type_symbol
_atom_type_description
_atom_site_fract_x
_atom_site_fract_y
_atom_site_fract_z
_atom_type_partial_charge
C1    C     C_R   0.478668 0.119537 0.312097 0.537435
C2    C     C_R   0.489717 0.533365 0.946844 0.031029
C3    C     C_R   0.485483 0.492217 0.874544 -0.139033
C4    C     C_R   0.471830 0.507134 0.119146 -0.138358
C5    C     C_R   0.476379 0.389399 0.901911 -0.135860
C6    C     C_R   0.480295 0.610036 0.091443 -0.135537
C7    C     C_R   0.736681 0.299102 0.650776 -0.139377
C8    C     C_R   0.254963 0.696336 0.358844 -0.145083
C9    C     C_R   0.695472 0.210907 0.632663 0.153380
C10   C     C_R   0.310573 0.789714 0.362975 0.153543
C11   C     C_R   0.510168 0.281285 0.515928 0.020708
C12   C     C_R   0.520720 0.880581 0.687769 0.537396
C13   C     C_R   0.477353 0.712744 0.497331 0.021171
C14   C     C_R   0.542932 0.368839 0.540681 -0.004854
C15   C     C_R   0.437693 0.620539 0.481331 -0.005582
C16   C     C_R   0.259522 0.000311 0.500255 0.543293
C17   C     C_R   0.740483 0.999343 0.500546 0.546119
C18   C     C_R   0.661141 0.376689 0.607172 0.023965
C19   C     C_R   0.319802 0.612989 0.414451 0.023777
C20   C     C_R   0.465030 0.449220 0.501582 0.025620
C21   C     C_R   0.511003 0.537121 0.526284 0.025363
C22   C     C_R   0.630746 0.540084 0.592138 -0.144934
C23   C     C_R   0.469547 0.290334 0.177458 -0.134504
C24   C     C_R   0.342453 0.444396 0.439448 -0.144999
C25   C     C_R   0.703552 0.461045 0.632155 -0.132863
C26   C     C_R   0.271382 0.524783 0.397007 -0.132902
C27   C     C_3   0.016400 0.021265 0.406061 -0.136135
C28   C     C_3   0.983385 0.978668 0.596008 -0.132317
C29   C     C_3   0.964432 0.090614 0.439028 -0.118795
C30   C     C_3   0.035573 0.909140 0.563136 -0.118599
C31   C     C_3   0.877326 0.998788 0.500991 0.046267
C32   C     C_3   0.122749 0.000925 0.500879 0.043877
C33   C     C_3   0.927173 0.929319 0.468112 -0.113698
C34   C     C_R   0.521612 0.710028 0.822446 -0.133593
C35   C     C_3   0.072932 0.070479 0.533893 -0.113336
C36   C     C_R   0.469724 0.187483 0.204124 -0.005337
C37   C     C_R   0.522678 0.813018 0.795098 -0.007047
C38   C     C_R   0.468421 0.219993 0.028434 -0.137076
C39   C     C_R   0.502916 0.780341 0.966844 -0.137734
C40   C     C_R   0.468793 0.152697 0.128896 -0.144065
C41   C     C_R   0.513950 0.848016 0.867903 -0.143633
C42   C     C_3   0.273846 0.878957 0.266071 -0.207632
C43   C     C_3   0.164895 0.930187 0.268844 -0.275763
C44   C     C_3   0.091355 0.983764 0.162012 -0.480918
C45   C     C_R   0.471747 0.360482 0.076795 0.031242
C46   C     C_3   0.777975 0.126606 0.697830 -0.217599
C47   C     C_3   0.772105 0.090937 0.811452 -0.320244
C48   C     C_3   0.843054 0.999099 0.875514 -0.461559
C49   C     C_R   0.502713 0.639361 0.920090 0.032140
C50   C     C_R   0.471597 0.323302 0.002089 0.050121
C51   C     C_R   0.495898 0.676559 0.993164 0.049910
C52   C     C_R   0.477741 0.466223 0.048837 0.030943
Cu1   Cu    Cu3+1 0.465750 0.918270 0.475680 0.916692
Cu2   Cu    Cu3+1 0.534250 0.081730 0.524320 0.912477
H1    H     H_    0.932261 0.164855 0.388153 0.114856
H2    H     H_    0.966438 0.961305 0.673631 0.096986
H3    H     H_    0.865236 0.871428 0.441115 0.118486
H4    H     H_    0.135041 0.128443 0.560709 0.116514
H5    H     H_    0.474551 0.361486 0.844044 0.112592
H6    H     H_    0.474223 0.637753 0.147687 0.109812
H7    H     H_    0.535187 0.687297 0.765300 0.112577
H8    H     H_    0.471235 0.313748 0.237782 0.118792
H9    H     H_    0.512143 0.927059 0.847831 0.123572
H10   H     H_    0.472744 0.074351 0.147702 0.110047
H11   H     H_    0.468947 0.191496 0.971540 0.100886
H12   H     H_    0.067720 0.834891 0.613992 0.115405
H13   H     H_    0.496354 0.808930 0.022242 0.100412
H14   H     H_    0.486926 0.536980 0.795080 0.106082
H15   H     H_    0.458131 0.462007 0.196406 0.103031
H16   H     H_    0.794843 0.466206 0.683355 0.107898
H17   H     H_    0.179291 0.519132 0.346814 0.107761
H18   H     H_    0.160255 0.040607 0.113077 0.158563
H19   H     H_    0.041651 0.928609 0.127160 0.149184
H20   H     H_    0.015916 0.022677 0.166007 0.137838
H21   H     H_    0.094003 0.873992 0.316377 0.161170
H22   H     H_    0.208053 0.988013 0.300692 0.198333
H23   H     H_    0.559345 0.721053 0.554069 0.117070
H24   H     H_    0.361004 0.931754 0.241894 0.156737
H25   H     H_    0.240151 0.852657 0.202217 0.098852
H26   H     H_    0.947689 0.017604 0.866835 0.147395
H27   H     H_    0.837147 0.975486 0.956917 0.145510
H28   H     H_    0.797198 0.935367 0.851916 0.157986
H29   H     H_    0.818319 0.151706 0.839374 0.151761
H30   H     H_    0.668529 0.071459 0.822713 0.165338
H31   H     H_    0.750183 0.060454 0.679161 0.215263
H32   H     H_    0.881144 0.154397 0.685864 0.108974
H33   H     H_    0.425371 0.272738 0.461264 0.115686
H34   H     H_    0.826983 0.305780 0.702521 0.090204
H35   H     H_    0.169103 0.691558 0.302476 0.091113
H36   H     H_    0.671382 0.602822 0.614274 0.090066
H37   H     H_    0.299037 0.379424 0.421556 0.090785
H38   H     H_    0.030418 0.041053 0.327394 0.097435
N1    N     N_R   0.585750 0.204560 0.560800 -0.226666
N2    N     N_R   0.414250 0.795440 0.439200 -0.224586
O1    O     O_R   0.454850 0.022100 0.338110 -0.518471
O2    O     O_R   0.545150 0.977900 0.661890 -0.518211
O3    O     O_R   0.512700 0.160150 0.379180 -0.503180
O4    O     O_R   0.487300 0.839850 0.620820 -0.506515
O5    O     O_R   0.287930 0.931000 0.479440 -0.503554
O6    O     O_R   0.712070 0.069000 0.520560 -0.521776
O7    O     O_R   0.345780 0.069050 0.520520 -0.508475
O8    O     O_R   0.654220 0.930950 0.479480 -0.507044

loop_
_geom_bond_atom_site_label_1
_geom_bond_atom_site_label_2
_ccdc_geom_bond_type
C39   C51   A    
C23   C45   A    
Cu1   O1    S    
C34   C37   A    
C14   C18   A    
Cu2   O7    S    
C3    H14   S    
C43   C44   S    
C28   H2    S    
C39   C41   A    
Cu1   Cu2   S    
C27   C33   S    
C15   C19   A    
C4    C52   A    
C35   H4    S    
C25   H16   S    
C38   C40   A    
C24   C26   A    
C9    C46   S    
C11   C14   A    
C27   C29   S    
C10   N2    A    
C48   H27   S    
C12   C37   S    
C19   C26   A    
C20   C24   A    
Cu2   N1    S    
C23   H8    S    
C7    H34   S    
C28   C35   S    
C11   H33   S    
C49   C51   A    
C22   C25   A    
C31   C33   S    
Cu2   O3    S    
C47   H29   S    
C6    C51   A    
C12   O4    A    
C46   H31   S    
C11   N1    A    
C27   C32   S    
C42   H25   S    
C21   C22   A    
C26   H17   S    
Cu2   O6    S    
C18   C25   A    
C4    H15   S    
C43   H21   S    
C13   H23   S    
C8    C19   A    
C5    H5    S    
C32   C35   S    
C6    H6    S    
C36   C40   A    
C4    C6    A    
C1    O3    A    
C29   H1    S    
C45   C52   A    
C34   H7    S    
Cu1   O5    S    
C17   O8    A    
C2    C49   A    
C14   C20   A    
C47   C48   S    
C38   H11   S    
Cu1   O8    S    
C1    O1    A    
C7    C18   A    
C22   H36   S    
C27   H38   S    
C47   H30   S    
C44   H20   S    
C10   C42   S    
C30   H12   S    
C2    C52   A    
C42   H24   S    
C13   C15   A    
C17   C31   S    
C5    C50   A    
C42   C43   S    
C41   H9    S    
C24   H37   S    
C9    N1    A    
C43   H22   S    
C7    C9    A    
C46   C47   S    
C34   C49   A    
C33   H3    S    
C30   C33   S    
Cu1   N2    S    
C39   H13   S    
C28   C31   S    
C3    C5    A    
C16   O5    A    
C38   C50   A    
Cu1   O4    S    
C16   C32   S    
C29   C35   S    
C40   H10   S    
C13   N2    A    
C48   H26   S    
C28   C30   S    
C2    C3    A    
C29   C31   S    
C30   C32   S    
C45   C50   A    
C48   H28   S    
C44   H18   S    
C37   C41   A    
C44   H19   S    
C17   O6    A    
C16   O7    A    
C15   C21   A    
C20   C21   A    
C8    C10   A    
C23   C36   A    
C12   O2    A    
C8    H35   S    
Cu2   O2    S    
C1    C36   S    
C46   H32   S    
