data_mof_unit_57632.cif
_audit_creation_date              2012-12-11T15:18:11-0500
_audit_creation_method            fapswitch 2.2
_symmetry_space_group_name_H-M    P1
_symmetry_Int_Tables_number       1
_space_group_crystal_system       triclinic
_cell_length_a                    15.684853
_cell_length_b                    15.783949
_cell_length_c                    34.491249
_cell_angle_alpha                 89.894569
_cell_angle_beta                  90.211376
_cell_angle_gamma                 120.152221
_cell_volume                      7383.53806457

loop_
_atom_site_label
_atom_site_type_symbol
_atom_type_description
_atom_site_fract_x
_atom_site_fract_y
_atom_site_fract_z
_atom_type_partial_charge
C1    C     C_R   0.577089 0.441161 0.554973 0.559908
C2    C     C_R   0.553142 0.008511 0.207027 0.394334
C3    C     C_3   0.275086 0.945784 0.105865 -0.108368
C4    C     C_3   0.677079 0.731797 0.102738 -0.105182
C5    C     C_3   0.056849 0.328814 0.105678 -0.107374
C6    C     C_3   0.972906 0.637924 0.582015 -0.233851
C7    C     C_3   0.893877 0.665532 0.589821 -0.215506
C8    C     C_3   0.906920 0.748261 0.563007 -0.434658
C9    C     C_3   0.369678 0.300716 0.587552 -0.191035
C10   C     C_3   0.325128 0.335544 0.555841 -0.322567
C11   C     C_3   0.243583 0.249051 0.533649 -0.458258
C12   C     C_3   0.658862 0.022668 0.581143 -0.236291
C13   C     C_R   0.454723 0.482989 0.212583 0.379888
C14   C     C_3   0.769256 0.096837 0.584500 -0.219460
C15   C     C_3   0.828235 0.072571 0.556050 -0.450567
C16   C     C_3   0.636678 0.017124 0.065897 -0.207922
C17   C     C_3   0.693569 0.962199 0.061312 -0.272784
C18   C     C_3   0.757150 0.995293 0.024929 -0.474606
C19   C     C_3   0.383537 0.368644 0.073383 -0.209338
C20   C     C_3   0.271414 0.311257 0.067711 -0.274639
C21   C     C_3   0.242856 0.248257 0.031196 -0.470440
C22   C     C_3   0.988366 0.621353 0.073936 -0.206961
C23   C     C_3   0.043217 0.732609 0.067916 -0.273228
C24   C     C_R   0.037297 0.557801 0.213471 0.384608
C25   C     C_3   0.006070 0.760208 0.031800 -0.470327
C26   C     C_3   0.929054 0.389018 0.934267 -0.244930
C27   C     C_3   0.960285 0.313767 0.945294 -0.278018
C28   C     C_3   0.872231 0.216107 0.957916 -0.477684
C29   C     C_3   0.614689 0.547809 0.936937 -0.259247
C30   C     C_3   0.567848 0.457091 0.963283 -0.304444
C31   C     C_3   0.631837 0.471631 0.998894 -0.461540
C32   C     C_3   0.474024 0.072752 0.936913 -0.260659
C33   C     C_3   0.573011 0.118858 0.958566 -0.306277
C34   C     C_3   0.572674 0.176450 0.993983 -0.462857
C35   C     C_R   0.950986 0.442613 0.861979 0.007240
C36   C     C_3   0.393855 0.987771 0.412875 -0.239219
C37   C     C_3   0.423070 0.933739 0.442487 -0.282338
C38   C     C_3   0.335165 0.863142 0.467180 -0.469998
C39   C     C_3   0.610301 0.640528 0.421009 -0.251762
C40   C     C_3   0.534759 0.630789 0.451546 -0.297425
C41   C     C_3   0.570354 0.726610 0.473619 -0.470975
C42   C     C_3   0.032140 0.391640 0.420935 -0.250373
C43   C     C_3   0.094889 0.463479 0.453138 -0.296413
C44   C     C_3   0.155771 0.427352 0.474752 -0.472665
C45   C     C_3   0.061453 0.346795 0.674740 -0.087967
C46   C     C_R   0.563606 0.511364 0.864658 0.009243
C47   C     C_3   0.626237 0.698437 0.678093 -0.093945
C48   C     C_3   0.303211 0.967676 0.682835 -0.080568
C49   C     C_3   0.306275 0.809004 0.197056 -0.094883
C50   C     C_3   0.516916 0.729852 0.190774 -0.083701
C51   C     C_3   0.223752 0.499167 0.192519 -0.087420
C52   C     C_3   0.115424 0.708320 0.667589 -0.113439
C53   C     C_3   0.283648 0.349927 0.668922 -0.115397
C54   C     C_3   0.632557 0.914848 0.664784 -0.115331
C55   C     C_3   0.727108 0.001769 0.163940 -0.127723
C56   C     C_3   0.273777 0.299751 0.171058 -0.123277
C57   C     C_R   0.500492 0.052685 0.864254 0.008036
C58   C     C_3   0.040413 0.738636 0.171180 -0.126043
C59   C     C_3   0.852242 0.354233 0.850604 -0.245994
C60   C     C_3   0.860691 0.262341 0.844942 -0.288312
C61   C     C_3   0.760964 0.173525 0.835381 -0.434163
C62   C     C_3   0.652989 0.501248 0.855788 -0.255170
C63   C     C_3   0.745700 0.601671 0.849438 -0.288030
C64   C     C_3   0.836479 0.591200 0.844436 -0.432853
C65   C     C_3   0.517535 0.154504 0.855654 -0.253414
C66   C     C_3   0.419037 0.151777 0.849649 -0.285830
C67   C     C_3   0.435094 0.254676 0.845027 -0.433082
C68   C     C_R   0.476776 0.028773 0.345867 0.005682
C69   C     C_3   0.379097 0.957114 0.326310 -0.238573
C70   C     C_3   0.350441 0.849207 0.332116 -0.306072
C71   C     C_3   0.239344 0.781250 0.328026 -0.441366
C72   C     C_3   0.592893 0.660291 0.334459 -0.237779
C73   C     C_3   0.529092 0.707864 0.340568 -0.307369
C74   C     C_3   0.584991 0.815650 0.328845 -0.438854
C75   C     C_3   0.079393 0.420996 0.335319 -0.239785
C76   C     C_3   0.189781 0.487791 0.344037 -0.302839
C77   C     C_3   0.247411 0.435531 0.336347 -0.440914
C78   C     C_R   0.548451 0.560089 0.353805 0.007018
C79   C     C_R   0.017727 0.459233 0.354335 0.007879
C80   C     C_R   0.988869 0.456387 0.900871 -0.000068
C81   C     C_R   0.557026 0.134573 0.554498 0.568433
C82   C     C_R   0.546730 0.534854 0.902908 0.001713
C83   C     C_R   0.475239 0.012772 0.902540 0.000137
C84   C     C_R   0.479883 0.052715 0.385966 0.004962
C85   C     C_R   0.566386 0.551736 0.393919 0.002004
C86   C     C_R   0.987989 0.436927 0.394024 0.000512
C87   C     C_R   0.129500 0.613211 0.881044 -0.152431
C88   C     C_R   0.389535 0.515208 0.880978 -0.154397
C89   C     C_R   0.475470 0.866347 0.880122 -0.150794
C90   C     C_R   0.649396 0.187546 0.376982 -0.158600
C91   C     C_R   0.483271 0.373700 0.386201 -0.155725
C92   C     C_R   0.866266 0.423035 0.554292 0.557778
C93   C     C_R   0.888879 0.515791 0.386094 -0.157431
C94   C     C_R   0.092230 0.600901 0.843951 -0.146184
C95   C     C_R   0.404811 0.490961 0.844352 -0.145251
C96   C     C_R   0.502331 0.905544 0.843496 -0.143962
C97   C     C_R   0.648441 0.159574 0.339039 -0.137041
C98   C     C_R   0.461728 0.381491 0.348132 -0.147956
C99   C     C_R   0.921242 0.541246 0.348541 -0.146692
C100  C     C_R   0.006200 0.515212 0.833501 0.021092
C101  C     C_R   0.491964 0.491713 0.835252 0.023462
C102  C     C_R   0.512546 0.996681 0.834567 0.022210
C103  C     C_R   0.442648 0.578264 0.054623 0.569735
C104  C     C_R   0.563613 0.081367 0.323220 0.028063
C105  C     C_R   0.496336 0.473085 0.331265 0.023514
C106  C     C_R   0.982636 0.511508 0.331946 0.026740
C107  C     C_R   0.081246 0.540953 0.909188 0.021602
C108  C     C_R   0.460523 0.540335 0.909906 0.024059
C109  C     C_R   0.459379 0.917453 0.909361 0.025929
C110  C     C_R   0.566621 0.136463 0.400597 0.020938
C111  C     C_R   0.539144 0.457464 0.408882 0.019165
C112  C     C_R   0.917883 0.460671 0.408709 0.013399
C113  C     C_R   0.576981 0.442237 0.445781 0.531732
C114  C     C_R   0.136413 0.558124 0.054858 0.566347
C115  C     C_R   0.576556 0.177576 0.439675 0.543897
C116  C     C_R   0.864609 0.422480 0.445596 0.524307
C117  C     C_R   0.442943 0.577230 0.946196 0.533482
C118  C     C_R   0.133809 0.557005 0.946188 0.532393
C119  C     C_R   0.423104 0.865668 0.946179 0.531317
C120  C     C_R   0.929163 0.459328 0.589867 -0.074219
C121  C     C_R   0.539322 0.460450 0.591638 -0.070965
C122  C     C_R   0.532665 0.077177 0.591144 -0.077058
C123  C     C_R   0.459635 0.920560 0.090771 -0.056916
C124  C     C_R   0.463241 0.548430 0.092404 -0.057353
C125  C     C_R   0.422801 0.864610 0.054443 0.573449
C126  C     C_R   0.087749 0.540238 0.093008 -0.056282
C127  C     C_R   0.950477 0.394475 0.610411 0.264408
C128  C     C_R   0.599406 0.548798 0.611799 0.257454
C129  C     C_R   0.452225 0.066081 0.613575 0.265801
C130  C     C_R   0.391181 0.905915 0.120051 0.243120
C131  C     C_R   0.520252 0.622476 0.119566 0.245194
C132  C     C_R   0.106979 0.486206 0.120762 0.247730
C133  C     C_R   0.965442 0.404541 0.650511 0.250630
C134  C     C_R   0.591021 0.552576 0.652061 0.247768
C135  C     C_R   0.452801 0.054894 0.653734 0.246733
C136  C     C_R   0.973489 0.491788 0.713036 0.365560
C137  C     C_R   0.422627 0.927956 0.158543 0.231122
C138  C     C_R   0.511264 0.600446 0.159007 0.233830
C139  C     C_R   0.097260 0.499169 0.160192 0.234292
C140  C     C_R   0.973095 0.487257 0.669690 -0.032097
C141  C     C_R   0.515145 0.471878 0.672150 -0.029506
C142  C     C_R   0.529257 0.046147 0.671709 -0.025178
C143  C     C_R   0.523844 0.978313 0.167045 -0.014870
C144  C     C_R   0.457508 0.502373 0.171078 -0.018832
C145  C     C_R   0.054563 0.554507 0.171984 -0.016168
C146  C     C_R   0.983411 0.566490 0.646559 0.232791
C147  C     C_R   0.513427 0.469892 0.715495 0.371629
C148  C     C_R   0.439126 0.395000 0.650186 0.235129
C149  C     C_R   0.595662 0.033419 0.647894 0.240746
C150  C     C_R   0.594244 0.003803 0.137382 0.225722
C151  C     C_R   0.411739 0.425814 0.143613 0.227592
C152  C     C_R   0.022605 0.598534 0.144181 0.231068
C153  C     C_R   0.958466 0.551888 0.606657 -0.056849
C154  C     C_R   0.451435 0.387102 0.609930 -0.049538
C155  C     C_R   0.596628 0.047605 0.607266 -0.057138
C156  C     C_R   0.562198 0.976776 0.098722 -0.042642
C157  C     C_R   0.416584 0.448851 0.103754 -0.042274
C158  C     C_R   0.535478 0.045204 0.714883 0.379333
C159  C     C_R   0.036948 0.589315 0.104275 -0.039778
C160  C     C_R   0.982725 0.502386 0.791761 0.301042
C161  C     C_R   0.504803 0.475891 0.794084 0.299761
C162  C     C_R   0.530292 0.025650 0.793319 0.301768
C163  C     C_R   0.567473 0.057302 0.282592 0.326502
C164  C     C_R   0.478271 0.473968 0.289683 0.316934
C165  C     C_R   0.003022 0.531887 0.290465 0.319265
C166  C     C_3   0.035250 0.353402 0.568595 -0.129834
C167  C     C_3   0.627693 0.670614 0.569398 -0.127611
C168  C     C_3   0.314890 0.991115 0.575642 -0.118017
Cr1   Cr    Cr6+3 0.522350 0.263930 0.500020 0.993971
Cr2   Cr    Cr6+3 0.736070 0.258420 0.500020 0.997462
Cr3   Cr    Cr6+3 0.741580 0.477650 0.500020 0.992100
Cr4   Cr    Cr6+3 0.263930 0.522350 0.000020 1.003199
Cr5   Cr    Cr6+3 0.258420 0.736070 0.000020 1.008992
Cr6   Cr    Cr6+3 0.477650 0.741580 0.000020 1.010387
H1    H     H_    0.199397 0.678532 0.887397 0.135235
H2    H     H_    0.714305 0.200240 0.321664 0.140959
H3    H     H_    0.328852 0.931212 0.397115 0.136141
H4    H     H_    0.643589 0.750922 0.486980 0.143872
H5    H     H_    0.576110 0.784631 0.453687 0.148954
H6    H     H_    0.516993 0.715715 0.496873 0.126838
H7    H     H_    0.463437 0.610710 0.437200 0.154745
H8    H     H_    0.521630 0.572148 0.472597 0.156426
H9    H     H_    0.678172 0.650648 0.435242 0.165988
H10   H     H_    0.634996 0.710214 0.405519 0.139554
H11   H     H_    0.107034 0.352652 0.486469 0.142515
H12   H     H_    0.210603 0.425600 0.454964 0.149908
H13   H     H_    0.420640 0.315105 0.331190 0.133139
H14   H     H_    0.195901 0.477637 0.499187 0.128043
H15   H     H_    0.146054 0.536486 0.440405 0.153167
H16   H     H_    0.046716 0.472450 0.474242 0.159547
H17   H     H_    0.973412 0.322311 0.433643 0.166444
H18   H     H_    0.079785 0.370027 0.405533 0.141373
H19   H     H_    0.113558 0.422493 0.685136 0.080491
H20   H     H_    0.087516 0.332636 0.646977 0.118913
H21   H     H_    0.061832 0.295318 0.696571 0.151894
H22   H     H_    0.557501 0.663835 0.695626 0.098153
H23   H     H_    0.613205 0.725631 0.650296 0.095637
H24   H     H_    0.894897 0.581641 0.331709 0.133916
H25   H     H_    0.682726 0.762480 0.694595 0.150835
H26   H     H_    0.327471 0.916382 0.693476 0.075323
H27   H     H_    0.256368 0.937489 0.656642 0.116783
H28   H     H_    0.256831 0.972974 0.705820 0.161735
H29   H     H_    0.359327 0.786180 0.206878 0.113004
H30   H     H_    0.261688 0.762374 0.172387 0.140753
H31   H     H_    0.255015 0.795717 0.221393 0.145332
H32   H     H_    0.551673 0.779795 0.215771 0.154431
H33   H     H_    0.437142 0.682801 0.197392 0.100028
H34   H     H_    0.526289 0.775909 0.164984 0.146841
H35   H     H_    0.042781 0.291264 0.557966 0.125173
H36   H     H_    0.253411 0.577304 0.200553 0.113011
H37   H     H_    0.261943 0.494783 0.166200 0.138854
H38   H     H_    0.240881 0.463607 0.216639 0.154023
H39   H     H_    0.153245 0.730380 0.639100 0.075474
H40   H     H_    0.142476 0.665756 0.684109 0.109688
H41   H     H_    0.136327 0.775697 0.684418 0.141167
H42   H     H_    0.258593 0.353621 0.639119 0.079463
H43   H     H_    0.309883 0.421331 0.683855 0.108520
H44   H     H_    0.218964 0.293510 0.685105 0.150631
H45   H     H_    0.685558 0.902188 0.648167 0.121032
H46   H     H_    0.104137 0.403471 0.584720 0.074399
H47   H     H_    0.557141 0.867004 0.652527 0.063310
H48   H     H_    0.632744 0.891068 0.695033 0.157710
H49   H     H_    0.692572 0.925953 0.152026 0.122726
H50   H     H_    0.714596 0.998961 0.195657 0.142238
H51   H     H_    0.807796 0.036351 0.159487 0.130271
H52   H     H_    0.231775 0.326971 0.154114 0.134347
H53   H     H_    0.280590 0.323674 0.201689 0.132501
H54   H     H_    0.229594 0.218570 0.170873 0.134601
H55   H     H_    0.110483 0.777247 0.154489 0.138684
H56   H     H_    0.056583 0.732014 0.202012 0.133485
H57   H     H_    0.028236 0.391934 0.542890 0.129738
H58   H     H_    0.006338 0.785482 0.170285 0.133598
H59   H     H_    0.709999 0.156941 0.860149 0.142772
H60   H     H_    0.729368 0.187701 0.808963 0.187604
H61   H     H_    0.769646 0.108900 0.830091 0.166873
H62   H     H_    0.912833 0.274140 0.821091 0.201775
H63   H     H_    0.889256 0.245936 0.871452 0.165558
H64   H     H_    0.793966 0.341062 0.871776 0.112825
H65   H     H_    0.823993 0.368517 0.823278 0.158079
H66   H     H_    0.849831 0.560075 0.871143 0.144861
H67   H     H_    0.825889 0.542468 0.819487 0.182609
H68   H     H_    0.572021 0.681063 0.585313 0.075501
H69   H     H_    0.902162 0.664142 0.838878 0.164499
H70   H     H_    0.736431 0.636783 0.823094 0.205255
H71   H     H_    0.758366 0.651480 0.874202 0.152219
H72   H     H_    0.664637 0.460040 0.879357 0.123923
H73   H     H_    0.640230 0.455513 0.829621 0.156347
H74   H     H_    0.468782 0.297965 0.871780 0.141092
H75   H     H_    0.484122 0.291554 0.819945 0.182645
H76   H     H_    0.363334 0.250858 0.839850 0.167255
H77   H     H_    0.381337 0.108585 0.823332 0.205075
H78   H     H_    0.368815 0.115826 0.874510 0.151641
H79   H     H_    0.592790 0.624022 0.543504 0.127393
H80   H     H_    0.561072 0.205899 0.879319 0.122758
H81   H     H_    0.564475 0.186671 0.829679 0.159773
H82   H     H_    0.199367 0.799671 0.349886 0.141836
H83   H     H_    0.214541 0.787485 0.298490 0.175915
H84   H     H_    0.220926 0.704499 0.332946 0.158361
H85   H     H_    0.387503 0.827916 0.310064 0.192803
H86   H     H_    0.373934 0.837376 0.361043 0.156223
H87   H     H_    0.320751 0.971247 0.337153 0.126067
H88   H     H_    0.380414 0.971633 0.294751 0.179168
H89   H     H_    0.655116 0.855714 0.345404 0.145301
H90   H     H_    0.685418 0.743702 0.559064 0.120708
H91   H     H_    0.601294 0.822716 0.297306 0.184034
H92   H     H_    0.539848 0.849779 0.335433 0.156577
H93   H     H_    0.460604 0.669091 0.322973 0.187904
H94   H     H_    0.506518 0.702709 0.371328 0.155644
H95   H     H_    0.669250 0.708168 0.345269 0.124371
H96   H     H_    0.603903 0.656125 0.302934 0.181768
H97   H     H_    0.219864 0.369415 0.354944 0.141655
H98   H     H_    0.240749 0.413835 0.305374 0.180358
H99   H     H_    0.326151 0.485811 0.343431 0.161347
H100  H     H_    0.219984 0.554046 0.325458 0.183962
H101  H     H_    0.288728 0.922857 0.592882 0.072030
H102  H     H_    0.201961 0.512606 0.374687 0.158111
H103  H     H_    0.052575 0.344351 0.344657 0.124895
H104  H     H_    0.068440 0.413623 0.303467 0.179737
H105  H     H_    0.323089 0.518375 0.886324 0.133403
H106  H     H_    0.352436 0.986640 0.549136 0.119956
H107  H     H_    0.249042 0.994668 0.566250 0.129828
H108  H     H_    0.316905 0.991096 0.080466 0.114322
H109  H     H_    0.293589 0.992385 0.132251 0.158127
H110  H     H_    0.195718 0.916329 0.099906 0.103098
H111  H     H_    0.677456 0.683674 0.079251 0.110741
H112  H     H_    0.706728 0.718933 0.130105 0.156788
H113  H     H_    0.727754 0.808697 0.093997 0.106091
H114  H     H_    0.006923 0.327048 0.082259 0.116669
H115  H     H_    0.015713 0.302064 0.133423 0.157416
H116  H     H_    0.464270 0.793679 0.885409 0.130873
H117  H     H_    0.081852 0.276980 0.097495 0.104388
H118  H     H_    0.853610 0.771975 0.570853 0.181682
H119  H     H_    0.982535 0.812359 0.565922 0.130118
H120  H     H_    0.893832 0.722933 0.532396 0.140297
H121  H     H_    0.819801 0.600639 0.585191 0.237647
H122  H     H_    0.898484 0.689889 0.620322 0.231061
H123  H     H_    0.046743 0.702147 0.587992 0.138279
H124  H     H_    0.974177 0.622598 0.550692 0.133744
H125  H     H_    0.273255 0.205939 0.519630 0.155918
H126  H     H_    0.182806 0.200852 0.553574 0.147588
H127  H     H_    0.715712 0.250611 0.388027 0.130583
H128  H     H_    0.213462 0.276447 0.510802 0.132648
H129  H     H_    0.293816 0.377927 0.569248 0.137094
H130  H     H_    0.382497 0.384334 0.534882 0.167649
H131  H     H_    0.396345 0.253339 0.575497 0.222102
H132  H     H_    0.308619 0.250244 0.606795 0.202091
H133  H     H_    0.908138 0.124524 0.560087 0.162913
H134  H     H_    0.814185 0.997112 0.561202 0.134756
H135  H     H_    0.807687 0.078614 0.525736 0.140483
H136  H     H_    0.782134 0.171142 0.578185 0.246495
H137  H     H_    0.796347 0.097008 0.614273 0.234525
H138  H     H_    0.460289 0.301031 0.397251 0.135945
H139  H     H_    0.644956 0.948218 0.588186 0.124644
H140  H     H_    0.635271 0.017345 0.550411 0.135039
H141  H     H_    0.710586 0.981393 0.998701 0.153638
H142  H     H_    0.812228 0.074654 0.026878 0.145827
H143  H     H_    0.796905 0.953949 0.022191 0.131861
H144  H     H_    0.742637 0.976509 0.086611 0.171692
H145  H     H_    0.641701 0.882176 0.059419 0.221122
H146  H     H_    0.599091 0.014158 0.038148 0.124628
H147  H     H_    0.689527 0.096136 0.071162 0.170165
H148  H     H_    0.161300 0.206164 0.028300 0.131063
H149  H     H_    0.836512 0.535798 0.396831 0.144266
H150  H     H_    0.270450 0.195849 0.032905 0.145394
H151  H     H_    0.274096 0.295214 0.005111 0.152504
H152  H     H_    0.235963 0.262328 0.092859 0.168057
H153  H     H_    0.242500 0.362312 0.065231 0.225358
H154  H     H_    0.419840 0.400915 0.045246 0.122102
H155  H     H_    0.409491 0.317284 0.081769 0.171455
H156  H     H_    0.020020 0.728462 0.005508 0.154125
H157  H     H_    0.925784 0.733012 0.034204 0.144345
H158  H     H_    0.045574 0.841182 0.028715 0.131694
H159  H     H_    0.123433 0.760984 0.064759 0.222210
H160  H     H_    0.134427 0.656804 0.822564 0.136597
H161  H     H_    0.031479 0.768613 0.093230 0.170887
H162  H     H_    0.983056 0.584467 0.045859 0.119685
H163  H     H_    0.911048 0.596033 0.082668 0.170134
H164  H     H_    0.836312 0.226914 0.983643 0.147705
H165  H     H_    0.817227 0.183430 0.934127 0.151720
H166  H     H_    0.897886 0.164238 0.965628 0.139428
H167  H     H_    0.998403 0.300957 0.920878 0.165924
H168  H     H_    0.012634 0.341922 0.970050 0.186881
H169  H     H_    0.937261 0.434325 0.960198 0.113760
H170  H     H_    0.849108 0.351564 0.928233 0.136069
H171  H     H_    0.349426 0.475822 0.822348 0.139007
H172  H     H_    0.705524 0.484770 0.990016 0.147307
H173  H     H_    0.640830 0.534826 0.016284 0.152036
H174  H     H_    0.595979 0.404922 0.017297 0.138624
H175  H     H_    0.494056 0.441500 0.973232 0.159183
H176  H     H_    0.558259 0.392426 0.946751 0.150804
H177  H     H_    0.687745 0.561002 0.927695 0.137180
H178  H     H_    0.630769 0.614049 0.953787 0.163011
H179  H     H_    0.559037 0.236301 0.985088 0.150277
H180  H     H_    0.514684 0.127199 0.014700 0.150525
H181  H     H_    0.645380 0.209216 0.008801 0.138909
H182  H     H_    0.510831 0.861583 0.821423 0.140093
H183  H     H_    0.588549 0.060723 0.968235 0.158504
H184  H     H_    0.633301 0.169110 0.938816 0.153077
H185  H     H_    0.458597 0.131215 0.928217 0.137348
H186  H     H_    0.413231 0.025889 0.957017 0.157737
H187  H     H_    0.304497 0.903374 0.482760 0.144808
H188  H     H_    0.276743 0.805592 0.448660 0.146262
H189  H     H_    0.359149 0.827191 0.488857 0.129316
H190  H     H_    0.451667 0.891454 0.426986 0.146746
H191  H     H_    0.482066 0.986359 0.462097 0.195441
H192  H     H_    0.364912 0.030648 0.427352 0.167589
N1    N     N_R   0.968982 0.420918 0.773244 -0.242563
N2    N     N_R   0.527004 0.939231 0.234830 -0.273085
N3    N     N_R   0.429449 0.532880 0.237528 -0.254046
N4    N     N_R   0.113020 0.586460 0.238912 -0.256108
N5    N     N_R   0.984275 0.572150 0.731840 -0.164194
N6    N     N_R   0.430667 0.406068 0.734908 -0.167756
N7    N     N_R   0.586608 0.008238 0.732927 -0.184439
N8    N     N_R   0.589926 0.103339 0.217509 -0.160611
N9    N     N_R   0.489165 0.425781 0.226812 -0.157296
N10   N     N_R   0.944255 0.518977 0.227186 -0.159519
N11   N     N_R   0.989956 0.577902 0.770341 -0.245755
N12   N     N_R   0.589046 0.537603 0.775055 -0.241847
N13   N     N_R   0.426077 0.409329 0.773271 -0.247745
N14   N     N_R   0.583906 0.998364 0.771248 -0.252267
N15   N     N_R   0.597474 0.127486 0.254819 -0.203570
N16   N     N_R   0.500266 0.420989 0.264865 -0.209493
N17   N     N_R   0.927512 0.506749 0.265132 -0.211829
N18   N     N_R   0.481627 0.065541 0.775539 -0.246073
N19   N     N_R   0.534749 0.963373 0.272022 -0.269620
N20   N     N_R   0.440386 0.528012 0.275453 -0.268203
N21   N     N_R   0.096306 0.574258 0.276791 -0.269226
N22   N     N_R   0.963633 0.415546 0.734775 -0.169629
N23   N     N_R   0.593488 0.533917 0.736595 -0.165917
N24   N     N_R   0.485146 0.076086 0.737214 -0.161107
O1    O     O_R   0.498680 0.159540 0.541860 -0.475154
O2    O     O_R   0.358060 0.532760 0.040030 -0.500085
O3    O     O_R   0.174700 0.641940 0.040030 -0.501947
O4    O     O_R   0.467240 0.825300 0.040030 -0.502411
O5    O     O_R   0.498590 0.161190 0.456930 -0.540922
O6    O     O_R   0.838810 0.337400 0.456930 -0.536954
O7    O     O_R   0.662600 0.501410 0.456930 -0.530496
O8    O     O_R   0.161190 0.498590 0.956930 -0.530990
O9    O     O_R   0.337400 0.838810 0.956930 -0.527024
O10   O     O_R   0.501410 0.662600 0.956930 -0.527134
O11   O     O_R   0.532680 0.359580 0.461300 -0.521635
O12   O     O_R   0.840460 0.339140 0.541860 -0.480476
O13   O     O_R   0.640420 0.173100 0.461300 -0.508227
O14   O     O_R   0.826900 0.467320 0.461300 -0.512106
O15   O     O_R   0.359580 0.532680 0.961300 -0.509336
O16   O     O_R   0.173100 0.640420 0.961300 -0.507688
O17   O     O_R   0.467320 0.826900 0.961300 -0.508747
O18   O     O_3   0.666667 0.333333 0.499990 -0.247319
O19   O     O_3   0.333333 0.666667 0.999990 -0.239096
O20   O     O_3   0.950808 0.316453 0.592374 -0.539258
O21   O     O_3   0.672444 0.630929 0.593237 -0.537856
O22   O     O_3   0.376647 0.076017 0.597528 -0.518722
O23   O     O_R   0.660860 0.501320 0.541860 -0.481558
O24   O     O_3   0.292262 0.866944 0.111500 -0.557026
O25   O     O_3   0.581854 0.718327 0.108022 -0.553035
O26   O     O_3   0.139960 0.423421 0.109767 -0.556037
O27   O     O_3   0.964075 0.328391 0.670938 -0.495283
O28   O     O_3   0.662295 0.633971 0.671638 -0.498694
O29   O     O_3   0.382866 0.062455 0.675428 -0.484644
O30   O     O_3   0.354701 0.909626 0.187616 -0.546590
O31   O     O_3   0.563859 0.674184 0.185808 -0.541639
O32   O     O_3   0.120532 0.449250 0.187376 -0.546153
O33   O     O_3   0.011910 0.656756 0.663016 -0.533890
O34   O     O_R   0.159540 0.498680 0.041860 -0.480321
O35   O     O_3   0.356352 0.322211 0.668572 -0.512271
O36   O     O_3   0.665994 0.016386 0.664588 -0.526769
O37   O     O_3   0.694211 0.060148 0.145351 -0.556475
O38   O     O_3   0.367285 0.328635 0.155057 -0.548755
O39   O     O_3   0.972662 0.646060 0.155423 -0.551439
O40   O     O_R   0.339140 0.840460 0.041860 -0.480783
O41   O     O_R   0.501320 0.660860 0.041860 -0.476742
O42   O     O_R   0.532760 0.358060 0.540030 -0.512652
O43   O     O_R   0.641940 0.174700 0.540030 -0.506514
O44   O     O_R   0.825300 0.467240 0.540030 -0.510309

loop_
_geom_bond_atom_site_label_1
_geom_bond_atom_site_label_2
_ccdc_geom_bond_type
C166  H57   S    
C61   H60   S    
C96   C102  A    
C17   H144  S    
C41   H6    S    
C19   C20   S    
C136  C140  S    
C5    O26   S    
C103  O41   A    
C71   H84   S    
C57   C102  A    
C80   C107  A    
C75   H103  S    
C12   H139  S    
N7    N14   A    
C144  C151  A    
C31   H173  S    
C21   H150  S    
C10   H130  S    
C88   C108  A    
C58   O39   S    
C22   C159  S    
C87   C94   A    
C35   C80   A    
C161  N13   A    
C168  H101  S    
C66   H77   S    
C135  C142  A    
C167  O21   S    
C29   H178  S    
C57   C83   A    
C42   C86   S    
N8    N15   A    
Cr6   O4    S    
C130  O24   S    
C51   H37   S    
C74   H89   S    
C38   H187  S    
C88   C95   A    
C81   O43   A    
C59   C60   S    
C142  C158  S    
C5    H117  S    
C34   H180  S    
C113  O7    A    
C34   H181  S    
C123  C156  A    
C66   H78   S    
Cr3   O7    S    
Cr5   O19   S    
C121  C154  A    
C56   H54   S    
Cr2   O12   S    
C77   H99   S    
Cr1   O1    S    
C121  C128  A    
C26   H170  S    
C163  N15   A    
C69   H87   S    
C64   H67   S    
C52   H41   S    
C26   C80   S    
C49   H30   S    
C75   C76   S    
N12   N23   A    
C37   C38   S    
C147  N23   A    
C54   O36   S    
Cr4   O15   S    
C167  H68   S    
C77   H98   S    
C111  C113  S    
Cr5   O40   S    
C132  O26   S    
C15   H135  S    
C70   H85   S    
C46   C62   S    
C53   H42   S    
C6    H124  S    
C4    O25   S    
C152  O39   S    
C115  O13   A    
C168  H106  S    
Cr4   O8    S    
C40   H7    S    
C113  O11   A    
C45   H20   S    
Cr5   O9    S    
C32   C83   S    
C128  O21   S    
C72   C73   S    
C51   O32   S    
C11   H125  S    
C6    C7    S    
C4    H111  S    
C5    H114  S    
C89   C96   A    
C149  C155  A    
C29   C82   S    
C131  C138  A    
C56   O38   S    
C134  C141  A    
C90   H127  S    
C19   H154  S    
Cr4   O19   S    
C65   H81   S    
C55   O37   S    
C81   O1    A    
C91   C98   A    
C119  O17   A    
C69   C70   S    
C88   H105  S    
C64   H66   S    
C6    C153  S    
C62   H72   S    
C141  C147  S    
C93   C112  A    
C149  O36   S    
C22   H163  S    
C87   C107  A    
C20   C21   S    
C8    H119  S    
C116  O14   A    
C22   C23   S    
C162  N14   A    
C75   C79   S    
C160  N11   A    
C55   H50   S    
C50   H34   S    
C136  N22   A    
C139  O32   S    
C167  H79   S    
Cr2   O18   S    
C122  C155  A    
C163  N19   A    
C59   H65   S    
C150  O37   S    
C32   H185  S    
C7    C8    S    
C64   H69   S    
C126  C159  A    
C132  C139  A    
C92   O44   A    
C147  N6    A    
C142  C149  A    
C18   H142  S    
C36   C37   S    
C24   C145  S    
C114  C126  S    
C168  H107  S    
C48   H28   S    
C13   C144  S    
C72   C78   S    
C46   C82   A    
C9    H132  S    
C118  O8    A    
C133  O27   S    
C18   H143  S    
C114  O34   A    
C160  N1    A    
C82   C108  A    
N2    N19   A    
C9    C10   S    
C107  C118  S    
C39   H10   S    
C44   H11   S    
C1    O23   A    
C66   C67   S    
C152  C159  A    
C47   H25   S    
C51   H38   S    
C53   H43   S    
C63   H71   S    
C46   C101  A    
C4    H113  S    
C58   H58   S    
C39   C40   S    
Cr6   O19   S    
C16   C17   S    
C54   H47   S    
C16   H146  S    
C28   H164  S    
C79   C106  A    
N9    N16   A    
C1    O42   A    
C29   C30   S    
C58   H56   S    
C73   H94   S    
C128  C134  A    
C119  O9    A    
C94   C100  A    
C52   H40   S    
C17   C18   S    
C48   O29   S    
C93   H149  S    
C133  C140  A    
C138  O31   S    
C50   H32   S    
C78   C85   A    
C3    H110  S    
C95   H171  S    
C30   H175  S    
C123  C130  A    
C72   H95   S    
C61   H61   S    
Cr1   O5    S    
C35   C100  A    
C112  C116  S    
Cr1   O11   S    
C25   H156  S    
C99   C106  A    
C45   O27   S    
C122  C129  A    
C108  C117  S    
C41   H5    S    
C6    H123  S    
C3    O24   S    
C7    H122  S    
C71   H83   S    
C87   H1    S    
C94   H160  S    
C12   H140  S    
C55   H51   S    
C68   C104  A    
C92   C120  S    
Cr1   O18   S    
C138  C144  A    
C28   H165  S    
C8    H120  S    
C63   H70   S    
C99   H24   S    
C13   N9    A    
C161  N12   A    
C1    C121  S    
C24   N10   A    
C145  C152  A    
C126  C132  A    
C33   H184  S    
N1    N22   A    
C19   H155  S    
Cr4   O34   S    
C29   H177  S    
C20   H153  S    
C14   C15   S    
C47   H23   S    
C60   H63   S    
C151  O38   S    
C134  O28   S    
C158  N24   A    
C38   H188  S    
C27   H168  S    
C49   H29   S    
N5    N11   A    
N6    N13   A    
C73   C74   S    
C50   O31   S    
Cr6   O17   S    
C54   H45   S    
C91   H138  S    
C26   C27   S    
C48   H26   S    
Cr2   O13   S    
C151  C157  A    
C14   H136  S    
C30   C31   S    
C74   H91   S    
C123  C125  S    
C96   H182  S    
C38   H189  S    
C61   H59   S    
C162  N18   A    
Cr6   O10   S    
C42   H17   S    
C3    H108  S    
C165  N21   A    
C43   H16   S    
C68   C69   S    
C16   C156  S    
C137  O30   S    
C77   H97   S    
C70   C71   S    
C164  N20   A    
C125  O4    A    
C93   C99   A    
C90   C97   A    
C25   H158  S    
C70   H86   S    
C22   H162  S    
C17   H145  S    
C148  C154  A    
C103  C124  S    
C40   H8    S    
C45   H19   S    
C120  C127  A    
N3    N20   A    
C75   H104  S    
C68   C84   A    
C106  C165  S    
C47   H22   S    
C59   H64   S    
C31   H174  S    
C140  C146  A    
C10   H129  S    
C166  O20   S    
C11   H128  S    
C117  O15   A    
C16   H147  S    
C23   H161  S    
C15   H134  S    
C42   H18   S    
C13   N3    A    
C60   C61   S    
C116  O6    A    
C24   N4    A    
C62   C63   S    
C102  C162  S    
C124  C157  A    
C76   H100  S    
C49   H31   S    
C42   C43   S    
C166  H46   S    
C34   H179  S    
C109  C119  S    
C55   H49   S    
C114  O3    A    
Cr6   O41   S    
C168  O22   S    
C49   O30   S    
C56   H53   S    
Cr3   O18   S    
C127  C133  A    
C57   C65   S    
C26   H169  S    
C85   C111  A    
C32   H186  S    
Cr3   O44   S    
C69   H88   S    
C15   H133  S    
C37   H191  S    
C81   C122  S    
C32   C33   S    
C51   H36   S    
C146  C153  A    
C125  O40   A    
C127  O20   S    
C4    H112  S    
C97   C104  A    
C92   O12   A    
C67   H76   S    
C27   H167  S    
C117  O10   A    
C9    H131  S    
C37   H190  S    
C130  C137  A    
C110  C115  S    
C79   C86   A    
C39   H9    S    
C44   H12   S    
C45   H21   S    
C103  O2    A    
C158  N7    A    
N4    N21   A    
C60   H62   S    
C43   C44   S    
C31   H172  S    
C104  C163  S    
C148  O35   S    
N10   N17   A    
C11   H126  S    
C23   H159  S    
C131  O25   S    
C98   H13   S    
C98   C105  A    
C78   C105  A    
C115  O5    A    
C166  H35   S    
C36   H192  S    
C54   H48   S    
Cr2   O6    S    
C89   C109  A    
C76   H102  S    
C91   C111  A    
C52   H39   S    
C73   H93   S    
C141  C148  A    
C135  O29   S    
C143  C150  A    
C165  N17   A    
C129  O22   S    
C83   C109  A    
C50   H33   S    
C3    H109  S    
C137  C143  A    
C30   H176  S    
C97   H2    S    
C150  C156  A    
C65   H80   S    
C72   H96   S    
C2    C143  S    
Cr1   O42   S    
C35   C59   S    
C105  C164  S    
C19   C157  S    
C18   H141  S    
C76   C77   S    
C10   C11   S    
C7    H121  S    
C136  N5    A    
C48   H27   S    
C84   C110  A    
C63   C64   S    
C124  C131  A    
Cr3   O23   S    
C86   C112  A    
C146  O33   S    
N18   N24   A    
C21   H148  S    
C28   H166  S    
C67   H74   S    
C100  C160  S    
C129  C135  A    
C33   C34   S    
C2    N8    A    
C2    N2    A    
C44   H14   S    
C33   H183  S    
C40   C41   S    
C12   C14   S    
C9    C154  S    
C65   C66   S    
C52   O33   S    
C90   C110  A    
C12   C155  S    
C67   H75   S    
C8    H118  S    
C53   H44   S    
C118  O16   A    
C139  C145  A    
Cr2   O43   S    
C47   O28   S    
C36   H3    S    
C5    H115  S    
Cr4   O2    S    
C41   H4    S    
C53   O35   S    
C101  C161  S    
C14   H137  S    
C58   H55   S    
C74   H92   S    
C20   H152  S    
C62   H73   S    
C56   H52   S    
C36   C84   S    
Cr5   O3    S    
C120  C153  A    
C167  H90   S    
C23   C25   S    
C71   H82   S    
C95   C101  A    
C89   H116  S    
C43   H15   S    
Cr5   O16   S    
C27   C28   S    
C39   C85   S    
Cr3   O14   S    
C164  N16   A    
C21   H151  S    
C25   H157  S    
