data_mof_unit_20548.cif
_audit_creation_date              2012-12-10T19:18:42-0500
_audit_creation_method            fapswitch 2.2
_symmetry_space_group_name_H-M    P1
_symmetry_Int_Tables_number       1
_space_group_crystal_system       triclinic
_cell_length_a                    16.000668
_cell_length_b                    15.280588
_cell_length_c                    11.050267
_cell_angle_alpha                 89.310053
_cell_angle_beta                  89.489198
_cell_angle_gamma                 87.784873
_cell_volume                      2699.47484455

loop_
_atom_site_label
_atom_site_type_symbol
_atom_type_description
_atom_site_fract_x
_atom_site_fract_y
_atom_site_fract_z
_atom_type_partial_charge
C1    C     C_R   0.338327 0.501486 0.506110 0.946137
C2    C     C_3   0.958229 0.508071 0.369399 0.513569
C3    C     C_3   0.058822 0.491990 0.380813 0.577600
C4    C     C_1   0.826492 0.498417 0.505647 0.324055
C5    C     C_1   0.174604 0.503175 0.527587 0.108261
C6    C     C_R   0.496682 0.500621 0.256580 1.076911
C7    C     C_1   0.249621 0.504340 0.520797 -0.125997
C8    C     C_3   0.401393 0.054372 0.440615 0.482794
C9    C     C_3   0.407872 0.945286 0.443878 0.418919
C10   C     C_3   0.511351 0.057408 0.628049 0.521291
C11   C     C_3   0.508618 0.948357 0.639881 0.619030
C12   C     C_3   0.493205 0.501164 0.120148 -0.408868
C13   C     C_3   0.493006 0.090264 0.489128 -0.467350
C14   C     C_3   0.499485 0.910239 0.502797 -0.495579
C15   C     C_3   0.581036 0.944998 0.426644 0.640270
C16   C     C_3   0.568066 0.050194 0.401788 0.742548
C17   C     C_1   0.499195 0.808672 0.502491 0.477512
C18   C     C_1   0.494858 0.191683 0.490696 0.348303
C19   C     C_R   0.662090 0.498697 0.500483 0.880010
C20   C     C_R   0.504889 0.499034 0.743078 1.082197
C21   C     C_3   0.454014 0.570577 0.032428 0.297793
C22   C     C_3   0.460174 0.427831 0.039816 0.261710
C23   C     C_3   0.044274 0.588576 0.574216 0.186205
C24   C     C_3   0.422817 0.497930 0.951726 0.220365
C25   C     C_3   0.505184 0.497154 0.878839 -0.483485
C26   C     C_3   0.535964 0.571013 0.959213 0.245985
C27   C     C_3   0.543416 0.426537 0.966640 0.277062
C28   C     C_3   0.574861 0.501175 0.045229 0.259644
C29   C     C_3   0.431887 0.179134 0.732469 0.228354
C30   C     C_3   0.396518 0.184800 0.858825 -0.660962
C31   C     C_3   0.417468 0.949993 0.822321 0.306025
C32   C     C_3   0.386007 0.875763 0.900666 -0.586059
C33   C     C_3   0.606403 0.047045 0.187144 0.144156
C34   C     C_3   0.049689 0.418668 0.598063 0.179872
C35   C     C_3   0.605618 0.121057 0.094826 -0.633708
C36   C     C_3   0.618652 0.810677 0.314414 0.142472
C37   C     C_3   0.687699 0.794455 0.220216 -0.755784
C38   C     C_3   0.659550 0.172618 0.365092 0.018307
C39   C     C_3   0.701965 0.236034 0.445740 -0.523881
C40   C     C_3   0.734282 0.923174 0.434682 0.252983
C41   C     C_3   0.804589 0.972109 0.492831 -0.605042
C42   C     C_3   0.719231 0.504994 0.021416 0.274391
C43   C     C_3   0.771492 0.582431 0.048133 -0.583731
C44   C     C_3   0.126534 0.693277 0.666338 0.195393
C45   C     C_3   0.952532 0.404856 0.574785 0.581240
C46   C     C_3   0.159259 0.721761 0.787940 -0.667947
C47   C     C_3   0.139854 0.378700 0.760349 0.238812
C48   C     C_3   0.121557 0.284939 0.797499 -0.776198
C49   C     C_3   0.111610 0.543218 0.188306 0.270142
C50   C     C_3   0.130797 0.628927 0.123284 -0.677372
C51   C     C_3   0.164496 0.376090 0.336170 0.159703
C52   C     C_3   0.176611 0.307693 0.238184 -0.599690
C53   C     C_3   0.946924 0.583393 0.599233 0.522096
C54   C     C_1   0.751329 0.496971 0.502943 0.032670
C55   C     C_3   0.082525 0.499787 0.521605 -0.231808
C56   C     C_3   0.918188 0.498843 0.511037 -0.552368
H1    H     H_    0.085916 0.361207 0.563856 0.133152
H2    H     H_    0.386233 0.213208 0.672978 0.190967
H3    H     H_    0.485323 0.219617 0.727570 0.211704
H4    H     H_    0.434548 0.143654 0.922252 0.276197
H5    H     H_    0.399077 0.253970 0.883316 0.293063
H6    H     H_    0.330780 0.164532 0.863184 0.216720
H7    H     H_    0.363918 0.997784 0.821387 0.221092
H8    H     H_    0.468963 0.983853 0.865971 0.182868
H9    H     H_    0.341687 0.837037 0.848695 0.272180
H10   H     H_    0.438207 0.832978 0.932341 0.344038
H11   H     H_    0.353243 0.902628 0.981949 0.216761
H12   H     H_    0.053024 0.637873 0.502445 0.158453
H13   H     H_    0.589400 0.988095 0.136821 0.231976
H14   H     H_    0.670488 0.034842 0.220400 0.111637
H15   H     H_    0.665462 0.119554 0.043651 0.196653
H16   H     H_    0.551913 0.114098 0.034020 0.306843
H17   H     H_    0.597815 0.185780 0.137016 0.295723
H18   H     H_    0.565333 0.771471 0.286432 0.240891
H19   H     H_    0.640881 0.785035 0.403241 0.147936
H20   H     H_    0.750653 0.807450 0.254296 0.229641
H21   H     H_    0.689458 0.724433 0.194956 0.267467
H22   H     H_    0.676294 0.837264 0.139896 0.259076
H23   H     H_    0.273207 0.509835 0.048432 0.374808
H24   H     H_    0.602755 0.206539 0.328608 0.187209
H25   H     H_    0.704891 0.159838 0.290403 0.162890
H26   H     H_    0.753665 0.201582 0.495172 0.299936
H27   H     H_    0.725277 0.290334 0.388942 0.248616
H28   H     H_    0.657638 0.266285 0.510357 0.271996
H29   H     H_    0.731942 0.944393 0.339184 0.117440
H30   H     H_    0.755713 0.853537 0.441270 0.196483
H31   H     H_    0.809667 0.955869 0.590589 0.300676
H32   H     H_    0.864955 0.951798 0.449159 0.197984
H33   H     H_    0.796124 0.043714 0.478229 0.255850
H34   H     H_    0.924168 0.679832 0.117863 0.386776
H35   H     H_    0.263987 0.125322 0.175718 0.350796
H36   H     H_    0.325273 0.776813 0.305739 0.417841
H37   H     H_    0.286350 0.739039 0.020119 0.362722
H38   H     H_    0.293078 0.270031 0.040664 0.353724
H39   H     H_    0.659672 0.759044 0.965022 0.383670
H40   H     H_    0.722579 0.275211 0.006605 0.374819
H41   H     H_    0.701233 0.507192 0.924342 0.184213
H42   H     H_    0.759318 0.445030 0.035419 0.243852
H43   H     H_    0.778736 0.588045 0.147020 0.295740
H44   H     H_    0.833307 0.573011 0.004709 0.304902
H45   H     H_    0.922257 0.301164 0.182409 0.384499
H46   H     H_    0.742809 0.643510 0.011817 0.235512
H47   H     H_    0.004168 0.515988 0.909432 0.392922
H48   H     H_    0.801694 0.263233 0.739103 0.407874
H49   H     H_    0.080679 0.744943 0.634136 0.174433
H50   H     H_    0.179796 0.687675 0.601122 0.182182
H51   H     H_    0.193762 0.666517 0.832854 0.320181
H52   H     H_    0.201843 0.776713 0.774866 0.207969
H53   H     H_    0.106682 0.743774 0.847726 0.248149
H54   H     H_    0.163414 0.411137 0.841195 0.258380
H55   H     H_    0.190705 0.377937 0.691294 0.146917
H56   H     H_    0.222409 0.913192 0.662341 0.367320
H57   H     H_    0.180957 0.249592 0.822591 0.202712
H58   H     H_    0.079278 0.284627 0.877603 0.287443
H59   H     H_    0.093165 0.249988 0.721750 0.290498
H60   H     H_    0.937670 0.162640 0.560946 0.384376
H61   H     H_    0.756060 0.678121 0.603553 0.407269
H62   H     H_    0.055973 0.514823 0.148954 0.224504
H63   H     H_    0.163983 0.497262 0.168001 0.132402
H64   H     H_    0.192253 0.651455 0.152354 0.270432
H65   H     H_    0.131849 0.618846 0.024144 0.233178
H66   H     H_    0.083644 0.681659 0.142643 0.293048
H67   H     H_    0.238423 0.118243 0.690384 0.365649
H68   H     H_    0.179771 0.343113 0.423404 0.172642
H69   H     H_    0.210172 0.427504 0.320232 0.143508
H70   H     H_    0.240154 0.277138 0.244601 0.268376
H71   H     H_    0.131235 0.255125 0.249569 0.290723
H72   H     H_    0.167671 0.338490 0.147527 0.228438
H73   H     H_    0.671534 0.060397 0.857704 0.381026
H74   H     H_    0.618320 0.912303 0.916895 0.359694
N1    N     N_1   0.498630 0.731150 0.497460 -0.068441
N2    N     N_1   0.498630 0.268850 0.497460 -0.120015
O1    O     O_R   0.377210 0.574260 0.500130 -0.568133
O2    O     O_2   0.324858 0.416074 0.799047 -0.331375
O3    O     O_3   0.246715 0.504918 0.968476 -0.553926
O4    O     O_2   0.847745 0.649099 0.323314 -0.270035
O5    O     O_2   0.996815 0.683567 0.325365 -0.276149
O6    O     O_3   0.940529 0.618956 0.142208 -0.558356
O7    O     O_2   0.820615 0.418940 0.285179 -0.315887
O8    O     O_2   0.913838 0.466508 0.129805 -0.282284
O9    O     O_3   0.958538 0.332732 0.238009 -0.417648
O10   O     O_2   0.241059 0.897231 0.439724 -0.226775
O11   O     O_2   0.334485 0.796712 0.545809 -0.293473
O12   O     O_R   0.377210 0.425740 0.500130 -0.600247
O13   O     O_3   0.280941 0.931469 0.654386 -0.478458
O14   O     O_2   0.301858 0.199987 0.499422 -0.323850
O15   O     O_2   0.228561 0.067461 0.469466 -0.155779
O16   O     O_3   0.293147 0.088817 0.671293 -0.526995
O17   O     O_2   0.688790 0.066532 0.636238 -0.232104
O18   O     O_2   0.615931 0.197416 0.686793 -0.282432
O19   O     O_3   0.611534 0.071126 0.839233 -0.574479
O20   O     O_2   0.606413 0.795647 0.680848 -0.221958
O21   O     O_2   0.682327 0.921436 0.719088 -0.234933
O22   O     O_3   0.574885 0.880097 0.874736 -0.531837
O23   O     O_R   0.500050 0.574220 0.314080 -0.591090
O24   O     O_3   0.443739 0.089491 0.701576 -0.630736
O25   O     O_3   0.434257 0.921384 0.701320 -0.547827
O26   O     O_3   0.545639 0.066443 0.278880 -0.573356
O27   O     O_3   0.591364 0.900557 0.313487 -0.644038
O28   O     O_3   0.644476 0.092568 0.427871 -0.595419
O29   O     O_3   0.655830 0.932515 0.497591 -0.566892
O30   O     O_2   0.391384 0.199167 0.296245 -0.217228
O31   O     O_2   0.415574 0.069110 0.176611 -0.231364
O32   O     O_3   0.270678 0.099925 0.258141 -0.447393
O33   O     O_2   0.313892 0.929202 0.235263 -0.225087
O34   O     O_R   0.500050 0.425780 0.314080 -0.566198
O35   O     O_2   0.461988 0.909463 0.201369 -0.214842
O36   O     O_3   0.385672 0.787639 0.312515 -0.486489
O37   O     O_2   0.346434 0.633777 0.196152 -0.359114
O38   O     O_2   0.450676 0.732798 0.112156 -0.183730
O39   O     O_3   0.323983 0.695927 0.978395 -0.534893
O40   O     O_2   0.451656 0.260737 0.102630 -0.242766
O41   O     O_2   0.368530 0.366276 0.225192 -0.295989
O42   O     O_3   0.311824 0.328984 0.017629 -0.558433
O43   O     O_2   0.646536 0.641780 0.807528 -0.305891
O44   O     O_2   0.506556 0.712620 0.826821 -0.162394
O45   O     O_R   0.622930 0.574200 0.500140 -0.619675
O46   O     O_3   0.610604 0.731104 0.001828 -0.527256
O47   O     O_2   0.560518 0.257811 0.905213 -0.256838
O48   O     O_2   0.660223 0.357986 0.816090 -0.278282
O49   O     O_3   0.676695 0.311889 0.042770 -0.569868
O50   O     O_3   0.652109 0.503600 0.104891 -0.596365
O51   O     O_2   0.970927 0.656690 0.823750 -0.268670
O52   O     O_2   0.837104 0.596922 0.789901 -0.258048
O53   O     O_3   0.960943 0.494705 0.854494 -0.402724
O54   O     O_2   0.934739 0.332701 0.806850 -0.225320
O55   O     O_2   0.824223 0.440509 0.752890 -0.246792
O56   O     O_R   0.622930 0.425800 0.500140 -0.633097
O57   O     O_3   0.816886 0.294431 0.663414 -0.483565
O58   O     O_3   0.089115 0.611129 0.679787 -0.529581
O59   O     O_3   0.066812 0.426841 0.722751 -0.529716
O60   O     O_2   0.873556 0.287715 0.427913 -0.275569
O61   O     O_2   0.026171 0.272206 0.421164 -0.254928
O62   O     O_3   0.955154 0.215542 0.603512 -0.510375
O63   O     O_2   0.880054 0.747098 0.685922 -0.211263
O64   O     O_2   0.930648 0.755348 0.488396 -0.239980
O65   O     O_3   0.790137 0.680804 0.528426 -0.529327
O66   O     O_3   0.104310 0.557016 0.315041 -0.624579
O67   O     O_R   0.500090 0.574240 0.686180 -0.540850
O68   O     O_3   0.079625 0.406859 0.334845 -0.586415
O69   O     O_R   0.500090 0.425760 0.686180 -0.598705
O70   O     O_2   0.322917 0.575974 0.785609 -0.256705
S1    S     S_3+6 0.327131 0.498713 0.870847 0.069280
S2    S     S_3+6 0.392664 0.661315 0.083985 0.068007
S3    S     S_3+6 0.397901 0.343182 0.099923 0.048268
S4    S     S_3+6 0.576618 0.666255 0.893945 0.115010
S5    S     S_3+6 0.611112 0.335749 0.928041 0.054158
S6    S     S_3+6 0.929232 0.580406 0.767925 0.150509
S7    S     S_3+6 0.883444 0.371410 0.704900 0.150878
S8    S     S_3+6 0.951918 0.296617 0.498267 0.080500
S9    S     S_3+6 0.889257 0.693329 0.572969 0.107437
S10   S     S_3+6 0.934894 0.616861 0.293975 0.046747
S11   S     S_3+6 0.911257 0.431533 0.256528 0.099978
S12   S     S_3+6 0.315726 0.892354 0.521697 0.122985
S13   S     S_3+6 0.306526 0.102618 0.522097 0.114580
S14   S     S_3+6 0.609444 0.100134 0.693036 0.065137
S15   S     S_3+6 0.596103 0.887377 0.725969 0.121185
S16   S     S_3+6 0.373384 0.104300 0.288596 0.157791
S17   S     S_3+6 0.394088 0.896075 0.292662 0.120592
Zn1   Zn    Zn3+2 0.500090 0.599130 0.500180 1.144868
Zn2   Zn    Zn3+2 0.500090 0.400870 0.500180 1.084132

loop_
_geom_bond_atom_site_label_1
_geom_bond_atom_site_label_2
_ccdc_geom_bond_type
C40   H29   S    
C41   H33   S    
C21   C26   S    
O30   S16   D    
C24   S1    S    
O55   S7    D    
C8    C13   S    
C51   H68   S    
C17   N1    T    
C5    C55   S    
C18   N2    T    
C50   H66   S    
O69   Zn2   S    
H40   O49   S    
C8    S13   S    
C3    O66   S    
C6    O34   A    
C52   H72   S    
O2    S1    D    
C44   H49   S    
C42   O50   S    
C15   O27   S    
C46   H53   S    
C13   C18   S    
C12   C28   S    
C50   H64   S    
C29   H2    S    
C48   H58   S    
C34   O59   S    
O49   S5    S    
C43   H43   S    
C20   O69   A    
H73   O19   S    
O15   S13   D    
C42   H42   S    
C6    C12   S    
C38   C39   S    
C11   C14   S    
C16   O28   S    
C20   C25   S    
O44   S4    D    
C15   C16   S    
C12   C22   S    
C53   S6    S    
H56   O13   S    
C40   H30   S    
O39   S2    S    
C28   O50   S    
C36   O27   S    
C44   O58   S    
O4    S10   D    
O64   S9    D    
H45   O9    S    
H37   O39   S    
C29   H3    S    
C45   C56   S    
C8    C9    S    
C46   H52   S    
O42   S3    S    
O18   S14   D    
O48   S5    D    
C35   H17   S    
C19   O45   A    
O21   S15   D    
C6    O23   A    
C33   H13   S    
H60   O62   S    
O56   Zn2   S    
C9    S17   S    
C35   H15   S    
C34   C55   S    
C4    C56   S    
O51   S6    D    
O53   S6    S    
C26   S4    S    
C50   H65   S    
C3    C55   S    
C1    O1    A    
O34   Zn2   S    
O35   S17   D    
H34   O6    S    
C52   H71   S    
C44   C46   S    
C23   C53   S    
C49   O66   S    
C41   H31   S    
O47   S5    D    
O1    Zn1   S    
O70   S1    D    
O5    S10   D    
C16   O26   S    
C51   C52   S    
C51   H69   S    
C31   H7    S    
C24   C25   S    
O10   S12   D    
C51   O68   S    
C42   H41   S    
C10   O24   S    
C5    C7    T    
C52   H70   S    
O3    S1    S    
C25   C26   S    
C37   H21   S    
C12   C21   S    
C45   S7    S    
N2    Zn2   S    
C22   S3    S    
C30   H4    S    
N1    Zn1   S    
C23   H12   S    
C9    C14   S    
C20   O67   A    
O63   S9    D    
C29   C30   S    
O65   S9    S    
C36   H19   S    
C19   O56   A    
O62   S8    S    
C49   H62   S    
H36   O36   S    
H39   O46   S    
C47   C48   S    
C53   S9    S    
O20   S15   D    
C3    O68   S    
O23   Zn1   S    
H74   O22   S    
C34   C45   S    
C43   H44   S    
O22   S15   S    
O60   S8    D    
O12   Zn2   S    
C31   O25   S    
C36   H18   S    
C33   H14   S    
H38   O42   S    
C32   H11   S    
O8    S11   D    
C19   C54   S    
C40   C41   S    
C37   H20   S    
C35   H16   S    
O19   S14   S    
C29   O24   S    
C46   H51   S    
C22   C24   S    
H35   O32   S    
C30   H5    S    
C42   C43   S    
C21   C24   S    
O45   Zn1   S    
O9    S11   S    
C48   H59   S    
O16   S13   S    
H61   O65   S    
C33   O26   S    
C11   O25   S    
C32   H10   S    
C53   C56   S    
O32   S16   S    
C41   H32   S    
C11   S15   S    
O40   S3    D    
C4    C54   T    
C1    C7    S    
O38   S2    D    
C31   H8    S    
C15   O29   S    
C31   C32   S    
O67   Zn1   S    
O14   S13   D    
C39   H26   S    
C10   C13   S    
C39   H28   S    
O41   S3    D    
C23   C55   S    
C44   H50   S    
C9    S12   S    
C25   C27   S    
C47   H54   S    
H23   O3    S    
C37   H22   S    
C26   C28   S    
C45   S8    S    
O52   S6    D    
C22   C27   S    
C30   H6    S    
C2    C3    S    
C13   C16   S    
C43   H46   S    
C38   O28   S    
C40   O29   S    
C38   H25   S    
C1    O12   A    
C2    C56   S    
O37   S2    D    
C2    S10   S    
C10   S14   S    
O61   S8    D    
C49   H63   S    
C38   H24   S    
C36   C37   S    
O7    S11   D    
C34   H1    S    
C47   H55   S    
H48   O57   S    
O46   S4    S    
O6    S10   S    
C33   C35   S    
C27   S5    S    
O36   S17   S    
C47   O59   S    
O17   S14   D    
C8    S16   S    
C10   C11   S    
O33   S17   D    
C39   H27   S    
O13   S12   S    
O11   S12   D    
O31   S16   D    
H67   O16   S    
C2    S11   S    
C21   S2    S    
C49   C50   S    
H47   O53   S    
O54   S7    D    
C27   C28   S    
C14   C15   S    
C48   H57   S    
O57   S7    S    
O43   S4    D    
C23   O58   S    
C32   H9    S    
C14   C17   S    
