data_mof_unit_60207.cif
_audit_creation_date              2012-12-11T17:16:46-0500
_audit_creation_method            fapswitch 2.2
_symmetry_space_group_name_H-M    P1
_symmetry_Int_Tables_number       1
_space_group_crystal_system       triclinic
_cell_length_a                    8.331111
_cell_length_b                    16.377419
_cell_length_c                    18.856541
_cell_angle_alpha                 96.78989
_cell_angle_beta                  91.850146
_cell_angle_gamma                 93.510471
_cell_volume                      2547.95898038

loop_
_atom_site_label
_atom_site_type_symbol
_atom_type_description
_atom_site_fract_x
_atom_site_fract_y
_atom_site_fract_z
_atom_type_partial_charge
Ba1   Ba    Ba6+2 0.843980 0.537940 0.465850 1.628329
Ba2   Ba    Ba6+2 0.345840 0.462130 0.534150 1.630612
C1    C     C_3   0.791560 0.801391 0.232209 -0.211459
C2    C     C_3   0.721569 0.744049 0.284517 0.371994
C3    C     C_3   0.415285 0.223525 0.329143 0.255889
C4    C     C_3   0.387988 0.137737 0.352151 -0.427608
C5    C     C_3   0.103163 0.288055 0.731615 0.348119
C6    C     C_3   0.130062 0.265974 0.807004 -0.371148
C7    C     C_3   0.572755 0.244280 0.693627 0.373449
C8    C     C_3   0.551404 0.159536 0.719671 -0.196204
C9    C     C_2   0.314182 0.467068 0.266473 -0.176632
C10   C     C_3   0.387483 0.546137 0.244233 -0.014193
C11   C     C_2   0.334713 0.551891 0.166877 -0.063451
C12   C     C_3   0.190573 0.741527 0.285864 0.295036
C13   C     C_2   0.177881 0.525262 0.147867 -0.095813
C14   C     C_2   0.079729 0.489319 0.205059 -0.133418
C15   C     C_1   0.154826 0.467843 0.264052 0.054045
C16   C     C_R   0.027752 0.498565 0.928246 0.453667
C17   C     C_R   0.115197 0.518188 0.071018 0.459342
C18   C     C_R   0.077037 0.523459 0.799671 -0.127396
C19   C     C_R   0.029777 0.513964 0.726283 0.073843
C20   C     C_R   0.781673 0.440707 0.753257 0.014832
C21   C     C_R   0.830497 0.447290 0.825787 -0.152465
C22   C     C_R   0.979437 0.488482 0.850169 -0.075520
C23   C     C_3   0.275399 0.803555 0.242372 -0.229225
C24   C     C_R   0.884736 0.470198 0.703826 -0.284539
C25   C     C_R   0.377012 0.734416 0.482174 -0.288363
C26   C     C_R   0.524586 0.760763 0.515687 0.035183
C27   C     C_R   0.576962 0.844353 0.524872 -0.135308
C28   C     C_R   0.480874 0.902628 0.497976 0.246874
C29   C     C_R   0.330451 0.874915 0.464440 -0.174431
C30   C     C_R   0.277941 0.791021 0.458506 0.001348
C31   C     C_R   0.610246 0.151472 0.508717 -0.154978
C32   C     C_R   0.664928 0.233158 0.505201 0.001923
C33   C     C_R   0.710504 0.095618 0.536739 0.247013
C34   C     C_3   0.162330 0.724490 0.632359 0.290909
C35   C     C_R   0.814260 0.262306 0.536410 -0.283723
C36   C     C_R   0.916043 0.208656 0.564769 -0.002167
C37   C     C_R   0.864758 0.125223 0.564816 -0.165690
C38   C     C_3   0.091237 0.805751 0.660882 -0.226283
C39   C     C_3   0.967363 0.289348 0.382114 0.308818
C40   C     C_3   0.949495 0.194864 0.366280 -0.209702
C41   C     C_3   0.709675 0.640344 0.678722 0.316304
C42   C     C_3   0.727205 0.663611 0.759304 -0.396906
H1    H     H_    0.821929 0.708917 0.302338 0.114432
H2    H     H_    0.137269 0.824848 0.716800 0.133218
H3    H     H_    0.958164 0.796088 0.661761 0.127481
H4    H     H_    0.849419 0.313612 0.392306 0.042592
H5    H     H_    0.048047 0.305766 0.430461 0.033622
H6    H     H_    0.870099 0.169303 0.405317 0.059971
H7    H     H_    0.068355 0.169912 0.373264 0.088282
H8    H     H_    0.828721 0.626549 0.657854 -0.003202
H9    H     H_    0.624533 0.585127 0.667363 0.074780
H10   H     H_    0.890730 0.842380 0.259411 0.112108
H11   H     H_    0.815796 0.717265 0.772032 0.115519
H12   H     H_    0.769219 0.611578 0.785754 0.064101
H13   H     H_    0.609227 0.679812 0.780858 0.131739
H14   H     H_    0.311813 0.261729 0.340858 0.075427
H15   H     H_    0.419775 0.213908 0.270403 0.055803
H16   H     H_    0.324064 0.141595 0.402743 0.118139
H17   H     H_    0.309156 0.098100 0.311644 0.075732
H18   H     H_    0.504048 0.108805 0.357985 0.122385
H19   H     H_    0.844510 0.761365 0.188672 0.091013
H20   H     H_    0.381538 0.775973 0.218277 0.106381
H21   H     H_    0.160969 0.350608 0.729237 0.078379
H22   H     H_    0.971332 0.288388 0.720661 -0.057513
H23   H     H_    0.260813 0.268307 0.821027 0.153056
H24   H     H_    0.072402 0.310410 0.845693 0.085840
H25   H     H_    0.076666 0.202963 0.810946 0.106926
H26   H     H_    0.701231 0.256377 0.681657 -0.066193
H27   H     H_    0.497850 0.243097 0.643703 0.079160
H28   H     H_    0.570033 0.111175 0.674769 0.084897
H29   H     H_    0.426709 0.149447 0.737565 0.146160
H30   H     H_    0.126954 0.690366 0.249780 0.017278
H31   H     H_    0.958053 0.464145 0.190738 0.119295
H32   H     H_    0.188487 0.558550 0.817258 0.108664
H33   H     H_    0.749699 0.423279 0.863275 0.083761
H34   H     H_    0.845871 0.464706 0.648072 0.067387
H35   H     H_    0.491289 0.130883 0.488493 0.116577
H36   H     H_    0.254282 0.918489 0.443545 0.092114
H37   H     H_    0.691818 0.863066 0.552344 0.107799
H38   H     H_    0.285931 0.714271 0.316623 -0.036272
H39   H     H_    0.944990 0.083403 0.585636 0.084063
H40   H     H_    0.336709 0.669769 0.476402 0.074458
H41   H     H_    0.855817 0.325801 0.534059 0.064429
H42   H     H_    0.319401 0.858860 0.279360 0.093528
H43   H     H_    0.289772 0.736487 0.619488 0.008145
H44   H     H_    0.092680 0.696033 0.583662 0.060121
N1    N     N_R   0.127264 0.563450 0.957287 -0.253133
N2    N     N_R   0.169388 0.572904 0.026800 -0.262710
N3    N     N_R   0.013795 0.453687 0.042191 -0.254083
N4    N     N_R   0.970935 0.444273 0.972487 -0.264028
N5    N     N_2   0.529787 0.988357 0.502905 -0.240560
N6    N     N_2   0.663196 0.009659 0.534392 -0.237351
O1    O     O_2   0.875590 0.454550 0.328720 -0.482048
O2    O     O_3   0.651486 0.707210 0.648495 -0.635242
O3    O     O_3   0.077889 0.781992 0.329208 -0.629314
O4    O     O_2   0.314110 0.545480 0.671320 -0.447801
O5    O     O_3   0.061730 0.544170 0.583900 -0.504062
O6    O     O_3   0.555240 0.398120 0.628310 -0.486296
O7    O     O_3   0.159027 0.675505 0.688278 -0.645152
O8    O     O_3   0.629280 0.402460 0.464250 -0.453466
O9    O     O_3   0.140510 0.356300 0.593010 -0.480582
O10   O     O_2   0.247315 0.209491 0.548592 -0.499672
O11   O     O_3   0.172429 0.230054 0.682867 -0.599154
O12   O     O_3   0.127960 0.455900 0.416100 -0.479612
O13   O     O_3   0.560420 0.597610 0.535760 -0.476839
O14   O     O_2   0.379340 0.302240 0.465940 -0.459606
O15   O     O_3   0.563164 0.264566 0.355735 -0.652453
O16   O     O_2   0.451113 0.458483 0.754907 -0.484145
O17   O     O_3   0.521408 0.304540 0.745831 -0.602458
O18   O     O_3   0.634460 0.601950 0.371690 -0.487230
O19   O     O_2   0.732597 0.549816 0.239924 -0.507954
O20   O     O_3   0.031286 0.322924 0.323684 -0.650903
O21   O     O_3   0.599206 0.690209 0.249149 -0.636465
O22   O     O_2   0.810360 0.697790 0.534100 -0.473627
O23   O     O_3   0.049190 0.643760 0.407000 -0.478970
O24   O     O_2   0.942563 0.791632 0.451932 -0.501014
P1    P     P_3+3 0.048660 0.430750 0.339650 0.980743
P2    P     P_3+3 0.638170 0.686040 0.555200 0.988090
P3    P     P_3+3 0.085603 0.751362 0.414760 0.922285
P4    P     P_3+3 0.141040 0.569320 0.660360 0.985268
P5    P     P_3+3 0.119415 0.249848 0.596314 0.946803
P6    P     P_3+3 0.592471 0.591773 0.278461 0.911999
P7    P     P_3+3 0.560001 0.297845 0.447658 0.954155
P8    P     P_3+3 0.577137 0.401645 0.721312 0.945163
C43   C     C_3   0.134302 0.876197 0.617686 -0.490493
H45   H     H_    0.266932 0.886018 0.615428 0.134335
H46   H     H_    0.079031 0.863185 0.563224 0.165684
H47   H     H_    0.086765 0.933755 0.643575 0.142614
C44   C     C_3   0.882063 0.163598 0.290905 -0.372597
H48   H     H_    0.965673 0.182320 0.250164 0.137509
H49   H     H_    0.867682 0.095236 0.284643 0.105060
H50   H     H_    0.762946 0.187497 0.281230 0.154335
C45   C     C_3   0.656896 0.793538 0.349821 -0.321850
H51   H     H_    0.539713 0.817592 0.337365 0.073933
H52   H     H_    0.640932 0.753007 0.391814 0.123827
H53   H     H_    0.742266 0.846092 0.370839 0.116592
C46   C     C_R   0.676825 0.856818 0.200730 0.077913
C47   C     C_R   0.638184 0.931263 0.239675 -0.085464
C48   C     C_R   0.548138 0.986820 0.207005 -0.081737
C49   C     C_R   0.495471 0.968815 0.135535 -0.048750
C50   C     C_R   0.535235 0.895796 0.096150 -0.071487
C51   C     C_R   0.627951 0.841044 0.128276 -0.045539
H54   H     H_    0.681940 0.947799 0.294436 0.064291
H55   H     H_    0.521695 0.044615 0.236527 0.065391
H56   H     H_    0.425722 0.011951 0.110472 0.059229
H57   H     H_    0.497474 0.882480 0.040309 0.063678
H58   H     H_    0.666965 0.787764 0.096160 0.058126
C52   C     C_3   0.671075 0.150906 0.780918 -0.421746
H59   H     H_    0.655737 0.198684 0.826714 0.153735
H60   H     H_    0.650495 0.089189 0.799070 0.123078
H61   H     H_    0.796138 0.157122 0.762661 0.122481
C53   C     C_R   0.456059 0.558444 0.111604 0.088168
C54   C     C_R   0.518498 0.486490 0.078583 -0.058241
C55   C     C_R   0.611703 0.489081 0.018645 -0.040067
C56   C     C_R   0.643951 0.563623 0.991209 -0.030852
C57   C     C_R   0.583573 0.635610 0.024012 -0.064994
C58   C     C_R   0.491340 0.633412 0.084644 0.004783
H62   H     H_    0.489684 0.427826 0.097275 0.077097
H63   H     H_    0.654915 0.432754 0.992455 0.089442
H64   H     H_    0.713141 0.565571 0.943834 0.062589
H65   H     H_    0.604676 0.692465 0.000882 0.051911
H66   H     H_    0.440174 0.688840 0.108088 0.062649
C59   C     C_R   0.388075 0.390452 0.234988 -0.027808
C60   C     C_R   0.550745 0.381727 0.250126 -0.009765
C61   C     C_R   0.635501 0.322682 0.209829 -0.043725
C62   C     C_R   0.555462 0.268561 0.155483 -0.098414
C63   C     C_R   0.390320 0.272796 0.142370 -0.095411
C64   C     C_R   0.306544 0.333075 0.181852 -0.068186
H67   H     H_    0.609824 0.421099 0.293828 0.124386
H68   H     H_    0.762590 0.318396 0.221273 0.086050
H69   H     H_    0.620542 0.222416 0.124576 0.068641
H70   H     H_    0.327614 0.230198 0.100895 0.071926
H71   H     H_    0.180193 0.336537 0.168426 0.074883
C65   C     C_R   0.172076 0.828367 0.182570 0.064067
C66   C     C_R   0.129385 0.910249 0.183604 -0.044512
C67   C     C_R   0.040977 0.934008 0.126062 -0.070811
C68   C     C_R   0.995848 0.876566 0.066875 -0.064280
C69   C     C_R   0.038183 0.795133 0.065309 -0.068446
C70   C     C_R   0.126317 0.771146 0.122807 -0.076457
H72   H     H_    0.164550 0.955679 0.228798 0.058796
H73   H     H_    0.007637 0.996994 0.127335 0.060255
H74   H     H_    0.927115 0.895021 0.022447 0.062103
H75   H     H_    0.002419 0.750541 0.019640 0.086857
H76   H     H_    0.158168 0.708032 0.121086 0.074153

loop_
_geom_bond_atom_site_label_1
_geom_bond_atom_site_label_2
_ccdc_geom_bond_type
C7    O17   S    
C38   H3    S    
C19   C24   A    
N5    N6    D    
O12   P1    S    
C45   H53   S    
C32   C35   A    
C39   C40   S    
C2    O21   S    
C33   C37   A    
C42   H11   S    
C58   H66   S    
C39   O20   S    
O8    P7    S    
O9    P5    S    
Ba1   O5    S    
C67   C68   A    
C5    C6    S    
C59   C60   A    
C34   H44   S    
C13   C17   S    
C10   C11   S    
O11   P5    S    
C6    H25   S    
C24   H34   S    
C3    H14   S    
C16   C22   S    
C12   H30   S    
C4    H17   S    
C35   H41   S    
C25   H40   S    
C35   C36   A    
O18   P6    S    
C28   N5    S    
Ba1   O18   S    
Ba1   P1    S    
C3    C4    S    
C1    H10   S    
C41   H8    S    
C20   P8    S    
Ba2   O8    S    
C50   C51   A    
C14   H31   S    
Ba2   O13   S    
C65   C70   A    
C18   H32   S    
C45   H52   S    
Ba1   Ba2   S    
C63   C64   A    
C19   P4    S    
O23   P3    S    
O3    P3    S    
C62   C63   A    
C41   H9    S    
C56   C57   A    
C18   C22   A    
C14   C15   D    
C52   H61   S    
C21   C22   A    
C5    O11   S    
C40   C44   S    
Ba1   O22   S    
O14   P7    D    
C7    C8    S    
O20   P1    S    
Ba1   O12   S    
C2    H1    S    
C44   H50   S    
C25   C30   A    
Ba2   O6    S    
C60   H67   S    
C60   C61   A    
C62   H69   S    
C49   H56   S    
C39   H5    S    
C31   C32   A    
C64   H71   S    
Ba2   P4    S    
C34   H43   S    
C50   H57   S    
C13   C14   S    
C3    H15   S    
C4    H16   S    
C45   H51   S    
C70   H76   S    
C47   C48   A    
C29   H36   S    
C26   P2    S    
C61   C62   A    
O10   P5    D    
C31   H35   S    
O1    P1    D    
C38   C43   S    
Ba2   O12   S    
O22   P2    D    
C34   O7    S    
Ba1   P2    S    
C55   C56   A    
C63   H70   S    
C38   H2    S    
C41   C42   S    
C43   H46   S    
C27   H37   S    
C27   C28   A    
C5    H21   S    
C46   C51   A    
C42   H12   S    
C29   C30   A    
C10   P6    S    
C34   C38   S    
C42   H13   S    
Ba1   O1    S    
O17   P8    S    
C41   O2    S    
Ba1   O23   S    
C21   H33   S    
C53   C54   A    
C61   H68   S    
C57   H65   S    
O16   P8    D    
C2    C45   S    
C8    H29   S    
C48   H55   S    
O15   P7    S    
C65   C66   A    
C40   H6    S    
Ba2   O5    S    
C6    H24   S    
O5    P4    S    
C57   C58   A    
O6    P8    S    
C7    H27   S    
C1    C46   S    
C12   H38   S    
C1    C2    S    
C26   C27   A    
O13   P2    S    
N3    N4    A    
C69   C70   A    
C12   O3    S    
C68   H74   S    
C33   N6    S    
C59   C64   A    
O4    P4    D    
C28   C29   A    
C9    C15   D    
C7    H26   S    
O21   P6    S    
C51   H58   S    
C54   H62   S    
C20   C21   A    
C16   N1    A    
C30   P3    S    
O2    P2    S    
C67   H73   S    
C44   H49   S    
C47   H54   S    
C55   H63   S    
C46   C47   A    
C43   H45   S    
C1    H19   S    
C40   H7    S    
O7    P4    S    
C52   H59   S    
C16   N4    A    
C4    H18   S    
C11   C13   D    
C43   H47   S    
C37   H39   S    
C53   C58   A    
C17   N2    A    
C48   C49   A    
C8    C52   S    
C5    H22   S    
C23   H20   S    
C23   C65   S    
C36   C37   A    
O19   P6    D    
C3    O15   S    
Ba2   O9    S    
C32   P7    S    
C56   H64   S    
Ba2   O14   S    
C23   H42   S    
C31   C33   A    
C39   H4    S    
C52   H60   S    
C12   C23   S    
C44   H48   S    
C11   C53   S    
C17   N3    A    
C69   H75   S    
C15   P1    S    
C68   C69   A    
Ba1   O13   S    
C18   C19   A    
Ba2   O4    S    
C6    H23   S    
C66   C67   A    
C20   C24   A    
C36   P5    S    
C54   C55   A    
C9    C59   S    
C49   C50   A    
N1    N2    A    
Ba1   O8    S    
O24   P3    D    
C66   H72   S    
C9    C10   S    
C25   C26   A    
C8    H28   S    
