data_mof_unit_5724.cif
_audit_creation_date              2012-12-11T17:44:00-0500
_audit_creation_method            fapswitch 2.2
_symmetry_space_group_name_H-M    P1
_symmetry_Int_Tables_number       1
_space_group_crystal_system       triclinic
_cell_length_a                    20.114068
_cell_length_b                    22.703534
_cell_length_c                    6.951442
_cell_angle_alpha                 90.000166
_cell_angle_beta                  87.687395
_cell_angle_gamma                 90.000023
_cell_volume                      3171.86301502

loop_
_atom_site_label
_atom_site_type_symbol
_atom_type_description
_atom_site_fract_x
_atom_site_fract_y
_atom_site_fract_z
_atom_type_partial_charge
O1    O     O_R   0.751270 0.447300 0.600030 -0.537451
O2    O     O_R   0.248730 0.947300 0.399970 -0.537452
O3    O     O_R   0.613530 0.440160 0.952150 -0.541130
O4    O     O_R   0.386470 0.940160 0.047850 -0.541138
O5    O     O_R   0.613050 0.552700 0.122560 -0.534451
O6    O     O_R   0.386950 0.052700 0.877440 -0.534460
C1    C     C_R   0.590731 0.426044 0.785359 0.704147
C2    C     C_R   0.409269 0.926043 0.214640 0.704114
O7    O     O_R   0.750780 0.440350 0.929820 -0.541729
O8    O     O_R   0.249220 0.940350 0.070180 -0.541729
O9    O     O_R   0.751280 0.552900 0.100070 -0.537312
O10   O     O_R   0.248720 0.052900 0.899930 -0.537313
C3    C     C_R   0.774044 0.426284 0.758431 0.720334
C4    C     C_R   0.225957 0.926283 0.241569 0.720329
O11   O     O_R   0.613040 0.447100 0.622520 -0.537175
O12   O     O_R   0.386960 0.947100 0.377480 -0.537167
O13   O     O_3   0.682160 0.536920 0.777780 -0.365865
O14   O     O_3   0.317840 0.036920 0.222220 -0.365858
V1    V     V_3+5 0.682160 0.493150 0.052630 1.407883
V2    V     V_3+5 0.317840 0.993150 0.947370 1.407885
O15   O     O_R   0.750790 0.559840 0.429870 -0.544315
O16   O     O_R   0.249210 0.059840 0.570130 -0.544318
C5    C     C_R   0.773396 0.574653 0.258496 0.697965
C6    C     C_R   0.226603 0.074652 0.741504 0.697960
O17   O     O_R   0.613540 0.559650 0.452200 -0.540115
O18   O     O_R   0.386460 0.059650 0.547800 -0.540090
C7    C     C_R   0.591552 0.574445 0.285771 0.683156
C8    C     C_R   0.408448 0.074446 0.714230 0.683178
V3    V     V_3+5 0.682160 0.506850 0.552630 1.404424
V4    V     V_3+5 0.317840 0.006850 0.447370 1.404460
O19   O     O_3   0.682150 0.463080 0.277610 -0.365172
O20   O     O_3   0.317850 0.963080 0.722390 -0.365175
C9    C     C_R   0.582033 0.863240 0.274312 -0.188997
C10   C     C_R   0.417969 0.363242 0.725626 -0.188998
H1    H     H_    0.673569 0.779380 0.286846 0.119852
H2    H     H_    0.326432 0.279382 0.713076 0.119847
H3    H     H_    0.631901 0.878619 0.300782 0.111443
H4    H     H_    0.368102 0.378621 0.699133 0.111446
C11   C     C_R   0.465716 0.884312 0.222602 -0.067398
C12   C     C_R   0.534284 0.384312 0.777389 -0.067430
C13   C     C_R   0.471697 0.596201 0.287044 -0.191763
C14   C     C_R   0.528303 0.096200 0.713000 -0.191796
C15   C     C_R   0.417897 0.634439 0.278499 -0.136205
C16   C     C_R   0.582103 0.134438 0.721551 -0.136063
C17   C     C_R   0.427942 0.694915 0.258800 -0.156025
C18   C     C_R   0.572057 0.194915 0.741233 -0.156059
C19   C     C_R   0.492793 0.719100 0.251836 0.083579
C20   C     C_R   0.507206 0.219101 0.748168 0.083569
C21   C     C_R   0.547879 0.679627 0.267777 0.072040
C22   C     C_R   0.452120 0.179627 0.732210 0.072050
C23   C     C_R   0.504520 0.781322 0.238651 0.072933
C24   C     C_R   0.495479 0.281323 0.761340 0.072942
C25   C     C_R   0.570083 0.802598 0.259800 0.118190
C26   C     C_R   0.429917 0.302599 0.740158 0.118184
C27   C     C_R   0.623221 0.763229 0.273794 -0.194455
C28   C     C_R   0.376778 0.263230 0.726150 -0.194454
C29   C     C_R   0.612553 0.702738 0.273915 -0.195519
C30   C     C_R   0.387447 0.202740 0.726041 -0.195496
C31   C     C_R   0.453495 0.823388 0.209451 -0.247984
C32   C     C_R   0.546503 0.323389 0.790561 -0.247984
C33   C     C_R   0.530038 0.904192 0.266346 0.079018
C34   C     C_R   0.469965 0.404192 0.733603 0.079048
C35   C     C_R   0.536783 0.617834 0.281176 -0.084535
C36   C     C_R   0.463217 0.117834 0.718831 -0.084587
H5    H     H_    0.403341 0.810128 0.180994 0.105129
H6    H     H_    0.596654 0.310128 0.819049 0.105135
H7    H     H_    0.462447 0.549290 0.297920 0.105327
H8    H     H_    0.537553 0.049289 0.702140 0.105352
H9    H     H_    0.383856 0.721779 0.254785 0.114077
H10   H     H_    0.616144 0.221779 0.745257 0.114078
H11   H     H_    0.367799 0.616918 0.284787 0.128200
H12   H     H_    0.632201 0.116917 0.715286 0.128223
H13   H     H_    0.655346 0.674213 0.285711 0.108706
H14   H     H_    0.344653 0.174215 0.714234 0.108705
C37   C     C_R   0.170220 0.883288 0.257665 -0.098559
C38   C     C_R   0.829783 0.383291 0.742332 -0.098559
C39   C     C_R   0.163719 0.838285 0.120437 -0.306652
C40   C     C_R   0.836289 0.338290 0.879562 -0.306652
C41   C     C_R   0.111196 0.797017 0.137672 0.478082
C42   C     C_R   0.888813 0.297023 0.862324 0.478085
C43   C     C_R   0.064496 0.801003 0.294248 0.346136
C44   C     C_R   0.935511 0.301011 0.705740 0.346135
C45   C     C_R   0.070821 0.846228 0.429257 -0.289250
C46   C     C_R   0.929180 0.346233 0.570728 -0.289259
C47   C     C_R   0.123213 0.886681 0.412260 -0.199713
C48   C     C_R   0.876787 0.386684 0.587729 -0.199708
C49   C     C_R   0.881047 0.707032 0.381283 0.074887
C50   C     C_R   0.118954 0.207034 0.618735 0.074897
C51   C     C_R   0.834245 0.660702 0.395836 -0.230201
C52   C     C_R   0.165753 0.160702 0.604170 -0.230186
C53   C     C_R   0.924884 0.710164 0.215063 0.398900
C54   C     C_R   0.075116 0.210163 0.784954 0.398881
N1    N     N_2   0.013632 0.757957 0.325452 -0.300207
N2    N     N_2   0.986381 0.257969 0.674531 -0.300222
N3    N     N_2   0.975790 0.753619 0.187991 -0.286494
N4    N     N_2   0.024203 0.253613 0.812030 -0.286478
C55   C     C_R   0.825880 0.620924 0.243673 -0.072848
C56   C     C_R   0.174119 0.120923 0.756331 -0.072852
H15   H     H_    0.802297 0.657083 0.524568 0.136723
H16   H     H_    0.197700 0.157082 0.475435 0.136715
H17   H     H_    0.034973 0.850024 0.548930 0.134816
H18   H     H_    0.965025 0.350029 0.451049 0.134818
H19   H     H_    0.126738 0.920954 0.519776 0.142318
H20   H     H_    0.873258 0.420956 0.480209 0.142319
C57   C     C_R   0.866547 0.626990 0.076152 -0.208254
C58   C     C_R   0.133455 0.126989 0.923856 -0.208245
C59   C     C_R   0.915634 0.670630 0.063337 -0.194838
C60   C     C_R   0.084368 0.170629 0.936676 -0.194841
H21   H     H_    0.861117 0.597385 0.955617 0.138959
H22   H     H_    0.138886 0.097384 0.044389 0.138959
H23   H     H_    0.947275 0.673498 0.933843 0.137438
H24   H     H_    0.052727 0.173495 0.066171 0.137436
H25   H     H_    0.200825 0.833797 0.004079 0.143470
H26   H     H_    0.799182 0.333800 0.995919 0.143469
C61   C     C_3   0.543368 0.967459 0.323169 -0.382611
C62   C     C_3   0.546680 0.009492 0.150732 -0.318480
C63   C     C_3   0.553346 0.073044 0.219556 -0.722980
H27   H     H_    0.507896 0.086399 0.304428 0.238806
H28   H     H_    0.597473 0.077837 0.309305 0.226554
H29   H     H_    0.559486 0.103164 0.095301 0.232240
H30   H     H_    0.590307 0.998111 0.054633 0.192216
H31   H     H_    0.501136 0.005809 0.066656 0.200154
H32   H     H_    0.504460 0.982091 0.430501 0.182137
H33   H     H_    0.591255 0.970498 0.397325 0.167656
C64   C     C_3   0.456642 0.467458 0.676755 -0.382607
C65   C     C_3   0.453292 0.509488 0.849204 -0.318506
C66   C     C_3   0.446712 0.573047 0.780361 -0.722385
H34   H     H_    0.492277 0.586409 0.695861 0.238697
H35   H     H_    0.402668 0.577849 0.690149 0.226498
H36   H     H_    0.440436 0.603156 0.904692 0.232144
H37   H     H_    0.409614 0.498132 0.945144 0.192177
H38   H     H_    0.498795 0.505772 0.933463 0.200083
H39   H     H_    0.495570 0.482093 0.569482 0.182164
H40   H     H_    0.408769 0.470493 0.602514 0.167580
C67   C     C_3   0.879571 0.752736 0.540960 -0.352581
C68   C     C_3   0.813412 0.786676 0.550170 -0.326446
C69   C     C_3   0.811917 0.832143 0.712039 -0.756537
H41   H     H_    0.817615 0.810106 0.853160 0.231758
H42   H     H_    0.852592 0.864753 0.688175 0.229677
H43   H     H_    0.763567 0.855811 0.715554 0.216663
H44   H     H_    0.806707 0.809605 0.410921 0.196843
H45   H     H_    0.770916 0.756033 0.575808 0.195988
H46   H     H_    0.886603 0.730048 0.680292 0.173835
H47   H     H_    0.919747 0.785664 0.522574 0.208165
C70   C     C_3   0.120438 0.252744 0.459077 -0.352581
C71   C     C_3   0.186611 0.286663 0.449830 -0.326442
C72   C     C_3   0.188099 0.332155 0.288034 -0.756485
H48   H     H_    0.182368 0.310140 0.146880 0.231748
H49   H     H_    0.147439 0.364777 0.312006 0.229659
H50   H     H_    0.236461 0.355807 0.284496 0.216654
H51   H     H_    0.193352 0.309567 0.589106 0.196825
H52   H     H_    0.229091 0.256008 0.424078 0.195979
H53   H     H_    0.113382 0.230067 0.319741 0.173830
H54   H     H_    0.080279 0.285688 0.477514 0.208178
O21   O     O_3   0.109758 0.748709 0.016660 -0.540846
C73   C     C_3   0.092018 0.767402 0.832488 -0.210926
H55   H     H_    0.132080 0.794453 0.761879 0.134878
H56   H     H_    0.044018 0.791903 0.839065 0.133719
H57   H     H_    0.085051 0.727956 0.741312 0.176446
O22   O     O_3   0.890248 0.248711 0.983318 -0.540846
C74   C     C_3   0.907982 0.267395 0.167505 -0.210911
H58   H     H_    0.867930 0.294462 0.238097 0.134859
H59   H     H_    0.955996 0.291878 0.160952 0.133744
H60   H     H_    0.914922 0.227943 0.258681 0.176446

loop_
_geom_bond_atom_site_label_1
_geom_bond_atom_site_label_2
_ccdc_geom_bond_type
C64   H40   S    
C65   C66   S    
C21   C35   A    
C49   C53   A    
C22   C36   A    
C72   H48   S    
C10   C34   A    
O4    C2    A    
V1    O19   S    
C70   C71   S    
C12   C34   A    
C67   C68   S    
C19   C21   A    
C57   C59   A    
O9    V1    S    
C62   H31   S    
C51   H15   S    
C6    C56   S    
C73   H55   S    
C72   H49   S    
C38   C40   A    
C43   N1    S    
O3    C1    A    
C63   H28   S    
C17   H9    S    
C58   H22   S    
C40   C42   A    
C42   O22   S    
O12   V4    S    
C61   C62   S    
C54   N4    S    
C46   H18   S    
C62   C63   S    
O17   V3    S    
C17   C19   A    
C29   H13   S    
O7    C3    A    
C68   H45   S    
C24   C32   A    
C74   H59   S    
O5    C7    A    
C73   H56   S    
C54   C60   A    
O6    C8    A    
C50   C54   A    
O8    V2    S    
C33   C61   S    
C50   C70   S    
O3    V1    S    
O14   V4    S    
C2    C11   S    
O16   V4    S    
C47   H19   S    
C70   H53   S    
C24   C26   A    
C25   C27   A    
C32   H6    S    
C2    O12   A    
C14   H8    S    
C13   C15   A    
C40   H26   S    
C14   C16   A    
C39   H25   S    
C52   H16   S    
C43   C45   A    
O7    V1    S    
O11   V3    S    
C18   C20   A    
C39   C41   A    
C9    C25   A    
C11   C33   A    
C69   H43   S    
C26   C28   A    
C61   H32   S    
C62   H30   S    
H1    C27   S    
C22   C30   A    
C53   C59   A    
C72   H50   S    
C13   H7    S    
O8    C4    A    
C63   H29   S    
C41   C43   A    
C19   C23   A    
C1    O11   A    
C16   C18   A    
O15   V3    S    
C9    H3    S    
C60   H24   S    
C51   C55   A    
C23   C25   A    
C66   H35   S    
C68   H44   S    
H2    C28   S    
C49   C67   S    
C34   C64   S    
C69   H42   S    
C3    C38   S    
C65   H38   S    
C1    C12   S    
C11   C31   A    
O10   V2    S    
O1    V3    S    
N2    N4    D    
C20   C22   A    
C37   C39   A    
C7    C35   S    
C71   H52   S    
C70   H54   S    
C8    C36   S    
C42   C44   A    
C67   H47   S    
C45   C47   A    
C50   C52   A    
C10   C26   A    
C44   C46   A    
C27   C29   A    
C64   C65   S    
O16   C6    A    
C23   C31   A    
C13   C35   A    
C66   H34   S    
C38   C48   A    
C74   H60   S    
C30   H14   S    
C37   C47   A    
C71   C72   S    
V2    O20   S    
C64   H39   S    
C57   H21   S    
C15   H11   S    
C61   H33   S    
C45   H17   S    
C5    C55   S    
C10   H4    S    
C59   H23   S    
C73   H57   S    
C46   C48   A    
C68   C69   S    
C48   H20   S    
C14   C36   A    
O18   V4    S    
O5    V1    S    
O17   C7    A    
O6    V2    S    
C69   H41   S    
O10   C6    A    
O18   C8    A    
C56   C58   A    
O2    V4    S    
C4    C37   S    
O15   C5    A    
C66   H36   S    
C55   C57   A    
V3    O19   S    
C74   H58   S    
O13   V3    S    
C31   H5    S    
V4    O20   S    
C21   C29   A    
C58   C60   A    
C65   H37   S    
C9    C33   A    
O9    C5    A    
C67   H46   S    
O13   V1    S    
C28   C30   A    
C16   H12   S    
O14   V2    S    
O2    C4    A    
O22   C74   S    
C18   H10   S    
C41   O21   S    
C71   H51   S    
O4    V2    S    
C12   C32   A    
C20   C24   A    
O1    C3    A    
C53   N3    S    
N1    N3    D    
O21   C73   S    
C49   C51   A    
C44   N2    S    
C63   H27   S    
C15   C17   A    
C52   C56   A    
