data_mof_unit_22666.cif
_audit_creation_date              2013-03-05T16:04:29-0500
_audit_creation_method            fapswitch 2.2
_symmetry_space_group_name_H-M    P1
_symmetry_Int_Tables_number       1
_space_group_crystal_system       triclinic
_cell_length_a                    10.88562
_cell_length_b                    9.506164
_cell_length_c                    15.106493
_cell_angle_alpha                 90.067895
_cell_angle_beta                  90.553442
_cell_angle_gamma                 91.728209
_cell_volume                      1562.44162372

loop_
_atom_site_label
_atom_site_type_symbol
_atom_site_description
_atom_site_fract_x
_atom_site_fract_y
_atom_site_fract_z
_atom_type_partial_charge
O1    O     O_R   0.319640 0.618740 0.499990 -0.575502
O2    O     O_R   0.680360 0.381260 0.500010 -0.575495
O3    O     O_R   0.680360 0.618740 0.500010 -0.586905
O4    O     O_R   0.319640 0.381260 0.499990 -0.586898
C1    C     C_R   0.262022 0.497263 0.502408 0.807742
C2    C     C_R   0.737977 0.502738 0.497588 0.807743
O5    O     O_R   0.499970 0.618800 0.370260 -0.580964
O6    O     O_R   0.500030 0.381200 0.629740 -0.580961
O7    O     O_R   0.500030 0.618800 0.629740 -0.584070
O8    O     O_R   0.499970 0.381200 0.370260 -0.584073
C3    C     C_R   0.501151 0.500307 0.329193 0.829262
C4    C     C_R   0.498850 0.499693 0.670807 0.829256
Cu1   Cu    Cu3+1 0.500000 0.640660 0.500000 0.935541
Cu2   Cu    Cu3+1 0.500000 0.359340 0.500000 0.935547
C5    C     C_R   0.610014 0.529938 0.813372 0.077586
C6    C     C_R   0.389985 0.470076 0.186626 0.077590
C7    C     C_R   0.499340 0.497767 0.767058 -0.061862
C8    C     C_R   0.500662 0.502233 0.232942 -0.061870
C9    C     C_R   0.390063 0.460194 0.812248 0.073100
C10   C     C_R   0.609946 0.539793 0.187752 0.073098
C11   C     C_R   0.390750 0.461296 0.905725 0.105257
C12   C     C_R   0.609260 0.538689 0.094274 0.105256
C13   C     C_R   0.499933 0.499079 0.952973 -0.003040
C14   C     C_R   0.500076 0.500911 0.047026 -0.003038
C15   C     C_R   0.609197 0.534104 0.906729 0.103882
C16   C     C_R   0.390809 0.465893 0.093270 0.103879
C17   C     C_R   0.284007 0.425624 0.953324 -0.203668
C18   C     C_R   0.716006 0.574353 0.046676 -0.203666
C19   C     C_R   0.284060 0.427806 0.044844 -0.204626
C20   C     C_R   0.715950 0.572181 0.955156 -0.204619
H1    H     H_    0.198256 0.395547 0.920856 0.154893
H2    H     H_    0.801761 0.604419 0.079145 0.154891
H3    H     H_    0.198629 0.398281 0.076723 0.155094
H4    H     H_    0.801384 0.601701 0.923277 0.155088
C21   C     C_R   0.058521 0.382166 0.463264 0.135337
C22   C     C_R   0.941481 0.617846 0.536712 0.135319
C23   C     C_R   0.931867 0.397699 0.449962 0.137940
C24   C     C_R   0.068132 0.602305 0.550022 0.137894
C25   C     C_R   0.872425 0.508725 0.492816 -0.137078
C26   C     C_R   0.127574 0.491278 0.507171 -0.137081
C27   C     C_R   0.429408 0.071901 0.440692 -0.029533
C28   C     C_R   0.570592 0.928099 0.559308 -0.029531
C29   C     C_R   0.570747 0.076998 0.559230 -0.009789
C30   C     C_R   0.429253 0.923002 0.440770 -0.009804
H5    H     H_    0.373237 0.125988 0.393014 0.125302
H6    H     H_    0.626763 0.874012 0.606986 0.125300
H7    H     H_    0.627497 0.135206 0.606613 0.128566
H8    H     H_    0.372503 0.864794 0.393387 0.128567
N1    N     N_R   0.500000 0.852070 0.500000 -0.159800
N2    N     N_R   0.500000 0.147930 0.500000 -0.159799
C31   C     C_3   0.729959 0.554987 0.764113 -0.883770
H9    H     H_    0.800032 0.481951 0.789089 0.230669
H10   H     H_    0.722843 0.535290 0.692093 0.225722
H11   H     H_    0.763353 0.665421 0.774115 0.226991
C32   C     C_3   0.270029 0.445070 0.235884 -0.883791
H12   H     H_    0.236627 0.334640 0.225900 0.227000
H13   H     H_    0.277129 0.464805 0.307900 0.225711
H14   H     H_    0.199973 0.518107 0.210889 0.230681
C33   C     C_3   0.272738 0.418152 0.761833 -0.877720
H15   H     H_    0.281598 0.418888 0.689053 0.230948
H16   H     H_    0.243267 0.309308 0.780199 0.236488
H17   H     H_    0.198999 0.491757 0.778284 0.226436
C34   C     C_3   0.727274 0.581828 0.238167 -0.877700
H18   H     H_    0.718412 0.581099 0.310946 0.230949
H19   H     H_    0.801010 0.508214 0.221720 0.226439
H20   H     H_    0.756754 0.690670 0.219799 0.236482
C35   C     C_3   0.118252 0.247322 0.433604 -0.827408
H21   H     H_    0.163149 0.197053 0.491241 0.244008
H22   H     H_    0.053367 0.165119 0.407754 0.223843
H23   H     H_    0.186132 0.269940 0.381110 0.229301
C36   C     C_3   0.881761 0.752711 0.566351 -0.827343
H24   H     H_    0.836836 0.802940 0.508709 0.244011
H25   H     H_    0.813910 0.730127 0.618874 0.229286
H26   H     H_    0.946666 0.834943 0.592156 0.223827
C37   C     C_3   0.863048 0.302720 0.383769 -0.814378
H27   H     H_    0.777119 0.348403 0.358710 0.235436
H28   H     H_    0.919211 0.288361 0.323603 0.221527
H29   H     H_    0.840797 0.198956 0.414309 0.239214
C38   C     C_3   0.136949 0.697284 0.616216 -0.814245
H30   H     H_    0.222855 0.651555 0.641301 0.235402
H31   H     H_    0.159250 0.801033 0.585656 0.239207
H32   H     H_    0.080758 0.711701 0.676373 0.221518

loop_
_geom_bond_atom_site_label_1
_geom_bond_atom_site_label_2
_geom_bond_distance
_ccdc_geom_bond_type
C30   N1    1.366676 A    
C32   H12   1.110177 S    
C34   H19   1.110408 S    
C3    C8    1.454109 S    
C17   C19   1.382672 A    
O3    C2    1.285620 A    
O5    C3    1.285773 A    
O1    C1    1.298115 A    
C9    C11   1.412088 A    
C14   C16   1.416440 A    
C5    C15   1.410926 A    
C24   C38   1.522797 S    
C19   H3    1.081095 S    
C28   H6    1.080883 S    
O7    Cu1   1.971145 S    
C4    C7    1.454105 S    
C13   C14   1.420887 A    
C5    C31   1.521732 S    
O3    Cu1   1.980594 S    
C22   C36   1.523577 S    
C11   C17   1.405394 A    
C34   H20   1.110357 S    
C33   H15   1.104610 S    
C12   C18   1.405405 A    
Cu1   Cu2   2.674274 S    
O4    Cu2   1.980595 S    
O2    C2    1.298118 A    
O7    C4    1.291500 A    
C11   C13   1.417136 A    
C6    C16   1.410924 A    
C33   H16   1.110338 S    
C20   H4    1.081109 S    
C17   H1    1.080921 S    
C35   H21   1.110033 S    
C18   H2    1.080935 S    
O8    Cu2   1.971145 S    
C38   H31   1.110661 S    
C9    C33   1.523341 S    
C34   H18   1.104607 S    
C31   H9    1.110524 S    
C31   H10   1.105320 S    
C37   H27   1.106751 S    
C36   H26   1.105822 S    
C21   C35   1.523552 S    
O6    C4    1.285772 A    
C37   H28   1.110834 S    
Cu1   N1    2.009698 S    
C10   C12   1.412088 A    
C32   H13   1.105334 S    
C27   C30   1.415411 A    
C12   C14   1.417144 A    
C1    C26   1.465406 S    
O1    Cu1   1.968097 S    
C28   C29   1.415411 A    
C27   N2    1.366465 A    
C36   H25   1.106037 S    
C15   C20   1.405056 A    
C5    C7    1.412609 A    
C33   H17   1.110389 S    
O6    Cu2   1.970653 S    
C21   C23   1.403574 A    
C22   C25   1.422162 A    
O4    C1    1.285620 A    
C38   H32   1.110975 S    
C29   N2    1.366674 A    
C31   H11   1.110225 S    
C35   H23   1.105983 S    
C10   C34   1.523365 S    
C18   C20   1.382673 A    
C21   C26   1.422161 A    
C6    C32   1.521765 S    
C36   H24   1.110066 S    
C23   C25   1.413991 A    
C24   C26   1.413983 A    
Cu2   N2    2.009699 S    
C22   C24   1.403561 A    
C7    C9    1.413958 A    
C8    C10   1.413986 A    
C13   C15   1.416434 A    
C23   C37   1.522794 S    
O2    Cu2   1.968096 S    
C37   H29   1.110547 S    
O8    C3    1.291501 A    
C28   N1    1.366464 A    
C38   H30   1.106856 S    
O5    Cu1   1.970653 S    
C16   C19   1.405034 A    
C6    C8    1.412623 A    
C32   H14   1.110486 S    
C27   H5    1.080882 S    
C2    C25   1.465408 S    
C35   H22   1.105737 S    
C29   H7    1.081689 S    
C30   H8    1.081690 S    
