data_mof_unit_67999.cif
_audit_creation_date              2012-12-11T14:17:48-0500
_audit_creation_method            fapswitch 2.2
_symmetry_space_group_name_H-M    P1
_symmetry_Int_Tables_number       1
_space_group_crystal_system       triclinic
_cell_length_a                    11.278668
_cell_length_b                    11.210435
_cell_length_c                    18.79592
_cell_angle_alpha                 90.147341
_cell_angle_beta                  90.178422
_cell_angle_gamma                 120.15151
_cell_volume                      2054.95517759

loop_
_atom_site_label
_atom_site_type_symbol
_atom_type_description
_atom_site_fract_x
_atom_site_fract_y
_atom_site_fract_z
_atom_type_partial_charge
C1    C     C_R   0.524979 0.448813 0.143527 0.504163
C2    C     C_R   0.990505 0.394800 0.538189 -0.174996
C3    C     C_R   0.420028 0.039405 0.546606 -0.177670
C4    C     C_R   0.559978 0.629738 0.528996 -0.170908
C5    C     C_R   0.766633 0.083144 0.586723 0.276090
C6    C     C_R   0.955025 0.703385 0.564712 0.284419
C7    C     C_R   0.218446 0.294168 0.532070 0.256913
C8    C     C_R   0.078233 0.753961 0.429679 0.281084
C9    C     C_R   0.704555 0.973876 0.446988 0.294923
C10   C     C_R   0.241063 0.381030 0.391360 0.298847
C11   C     C_R   0.841355 0.033674 0.553700 -0.124974
C12   C     C_R   0.542550 0.062082 0.147441 0.522348
C13   C     C_R   0.000180 0.826880 0.530222 -0.167980
C14   C     C_R   0.137580 0.204326 0.477772 -0.179199
C15   C     C_R   0.064938 0.854661 0.464811 -0.166302
C16   C     C_R   0.805140 0.970054 0.487934 -0.196401
C17   C     C_R   0.140471 0.249299 0.409327 -0.133545
C18   C     C_R   0.518360 0.459905 0.352376 0.521169
C19   C     C_R   0.568796 0.106361 0.361943 0.558395
C20   C     C_R   0.937599 0.481205 0.353676 0.579814
C21   C     C_R   0.420606 0.543415 0.638060 0.558887
C22   C     C_R   0.062776 0.544193 0.645960 0.547193
C23   C     C_R   0.873607 0.451595 0.140198 0.556525
C24   C     C_R   0.483461 0.941749 0.648171 0.535457
C25   C     C_R   0.497271 0.993655 0.925286 -0.008367
C26   C     C_R   0.010815 0.510013 0.926273 -0.002474
C27   C     C_R   0.512792 0.496177 0.918683 -0.009605
C28   C     C_R   0.901253 0.452071 0.063693 0.001517
C29   C     C_R   0.505782 0.005629 0.074846 -0.005202
C30   C     C_R   0.514663 0.472363 0.067287 -0.003546
C31   C     C_R   0.387323 0.991553 0.963518 0.032891
C32   C     C_R   0.022448 0.411985 0.968526 0.006702
C33   C     C_R   0.611037 0.609122 0.959834 0.037386
C34   C     C_R   0.459826 0.519053 0.851396 0.520758
C35   C     C_R   0.948437 0.366886 0.032358 0.025707
C36   C     C_R   0.386528 0.985602 0.039004 0.022872
C37   C     C_R   0.600441 0.600997 0.034831 0.018422
C38   C     C_R   0.611954 0.009503 0.035351 -0.140854
C39   C     C_R   0.894291 0.551592 0.022201 -0.149398
C40   C     C_R   0.440125 0.355363 0.023913 -0.153448
C41   C     C_R   0.942213 0.575447 0.953163 -0.147708
C42   C     C_R   0.610709 0.008917 0.962573 -0.143230
C43   C     C_R   0.438724 0.367479 0.950557 -0.172836
C44   C     C_R   0.277440 0.993927 0.929027 -0.093365
C45   C     C_R   0.073638 0.549720 0.855747 0.533201
C46   C     C_R   0.112195 0.363087 0.951575 -0.101814
C47   C     C_R   0.717749 0.730803 0.929031 -0.088157
C48   C     C_R   0.939577 0.248228 0.064871 -0.115992
C49   C     C_R   0.265922 0.957547 0.075602 -0.100493
C50   C     C_R   0.678387 0.721667 0.074942 -0.108020
C51   C     C_R   0.159803 0.965129 0.965864 -0.137249
C52   C     C_R   0.105237 0.250729 0.985426 -0.143855
C53   C     C_R   0.799168 0.846079 0.970875 -0.140682
C54   C     C_R   0.018861 0.193146 0.042001 -0.165794
C55   C     C_R   0.152328 0.943327 0.038784 -0.127934
C56   C     C_R   0.479654 0.936854 0.852858 0.530214
C57   C     C_R   0.778852 0.840536 0.043724 -0.143338
C58   C     C_R   0.521960 0.030781 0.585104 -0.019490
C59   C     C_R   0.001988 0.508632 0.574297 -0.026391
C60   C     C_R   0.435776 0.530518 0.560112 -0.015727
C61   C     C_R   0.995077 0.501182 0.425494 0.018582
C62   C     C_R   0.541812 0.063382 0.437205 0.005831
C63   C     C_R   0.485549 0.519823 0.414230 0.023144
C64   C     C_R   0.646256 0.064780 0.550800 -0.023859
C65   C     C_R   0.990314 0.609059 0.534859 -0.009640
C66   C     C_R   0.331605 0.427345 0.513545 -0.000237
C67   C     C_R   0.437470 0.070410 0.474263 -0.177352
C68   C     C_R   0.026951 0.622958 0.462525 -0.015961
C69   C     C_R   0.634603 0.038365 0.476500 0.011485
C70   C     C_R   0.350924 0.453441 0.439322 0.015865
C71   C     C_3   0.774067 0.203234 0.693763 0.028148
C72   C     C_3   0.821766 0.206428 0.770433 -0.231373
C73   C     C_3   0.763427 0.265648 0.823514 -0.465197
C74   C     C_3   0.778302 0.564574 0.643351 0.022492
C75   C     C_3   0.748419 0.553917 0.722899 -0.236970
C76   C     C_3   0.618166 0.420153 0.741516 -0.473992
C77   C     C_3   0.206081 0.159274 0.626508 0.022693
C78   C     C_R   0.971865 0.384841 0.464785 -0.154516
C79   C     C_3   0.138535 0.108562 0.699200 -0.274222
C80   C     C_3   0.168895 0.001432 0.729947 -0.439194
C81   C     C_3   0.246158 0.779235 0.352063 0.013498
C82   C     C_3   0.304016 0.838185 0.278609 -0.229440
C83   C     C_3   0.251671 0.727810 0.222247 -0.469816
C84   C     C_3   0.758750 0.892729 0.343849 0.043753
C85   C     C_3   0.716476 0.868458 0.265701 -0.220234
C86   C     C_3   0.567524 0.755187 0.253745 -0.380612
C87   C     C_3   0.239343 0.383741 0.268260 0.014361
C88   C     C_3   0.149636 0.390315 0.209742 -0.254184
C89   C     C_R   0.590143 0.611831 0.459591 -0.129055
C90   C     C_3   0.230033 0.457303 0.141545 -0.446123
Cr1   Cr    Cr6+3 0.768550 0.541320 0.250660 0.988331
Cr2   Cr    Cr6+3 0.458680 0.227230 0.250660 0.954332
Cr3   Cr    Cr6+3 0.772770 0.231450 0.250660 0.943094
Cr4   Cr    Cr6+3 0.541320 0.768550 0.749340 1.005135
Cr5   Cr    Cr6+3 0.227230 0.458680 0.749340 0.988504
Cr6   Cr    Cr6+3 0.231450 0.772770 0.749340 0.978598
H1    H     H_    0.700511 0.018264 0.060962 0.140225
H2    H     H_    0.875866 0.195758 0.109054 0.171420
H3    H     H_    0.255737 0.941977 0.132297 0.128772
H4    H     H_    0.663141 0.727098 0.130613 0.133527
H5    H     H_    0.075632 0.961618 0.937082 0.099847
H6    H     H_    0.170762 0.211629 0.969987 0.124190
H7    H     H_    0.874164 0.941273 0.946394 0.105919
H8    H     H_    0.024426 0.114920 0.072398 0.098459
H9    H     H_    0.059814 0.918699 0.067311 0.115110
H10   H     H_    0.837985 0.928032 0.077425 0.088670
H11   H     H_    0.363093 0.087375 0.446389 0.150836
H12   H     H_    0.854984 0.614107 0.044039 0.155669
H13   H     H_    0.937295 0.286320 0.439274 0.150791
H14   H     H_    0.696216 0.661896 0.444007 0.133160
H15   H     H_    0.992746 0.313630 0.567070 0.203852
H16   H     H_    0.324086 0.012724 0.571182 0.126992
H17   H     H_    0.641166 0.710350 0.560640 0.164397
H18   H     H_    0.922775 0.036249 0.584168 0.163943
H19   H     H_    0.984691 0.901218 0.556075 0.115293
H20   H     H_    0.062391 0.102560 0.490596 0.102288
H21   H     H_    0.099522 0.951962 0.438690 0.121864
H22   H     H_    0.854551 0.915948 0.468806 0.094825
H23   H     H_    0.380663 0.253661 0.046800 0.160067
H24   H     H_    0.060817 0.185054 0.371869 0.095182
H25   H     H_    0.830833 0.306808 0.670067 0.117623
H26   H     H_    0.664168 0.168378 0.694066 0.127482
H27   H     H_    0.791156 0.100208 0.787441 0.198881
H28   H     H_    0.934931 0.264439 0.772054 0.191134
H29   H     H_    0.807858 0.377101 0.814536 0.151316
H30   H     H_    0.790166 0.250722 0.878277 0.154508
H31   H     H_    0.650181 0.212704 0.819047 0.139871
H32   H     H_    0.786646 0.474520 0.626956 0.101148
H33   H     H_    0.691454 0.558891 0.613786 0.147581
H34   H     H_    0.932871 0.651853 0.922362 0.142964
H35   H     H_    0.836954 0.559760 0.751903 0.174703
H36   H     H_    0.738338 0.642989 0.740631 0.191243
H37   H     H_    0.526866 0.422711 0.723552 0.208989
H38   H     H_    0.611465 0.405615 0.799943 0.133903
H39   H     H_    0.615999 0.330850 0.715620 0.111533
H40   H     H_    0.319458 0.208785 0.632305 0.146545
H41   H     H_    0.171311 0.070765 0.590531 0.096227
H42   H     H_    0.176230 0.196793 0.736904 0.195493
H43   H     H_    0.025740 0.062017 0.694100 0.179213
H44   H     H_    0.280558 0.048723 0.740390 0.148070
H45   H     H_    0.697577 0.013977 0.935497 0.148641
H46   H     H_    0.134707 0.913858 0.692272 0.219030
H47   H     H_    0.112380 0.961588 0.780604 0.122065
H48   H     H_    0.228319 0.672893 0.357193 0.177693
H49   H     H_    0.322036 0.842820 0.393243 0.139859
H50   H     H_    0.275995 0.916562 0.263271 0.211159
H51   H     H_    0.416757 0.886808 0.279301 0.179367
H52   H     H_    0.285708 0.655489 0.237758 0.163487
H53   H     H_    0.296791 0.771311 0.169759 0.126862
H54   H     H_    0.138913 0.675220 0.219227 0.227626
H55   H     H_    0.779945 0.810740 0.360280 0.135953
H56   H     H_    0.373409 0.277480 0.918615 0.124468
H57   H     H_    0.856277 0.993220 0.347003 0.085156
H58   H     H_    0.732774 0.966158 0.243375 0.196474
H59   H     H_    0.785937 0.842409 0.236322 0.083838
H60   H     H_    0.499449 0.744953 0.298352 0.203764
H61   H     H_    0.560980 0.654738 0.247654 0.166320
H62   H     H_    0.527881 0.776829 0.204277 0.105031
H63   H     H_    0.211523 0.273636 0.273757 0.142254
H64   H     H_    0.347246 0.445756 0.252002 0.195078
H65   H     H_    0.065234 0.284222 0.197614 0.136933
H66   H     H_    0.102654 0.449425 0.229797 0.233455
H67   H     H_    0.282127 0.021563 0.873828 0.121376
H68   H     H_    0.333103 0.547135 0.152363 0.122680
H69   H     H_    0.174719 0.495743 0.108884 0.172422
H70   H     H_    0.243452 0.380953 0.110739 0.186580
H71   H     H_    0.196827 0.418376 0.917300 0.189447
H72   H     H_    0.742786 0.737408 0.873233 0.123895
O1    O     O_R   0.910960 0.572410 0.171010 -0.533129
O2    O     O_R   0.528530 0.639750 0.824400 -0.509733
O3    O     O_R   0.111220 0.471470 0.824400 -0.538583
O4    O     O_R   0.360250 0.888780 0.824400 -0.516301
O5    O     O_R   0.909330 0.572400 0.331540 -0.464391
O6    O     O_R   0.427600 0.336930 0.331540 -0.545612
O7    O     O_R   0.663070 0.090670 0.331540 -0.490340
O8    O     O_R   0.572400 0.909330 0.668460 -0.465697
O9    O     O_R   0.336930 0.427600 0.668460 -0.488281
O10   O     O_R   0.090670 0.663070 0.668460 -0.476444
O11   O     O_R   0.638240 0.528520 0.324410 -0.518784
O12   O     O_R   0.427590 0.338550 0.171010 -0.553245
O13   O     O_R   0.471480 0.109720 0.324410 -0.529277
O14   O     O_R   0.890280 0.361760 0.324410 -0.522755
O15   O     O_R   0.528520 0.638240 0.675590 -0.529236
O16   O     O_R   0.109720 0.471480 0.675590 -0.493473
O17   O     O_R   0.361760 0.890280 0.675590 -0.531483
O18   O     O_3   0.666667 0.333333 0.250630 -0.272960
O19   O     O_3   0.333333 0.666667 0.749370 -0.268364
O20   O     O_3   0.802608 0.110804 0.658228 -0.566851
O21   O     O_3   0.897928 0.692729 0.631516 -0.565037
O22   O     O_3   0.169057 0.253757 0.599945 -0.537429
O23   O     O_R   0.661450 0.089040 0.171010 -0.575500
O24   O     O_3   0.124173 0.782479 0.360329 -0.556518
O25   O     O_3   0.653633 0.891102 0.386414 -0.545497
O26   O     O_3   0.227509 0.445262 0.331531 -0.620651
O27   O     O_R   0.572410 0.910960 0.828990 -0.530401
O28   O     O_R   0.338550 0.427590 0.828990 -0.561343
O29   O     O_R   0.089040 0.661450 0.828990 -0.527389
O30   O     O_R   0.639750 0.528530 0.175600 -0.536053
O31   O     O_R   0.471470 0.111220 0.175600 -0.515621
O32   O     O_R   0.888780 0.360250 0.175600 -0.553077

loop_
_geom_bond_atom_site_label_1
_geom_bond_atom_site_label_2
_ccdc_geom_bond_type
C25   C31   A    
C79   H43   S    
C87   C88   S    
C26   C32   A    
Cr5   O28   S    
C47   H72   S    
C12   C29   S    
C71   H26   S    
C1    O30   A    
Cr6   O19   S    
C25   C56   S    
C71   O20   S    
C22   O10   A    
C19   O13   A    
C82   H51   S    
Cr5   O19   S    
C39   C41   A    
C85   C86   S    
C27   C33   A    
C48   C54   A    
C29   C36   A    
C52   H6    S    
C62   C67   A    
C55   H9    S    
C2    C78   A    
C77   O22   S    
C54   H8    S    
C9    C16   A    
C9    C69   A    
C38   C42   A    
Cr2   O13   S    
C10   O26   S    
C85   H59   S    
C41   H34   S    
C1    O12   A    
C9    O25   S    
C18   C63   S    
C19   C62   S    
C45   O29   A    
C88   H65   S    
C74   O21   S    
C46   C52   A    
C87   H64   S    
Cr1   O5    S    
C11   C16   A    
C20   C61   S    
C11   H18   S    
C86   H60   S    
C22   O16   A    
Cr2   O12   S    
C26   C45   S    
Cr1   O30   S    
Cr5   O9    S    
C7    C14   A    
C74   H32   S    
C28   C35   A    
C75   H35   S    
Cr1   O11   S    
C29   C38   A    
C7    O22   S    
C44   H67   S    
Cr2   O31   S    
C61   C78   A    
C51   C55   A    
C17   H24   S    
C47   C53   A    
C83   H54   S    
Cr3   O18   S    
C80   H47   S    
Cr3   O23   S    
C57   H10   S    
C60   C66   A    
C72   H28   S    
C80   H44   S    
C14   C17   A    
C63   C89   A    
C39   H12   S    
C38   H1    S    
C35   C48   A    
C45   O3    A    
C82   H50   S    
C76   H39   S    
C52   C54   A    
C81   C82   S    
C40   C43   A    
C27   C34   S    
C58   C64   A    
Cr6   O29   S    
C2    H15   S    
C84   H57   S    
C74   C75   S    
Cr1   O1    S    
Cr4   O27   S    
C32   C35   A    
C4    H17   S    
Cr3   O32   S    
Cr4   O19   S    
C21   C60   S    
C46   H71   S    
C22   C59   S    
C76   H38   S    
C2    C59   A    
C28   C39   A    
Cr2   O6    S    
C49   C55   A    
C89   H14   S    
Cr3   O7    S    
C33   C37   A    
C15   H21   S    
C62   C69   A    
C90   H68   S    
C24   O17   A    
C75   C76   S    
C84   H55   S    
C81   O24   S    
C6    C65   A    
C16   H22   S    
C49   H3    S    
C56   O27   A    
Cr3   O14   S    
C14   H20   S    
C20   O5    A    
C23   O1    A    
C63   C70   A    
C3    H16   S    
C65   C68   A    
C4    C60   A    
C42   H45   S    
C77   C79   S    
C30   C40   A    
C23   C28   S    
C84   C85   S    
C86   H62   S    
C13   H19   S    
C18   O6    A    
C44   C51   A    
C77   H40   S    
Cr1   O18   S    
C88   C90   S    
C18   O11   A    
C8    C68   A    
C8    C15   A    
C80   H46   S    
C13   C15   A    
C90   H69   S    
C33   C47   A    
C31   C44   A    
Cr4   O15   S    
C24   O8    A    
C10   C70   A    
C48   H2    S    
C75   H36   S    
C20   O14   A    
C4    C89   A    
C83   H52   S    
C34   O28   A    
C21   O15   A    
C12   O23   A    
C88   H66   S    
C53   C57   A    
C50   C57   A    
C32   C46   A    
Cr6   O17   S    
C71   H25   S    
C3    C67   A    
C90   H70   S    
C87   O26   S    
C77   H41   S    
C72   C73   S    
C34   O2    A    
C25   C42   A    
C76   H37   S    
C5    C11   A    
C79   H42   S    
C51   H5    S    
C64   C69   A    
C81   H49   S    
C5    C64   A    
Cr5   O16   S    
Cr4   O2    S    
C71   C72   S    
C72   H27   S    
C73   H31   S    
C59   C65   A    
C6    C13   A    
C37   C50   A    
C61   C68   A    
C67   H11   S    
C66   C70   A    
C8    O24   S    
C73   H29   S    
C23   O32   A    
C6    O21   S    
C21   O9    A    
C1    C30   S    
C12   O31   A    
C87   H63   S    
C78   H13   S    
Cr2   O18   S    
C85   H58   S    
C81   H48   S    
C86   H61   S    
C19   O7    A    
C50   H4    S    
C36   C49   A    
C79   C80   S    
C3    C58   A    
C27   C43   A    
C84   O25   S    
C40   H23   S    
C30   C37   A    
C24   C58   S    
C82   C83   S    
Cr6   O4    S    
C74   H33   S    
C31   C36   A    
C53   H7    S    
C10   C17   A    
C5    O20   S    
Cr6   O10   S    
Cr5   O3    S    
C56   O4    A    
C43   H56   S    
C73   H30   S    
C26   C41   A    
Cr4   O8    S    
C83   H53   S    
C7    C66   A    
