data_mof_unit_59942.cif
_audit_creation_date              2012-12-10T18:29:39-0500
_audit_creation_method            fapswitch 2.2
_symmetry_space_group_name_H-M    P1
_symmetry_Int_Tables_number       1
_space_group_crystal_system       triclinic
_cell_length_a                    11.532856
_cell_length_b                    15.161164
_cell_length_c                    15.299294
_cell_angle_alpha                 80.68499
_cell_angle_beta                  91.876362
_cell_angle_gamma                 103.894723
_cell_volume                      2562.53164975

loop_
_atom_site_label
_atom_site_type_symbol
_atom_type_description
_atom_site_fract_x
_atom_site_fract_y
_atom_site_fract_z
_atom_type_partial_charge
C1    C     C_R   0.478720 0.441430 0.662568 0.861938
C2    C     C_R   0.520825 0.559013 0.336999 0.902053
C3    C     C_R   0.397528 0.350134 0.939014 0.082734
C4    C     C_R   0.489007 0.651293 0.059902 0.115357
C5    C     C_R   0.420839 0.513032 0.950315 0.084037
C6    C     C_R   0.423557 0.488798 0.043131 0.086599
C7    C     C_R   0.378372 0.396308 0.080626 -0.219193
C8    C     C_R   0.450166 0.607249 0.913955 -0.187955
C9    C     C_R   0.368230 0.327262 0.029554 -0.196948
C10   C     C_R   0.475445 0.674707 0.967981 -0.207146
C11   C     C_R   0.660572 0.833443 0.653795 0.075005
C12   C     C_R   0.337729 0.166430 0.346919 0.093667
C13   C     C_R   0.645009 0.750247 0.619951 0.069692
C14   C     C_R   0.348560 0.247019 0.384638 0.081530
C15   C     C_R   0.506219 0.794501 0.512541 0.049959
C16   C     C_R   0.498296 0.207235 0.483576 0.023571
C17   C     C_R   0.535536 0.884765 0.533006 -0.120138
C18   C     C_R   0.468509 0.116642 0.463816 -0.029751
C19   C     C_R   0.601209 0.899649 0.611305 0.123562
C20   C     C_R   0.400367 0.101208 0.386813 0.117783
C21   C     C_R   0.497605 0.959582 0.480907 0.084046
C22   C     C_R   0.506956 0.042076 0.515615 0.126456
C23   C     C_R   0.717552 0.500928 0.500443 0.874346
C24   C     C_R   0.282441 0.499024 0.499669 0.895490
C25   C     C_R   0.548560 0.045738 0.602704 -0.155222
C26   C     C_R   0.455621 0.956189 0.393760 -0.229472
C27   C     C_R   0.601851 0.979106 0.647158 -0.168409
C28   C     C_R   0.399979 0.022079 0.350397 -0.190904
C29   C     C_1   0.838887 0.502447 0.500949 -0.152754
C30   C     C_1   0.161088 0.497358 0.499508 -0.144729
C31   C     C_1   0.940907 0.501173 0.500693 0.028450
C32   C     C_1   0.059053 0.498542 0.499972 0.029996
C33   C     C_R   0.446625 0.405146 0.756660 -0.176270
C34   C     C_R   0.531380 0.596799 0.240702 -0.153334
C35   C     C_R   0.425089 0.286429 0.889142 0.152277
C36   C     C_R   0.527878 0.719716 0.114814 0.122242
C37   C     C_R   0.458980 0.317516 0.798929 -0.046710
C38   C     C_R   0.546097 0.692010 0.206502 -0.049949
C39   C     C_R   0.398685 0.459593 0.804883 0.159891
C40   C     C_R   0.516411 0.533636 0.181308 0.072636
C41   C     C_R   0.402377 0.441767 0.897560 0.032637
C42   C     C_R   0.472438 0.557045 0.096077 0.030079
H1    H     H_    0.340350 0.257208 0.062810 0.155291
H2    H     H_    0.492301 0.745457 0.935527 0.163974
H3    H     H_    0.541952 0.100481 0.637640 0.180608
H4    H     H_    0.463853 0.902458 0.357907 0.169126
H5    H     H_    0.357224 0.376746 0.150474 0.151601
H6    H     H_    0.458024 0.631041 0.843758 0.192916
H7    H     H_    0.639878 0.989528 0.711328 0.162089
H8    H     H_    0.359579 0.010950 0.287099 0.162925
N1    N     N_R   0.566020 0.731700 0.552730 -0.155326
N2    N     N_R   0.433980 0.268300 0.447270 -0.186669
O1    O     O_R   0.466720 0.383110 0.605620 -0.631333
O2    O     O_R   0.533280 0.616890 0.394380 -0.521176
O3    O     O_R   0.509090 0.531900 0.639510 -0.581442
O4    O     O_R   0.490910 0.468100 0.360490 -0.647740
O5    O     O_R   0.644370 0.425610 0.483050 -0.621635
O6    O     O_R   0.355630 0.574390 0.516950 -0.594898
O7    O     O_R   0.686740 0.574390 0.516930 -0.626630
O8    O     O_R   0.313260 0.425610 0.483070 -0.605038
Zn1   Zn    Zn3+2 0.471710 0.400660 0.477370 0.946445
Zn2   Zn    Zn3+2 0.528290 0.599340 0.522630 1.001369
C43   C     C_3   0.579182 0.454882 0.200150 -0.797222
H9    H     H_    0.519928 0.391376 0.235743 0.235034
H10   H     H_    0.611235 0.439485 0.137924 0.241309
H11   H     H_    0.659952 0.474172 0.241059 0.244652
C44   C     C_3   0.318726 0.519172 0.759047 -0.867726
H12   H     H_    0.260699 0.535816 0.807450 0.233369
H13   H     H_    0.370929 0.584521 0.721321 0.258270
H14   H     H_    0.258246 0.481093 0.712504 0.229695
C45   C     C_2   0.590840 0.763210 0.263407 0.532063
H15   H     H_    0.544683 0.817257 0.265315 0.056632
O9    O     O_2   0.682469 0.763893 0.305895 -0.556805
C46   C     C_2   0.511834 0.260062 0.750457 0.424753
H16   H     H_    0.600985 0.287118 0.723024 0.024166
O10   O     O_2   0.456269 0.182753 0.741505 -0.594999
C47   C     C_3   0.435000 0.190590 0.931828 -0.813381
H17   H     H_    0.522941 0.179311 0.915635 0.239679
H18   H     H_    0.430666 0.177424 0.004801 0.208666
H19   H     H_    0.362951 0.138271 0.906486 0.269672
C48   C     C_3   0.551483 0.820937 0.074262 -0.924785
H20   H     H_    0.583697 0.869537 0.121285 0.231439
H21   H     H_    0.621520 0.836562 0.022162 0.250568
H22   H     H_    0.468010 0.836388 0.044585 0.244045
C49   C     C_2   0.609065 0.241381 0.530914 0.460585
H23   H     H_    0.609303 0.284611 0.580060 0.091364
O11   O     O_2   0.701849 0.221706 0.514526 -0.556699
C50   C     C_2   0.393596 0.762485 0.465812 0.436079
H24   H     H_    0.311978 0.776600 0.487157 0.046956
O12   O     O_2   0.391657 0.726482 0.400001 -0.582580
C51   C     C_2   0.269070 0.309051 0.355781 0.463340
H25   H     H_    0.304018 0.378941 0.323840 0.078378
O13   O     O_2   0.161285 0.281150 0.366738 -0.546372
C52   C     C_2   0.707513 0.680068 0.660896 0.482403
H26   H     H_    0.780045 0.666812 0.625915 0.065971
O14   O     O_2   0.681405 0.639224 0.735822 -0.591238
C53   C     C_3   0.742112 0.853581 0.731913 -0.872853
H27   H     H_    0.795910 0.802463 0.752623 0.260486
H28   H     H_    0.807073 0.920913 0.714155 0.244610
H29   H     H_    0.687932 0.855650 0.789896 0.238243
C54   C     C_3   0.261945 0.150127 0.265301 -0.884651
H30   H     H_    0.219529 0.207078 0.238805 0.253844
H31   H     H_    0.318818 0.143073 0.210919 0.216553
H32   H     H_    0.190019 0.086385 0.281057 0.264882

loop_
_geom_bond_atom_site_label_1
_geom_bond_atom_site_label_2
_ccdc_geom_bond_type
O6    Zn2   S    
C21   C26   A    
C43   H10   S    
C54   H30   S    
C37   C46   S    
C53   H29   S    
C4    C36   A    
C53   H27   S    
C1    C33   S    
C39   C41   A    
C47   H17   S    
C23   O7    A    
C11   C19   A    
C33   C39   A    
C40   C43   S    
C46   O10   D    
C34   C40   A    
C23   C29   S    
C35   C37   A    
N2    Zn1   S    
C5    C6    A    
O3    Zn2   S    
C15   C17   A    
C1    O1    A    
C53   H28   S    
C13   N1    A    
C28   H8    S    
C14   N2    A    
C22   C25   A    
C15   N1    A    
C19   C27   A    
C2    C34   S    
C40   C42   A    
C43   H11   S    
C54   H31   S    
C34   C38   A    
C21   C22   A    
N1    Zn2   S    
O1    Zn1   S    
C48   H21   S    
C48   H20   S    
C24   C30   S    
C47   H18   S    
C9    H1    S    
C46   H16   S    
C49   O11   D    
C10   H2    S    
C44   H12   S    
C2    O2    A    
C51   H25   S    
C45   O9    D    
O2    Zn2   S    
C49   H23   S    
C35   C47   S    
C33   C37   A    
O8    Zn1   S    
C44   H13   S    
C7    H5    S    
C8    H6    S    
C3    C9    A    
C51   O13   D    
C31   C32   S    
C3    C35   A    
C36   C48   S    
C24   O8    A    
C12   C20   A    
C16   C18   A    
C52   O14   D    
C8    C10   A    
C12   C14   A    
C54   H32   S    
C16   C49   S    
C4    C10   A    
C25   H3    S    
C48   H22   S    
C47   H19   S    
C23   O5    A    
C5    C41   A    
C38   C45   S    
C3    C41   A    
O7    Zn2   S    
C18   C22   A    
C39   C44   S    
C16   N2    A    
C50   O12   D    
C5    C8    A    
O5    Zn1   S    
C6    C7    A    
C25   C27   A    
C20   C28   A    
C26   C28   A    
C13   C52   S    
C11   C53   S    
C44   H14   S    
C36   C38   A    
C1    O3    A    
C45   H15   S    
C29   C31   T    
C2    O4    A    
C30   C32   T    
C11   C13   A    
C4    C42   A    
C17   C19   A    
C18   C20   A    
C52   H26   S    
C17   C21   A    
C14   C51   S    
C26   H4    S    
C43   H9    S    
C7    C9    A    
C12   C54   S    
C50   H24   S    
C24   O6    A    
C6    C42   A    
O4    Zn1   S    
C27   H7    S    
C15   C50   S    
