data_mof_unit_19738.cif
_audit_creation_date              2012-12-11T17:29:59-0500
_audit_creation_method            fapswitch 2.2
_symmetry_space_group_name_H-M    P1
_symmetry_Int_Tables_number       1
_space_group_crystal_system       triclinic
_cell_length_a                    19.278056
_cell_length_b                    19.384278
_cell_length_c                    20.391593
_cell_angle_alpha                 107.155219
_cell_angle_beta                  105.975257
_cell_angle_gamma                 112.623366
_cell_volume                      6033.04345977

loop_
_atom_site_label
_atom_site_type_symbol
_atom_type_description
_atom_site_fract_x
_atom_site_fract_y
_atom_site_fract_z
_atom_type_partial_charge
C1    C     C_R   0.079474 0.088934 0.351853 -0.213446
C2    C     C_R   0.245069 0.073904 0.541428 -0.128841
C3    C     C_3   0.673477 0.979911 0.339849 -0.287959
C4    C     C_3   0.617233 0.929133 0.253978 -1.009625
C5    C     C_3   0.740596 0.995555 0.707976 0.147716
C6    C     C_3   0.828234 0.061914 0.725769 -0.298376
C7    C     C_3   0.887158 0.106352 0.810911 -0.984019
C8    C     C_3   0.799192 0.912310 0.180697 0.183749
C9    C     C_3   0.763095 0.944576 0.128108 -0.309003
C10   C     C_3   0.803383 0.039457 0.169358 -1.013173
C11   C     C_3   0.474558 0.319275 0.771420 0.221073
C12   C     C_3   0.473384 0.344021 0.706368 -0.363058
C13   C     C_R   0.156960 0.216889 0.714207 -0.080367
C14   C     C_3   0.551986 0.359754 0.694835 -0.974441
C15   C     C_3   0.897513 0.271085 0.579923 0.131020
C16   C     C_3   0.874692 0.302536 0.644227 -0.251704
C17   C     C_3   0.804754 0.320998 0.617290 -1.006978
C18   C     C_3   0.176723 0.447640 0.802593 0.273339
C19   C     C_3   0.175669 0.456193 0.879648 -0.407524
C20   C     C_3   0.107646 0.375742 0.871496 -0.816089
C21   C     C_3   0.902718 0.767892 0.764087 0.258375
C22   C     C_3   0.944388 0.732374 0.720442 -0.329552
C23   C     C_3   0.902234 0.637402 0.689864 -1.027735
C24   C     C_R   0.756383 0.927450 0.494260 0.450481
C25   C     C_3   0.199067 0.288685 0.513716 0.134724
C26   C     C_3   0.265016 0.342083 0.494785 -0.255962
C27   C     C_3   0.352903 0.368024 0.548674 -1.039391
C28   C     C_3   0.028830 0.834905 0.274328 0.132657
C29   C     C_3   0.019986 0.758339 0.214825 -0.233290
C30   C     C_3   0.050764 0.711304 0.251863 -1.055695
C31   C     C_R   0.018964 0.777456 0.448155 -0.234662
C32   C     C_R   0.235648 0.262752 0.719289 0.190170
C33   C     C_R   0.983393 0.733452 0.482257 -0.103029
C34   C     C_R   0.255042 0.005563 0.527839 0.096213
C35   C     C_R   0.001317 0.979456 0.728940 -0.012574
C36   C     C_R   0.028318 0.675218 0.564148 -0.204887
C37   C     C_R   0.999463 0.670699 0.491567 0.116303
C38   C     C_R   0.754253 0.998437 0.533044 0.071312
C39   C     C_R   0.000417 0.616116 0.430187 -0.240844
C40   C     C_R   0.026510 0.561751 0.439757 0.089404
C41   C     C_R   0.049002 0.560385 0.511047 0.082778
C42   C     C_R   0.839813 0.817036 0.280855 -0.153731
C43   C     C_R   0.053381 0.619621 0.574425 0.087600
C44   C     C_R   0.027354 0.506706 0.378370 -0.348118
C45   C     C_R   0.039016 0.442136 0.383878 0.533509
C46   C     C_R   0.042983 0.430214 0.449634 -0.238009
C47   C     C_R   0.059109 0.495141 0.516600 -0.122823
C48   C     C_R   0.075285 0.489669 0.586299 0.000430
C49   C     C_R   0.759617 0.796666 0.272951 0.079669
C50   C     C_R   0.089933 0.554268 0.652351 0.579248
C51   C     C_R   0.079889 0.620325 0.645798 -0.413657
C52   C     C_R   0.021263 0.352376 0.447917 0.583459
C53   C     C_R   0.036484 0.347041 0.516967 -0.042180
C54   C     C_R   0.983514 0.225600 0.550522 0.453960
C55   C     C_R   0.069449 0.416205 0.586390 -0.258624
C56   C     C_R   0.361411 0.970786 0.578487 -0.275623
C57   C     C_R   0.335041 0.013558 0.543107 0.105329
C58   C     C_R   0.384758 0.065388 0.520011 -0.285611
C59   C     C_R   0.459672 0.070892 0.527119 0.144277
C60   C     C_R   0.022197 0.268549 0.515019 -0.213110
C61   C     C_R   0.486505 0.025888 0.560276 0.108987
C62   C     C_R   0.438601 0.977781 0.588436 0.138190
C63   C     C_R   0.505281 0.116677 0.497252 -0.224548
C64   C     C_R   0.573756 0.111760 0.493625 -0.159143
C65   C     C_R   0.598168 0.063132 0.522120 -0.029553
C66   C     C_R   0.763041 0.813156 0.345045 -0.172323
C67   C     C_R   0.558229 0.024793 0.560573 -0.088150
C68   C     C_R   0.586565 0.980804 0.594516 -0.052202
C69   C     C_R   0.541259 0.937287 0.626582 -0.156659
C70   C     C_R   0.466986 0.934884 0.622597 -0.211505
C71   C     C_R   0.233934 0.222977 0.650025 -0.140146
C72   C     C_R   0.658222 0.047399 0.508594 0.418207
C73   C     C_R   0.687634 0.006313 0.544298 -0.226225
C74   C     C_R   0.657752 0.978877 0.592324 0.463980
C75   C     C_R   0.302075 0.347758 0.777678 -0.186226
C76   C     C_R   0.281833 0.410320 0.803612 0.524702
C77   C     C_R   0.347948 0.491585 0.858961 -0.394944
C78   C     C_R   0.060384 0.230044 0.485281 0.557790
C79   C     C_R   0.430872 0.508669 0.888388 0.189518
C80   C     C_R   0.449355 0.446770 0.859829 -0.386883
C81   C     C_R   0.385695 0.365633 0.803669 0.523629
C82   C     C_R   0.938954 0.765972 0.510135 0.544621
C83   C     C_R   0.619990 0.737195 0.070153 -0.309872
C84   C     C_R   0.691849 0.779976 0.139355 0.545273
C85   C     C_R   0.541484 0.686614 0.064929 0.173662
C86   C     C_R   0.685310 0.767686 0.203133 -0.033488
C87   C     C_R   0.605360 0.724306 0.198952 -0.237025
C88   C     C_R   0.534033 0.685541 0.130678 -0.177936
C89   C     C_R   0.091951 0.037885 0.230476 0.184286
C90   C     C_R   0.829853 0.067633 0.560430 -0.186015
C91   C     C_R   0.122973 0.988307 0.199888 -0.136731
C92   C     C_R   0.152554 0.999666 0.146642 -0.205015
C93   C     C_R   0.178682 0.933883 0.475824 -0.161546
C94   C     C_R   0.151290 0.061094 0.123345 0.229391
C95   C     C_R   0.127297 0.115065 0.159259 -0.180647
C96   C     C_R   0.097737 0.103662 0.212420 -0.198321
C97   C     C_R   0.171256 0.044724 0.918469 -0.168496
C98   C     C_R   0.128226 0.040292 0.848919 -0.263719
C99   C     C_R   0.131822 0.983603 0.939282 0.201723
C100  C     C_R   0.044503 0.975712 0.799500 0.018381
C101  C     C_R   0.006735 0.909825 0.817951 0.580479
C102  C     C_R   0.015910 0.950865 0.288327 0.505921
C103  C     C_R   0.051883 0.915717 0.888553 -0.390758
C104  C     C_R   0.023809 0.052602 0.719720 -0.250935
C105  C     C_R   0.057108 0.024877 0.284077 -0.109022
C106  C     C_3   0.811741 0.645064 0.461508 0.171249
C107  C     C_3   0.760239 0.653774 0.395387 -0.334510
C108  C     C_3   0.686872 0.568806 0.332288 -0.992795
C109  C     C_3   0.805801 0.828414 0.602627 0.390650
C110  C     C_3   0.739685 0.775008 0.621662 -0.284601
C111  C     C_3   0.710294 0.682200 0.581400 -0.929490
C112  C     C_3   0.616707 0.817847 0.430813 0.195755
C113  C     C_3   0.559833 0.765239 0.457616 -0.247937
C114  C     C_3   0.468504 0.737742 0.412426 -1.035757
C115  C     C_R   0.947947 0.912917 0.655708 0.492949
C116  C     C_3   0.116683 0.397819 0.337687 0.237739
C117  C     C_3   0.115098 0.341973 0.265855 -0.246485
C118  C     C_3   0.201266 0.352210 0.280271 -1.050323
C119  C     C_3   0.899342 0.257122 0.336830 0.251089
C120  C     C_3   0.840516 0.208637 0.364713 -0.393607
C121  C     C_3   0.749981 0.181437 0.316729 -0.990534
C122  C     C_3   0.070147 0.565276 0.762222 0.135757
C123  C     C_3   0.127324 0.645980 0.837420 -0.254945
C124  C     C_3   0.080344 0.660559 0.884282 -1.027756
C125  C     C_3   0.629726 0.012216 0.382330 0.191166
H1    H     H_    0.168030 0.871625 0.448275 0.108569
H2    H     H_    0.561039 0.902100 0.651741 0.146560
H3    H     H_    0.556482 0.302167 0.679632 0.266893
H4    H     H_    0.473635 0.646701 0.127063 0.129663
H5    H     H_    0.841628 0.211796 0.532087 0.150696
H6    H     H_    0.914989 0.319171 0.559311 0.110619
H7    H     H_    0.854137 0.254825 0.665015 0.190269
H8    H     H_    0.930790 0.360734 0.692745 0.190473
H9    H     H_    0.825132 0.371016 0.598997 0.263700
H10   H     H_    0.788811 0.342495 0.664847 0.269235
H11   H     H_    0.748011 0.263609 0.568769 0.280121
H12   H     H_    0.112340 0.425919 0.762063 0.149376
H13   H     H_    0.431012 0.898302 0.644846 0.131027
H14   H     H_    0.215821 0.508741 0.805003 0.082845
H15   H     H_    0.237180 0.472983 0.921959 0.203754
H16   H     H_    0.163351 0.507623 0.902390 0.169920
H17   H     H_    0.045290 0.357029 0.828915 0.243976
H18   H     H_    0.105969 0.386123 0.927437 0.236018
H19   H     H_    0.121058 0.324325 0.853491 0.260989
H20   H     H_    0.160185 0.089460 0.835038 0.155916
H21   H     H_    0.124955 0.161717 0.141271 0.126850
H22   H     H_    0.833902 0.727213 0.730395 0.142990
H23   H     H_    0.915157 0.762867 0.818341 0.059409
H24   H     H_    0.513430 0.461935 0.886486 0.149184
H25   H     H_    0.940033 0.747164 0.671492 0.270066
H26   H     H_    0.011704 0.761278 0.758949 0.174043
H27   H     H_    0.907190 0.620277 0.737617 0.265227
H28   H     H_    0.932774 0.613470 0.657952 0.274009
H29   H     H_    0.835120 0.606762 0.650041 0.269597
H30   H     H_    0.203691 0.232209 0.509174 0.104627
H31   H     H_    0.211978 0.326604 0.573372 0.112144
H32   H     H_    0.252348 0.305738 0.435138 0.194569
H33   H     H_    0.261478 0.399128 0.499447 0.198452
H34   H     H_    0.366752 0.403537 0.608928 0.267228
H35   H     H_    0.597510 0.714819 0.246639 0.135653
H36   H     H_    0.399504 0.408569 0.534803 0.277195
H37   H     H_    0.358573 0.311727 0.541879 0.263300
H38   H     H_    0.993782 0.813552 0.306036 0.125266
H39   H     H_    0.096619 0.878657 0.313964 0.100303
H40   H     H_    0.953150 0.715289 0.172601 0.211525
H41   H     H_    0.056898 0.778720 0.183951 0.195157
H42   H     H_    0.116788 0.753663 0.296052 0.268786
H43   H     H_    0.047134 0.658487 0.207603 0.277791
H44   H     H_    0.010875 0.685445 0.278531 0.263476
H45   H     H_    0.336616 0.541736 0.881758 0.141605
H46   H     H_    0.232940 0.098366 0.958164 0.134568
H47   H     H_    0.075745 0.143767 0.236834 0.140724
H48   H     H_    0.171645 0.957320 0.120719 0.129662
H49   H     H_    0.022104 0.873442 0.909571 0.145085
H50   H     H_    0.123603 0.940237 0.216191 0.141048
H51   H     H_    0.063204 0.116085 0.764691 0.136848
H52   H     H_    0.712675 0.806013 0.359328 0.136031
H53   H     H_    0.851313 0.130027 0.601067 0.161345
H54   H     H_    0.279829 0.249523 0.630773 0.090957
H55   H     H_    0.125037 0.153520 0.372261 0.179065
H56   H     H_    0.768930 0.609139 0.481056 0.139146
H57   H     H_    0.838351 0.606273 0.441063 0.100554
H58   H     H_    0.735579 0.694250 0.416848 0.217463
H59   H     H_    0.800758 0.683053 0.370602 0.205901
H60   H     H_    0.709901 0.527282 0.309134 0.268009
H61   H     H_    0.651685 0.577416 0.285185 0.275018
H62   H     H_    0.293569 0.138964 0.574598 0.104420
H63   H     H_    0.643787 0.538723 0.354748 0.264046
H64   H     H_    0.785917 0.798913 0.540286 0.146846
H65   H     H_    0.808093 0.889730 0.619726 0.052943
H66   H     H_    0.764647 0.797367 0.684440 0.214644
H67   H     H_    0.684502 0.782814 0.603142 0.178253
H68   H     H_    0.678207 0.658105 0.518497 0.250623
H69   H     H_    0.665425 0.646723 0.599716 0.243406
H70   H     H_    0.764140 0.672079 0.596137 0.292853
H71   H     H_    0.049752 0.762982 0.413829 0.135812
H72   H     H_    0.031536 0.721912 0.611942 0.130349
H73   H     H_    0.133031 0.236204 0.753787 0.127925
H74   H     H_    0.015159 0.511309 0.325098 0.161397
H75   H     H_    0.598237 0.776509 0.370861 0.087570
H76   H     H_    0.603568 0.868094 0.428561 0.081452
H77   H     H_    0.565704 0.708905 0.450362 0.193272
H78   H     H_    0.578977 0.801670 0.518988 0.233633
H79   H     H_    0.461053 0.793371 0.421135 0.272504
H80   H     H_    0.428842 0.698801 0.432511 0.273801
H81   H     H_    0.446974 0.700093 0.350507 0.267321
H82   H     H_    0.137257 0.380499 0.383884 0.133366
H83   H     H_    0.162599 0.464343 0.355622 0.072552
H84   H     H_    0.980213 0.615820 0.374818 0.129224
H85   H     H_    0.069434 0.275401 0.247049 0.208441
H86   H     H_    0.094643 0.358694 0.219296 0.198494
H87   H     H_    0.248355 0.418734 0.300795 0.272373
H88   H     H_    0.198875 0.313707 0.226315 0.272712
H89   H     H_    0.220792 0.331122 0.323419 0.269671
H90   H     H_    0.879757 0.216166 0.276294 0.150320
H91   H     H_    0.891926 0.311356 0.337017 0.094087
H92   H     H_    0.845837 0.152964 0.362187 0.204576
H93   H     H_    0.858611 0.249341 0.424718 0.186246
H94   H     H_    0.744509 0.236766 0.318026 0.265294
H95   H     H_    0.321743 0.931951 0.596964 0.136727
H96   H     H_    0.709513 0.150333 0.340544 0.278490
H97   H     H_    0.727539 0.136974 0.256584 0.269782
H98   H     H_    0.082742 0.409643 0.638545 0.205520
H99   H     H_    0.046272 0.511969 0.775916 0.111312
H100  H     H_    0.013798 0.565539 0.728915 0.107581
H101  H     H_    0.180251 0.641850 0.871520 0.194036
H102  H     H_    0.153610 0.700318 0.825515 0.196318
H103  H     H_    0.029390 0.668592 0.852764 0.271626
H104  H     H_    0.124210 0.718328 0.939169 0.270956
H105  H     H_    0.053382 0.606924 0.896938 0.267748
H106  H     H_    0.485249 0.152286 0.472835 0.132886
H107  H     H_    0.089374 0.670184 0.695246 0.154900
H108  H     H_    0.362609 0.097835 0.492324 0.130842
H109  H     H_    0.605326 0.045154 0.355120 0.116265
H110  H     H_    0.574237 0.957079 0.375184 0.070624
H111  H     H_    0.731999 0.033389 0.350349 0.216288
H112  H     H_    0.690388 0.939647 0.361498 0.177125
H113  H     H_    0.559336 0.873638 0.242009 0.269287
H114  H     H_    0.650810 0.907200 0.224788 0.268047
H115  H     H_    0.600291 0.968381 0.230537 0.270100
H116  H     H_    0.747150 0.956040 0.736393 0.136052
H117  H     H_    0.605882 0.144061 0.466594 0.149904
H118  H     H_    0.709492 0.026366 0.733079 0.092898
H119  H     H_    0.855301 0.032009 0.693792 0.215405
H120  H     H_    0.823496 0.109281 0.707682 0.179896
H121  H     H_    0.861608 0.136913 0.844508 0.263354
H122  H     H_    0.949165 0.155090 0.821693 0.268653
H123  H     H_    0.895831 0.060932 0.830009 0.272680
H124  H     H_    0.868102 0.944965 0.201230 0.149517
H125  H     H_    0.788360 0.929144 0.232681 0.081465
H126  H     H_    0.774485 0.927296 0.076703 0.218349
H127  H     H_    0.694473 0.915471 0.109325 0.191953
H128  H     H_    0.859635 0.810412 0.236179 0.199268
H129  H     H_    0.793429 0.057427 0.221407 0.273523
H130  H     H_    0.774574 0.061337 0.131178 0.269907
H131  H     H_    0.871676 0.070425 0.185983 0.274372
H132  H     H_    0.625892 0.739490 0.019403 0.154897
H133  H     H_    0.479144 0.261742 0.756103 0.135279
H134  H     H_    0.531458 0.366367 0.825719 0.086548
H135  H     H_    0.418099 0.292494 0.652505 0.200563
H136  H     H_    0.469170 0.401672 0.719128 0.202421
H137  H     H_    0.608664 0.411514 0.747755 0.264568
H138  H     H_    0.549218 0.377562 0.647565 0.272891
N1    N     N_R   0.052570 0.055840 0.395080 -0.068048
N2    N     N_2   0.473718 0.623066 0.993955 -0.086822
N3    N     N_2   0.153821 0.058431 0.053956 -0.089531
N4    N     N_R   0.834730 0.954500 0.499860 -0.104648
N5    N     N_2   0.159268 0.998835 0.016172 -0.094433
N6    N     N_R   0.890190 0.849120 0.355200 -0.060208
N7    N     N_R   0.997110 0.161210 0.539740 -0.106512
N8    N     N_R   0.841940 0.845190 0.395070 -0.048325
N9    N     N_R   0.045360 0.165140 0.499870 -0.143312
N10   N     N_R   0.877490 0.041590 0.539730 -0.072816
N11   N     N_R   0.009810 0.968740 0.355210 -0.108604
N12   N     N_R   0.954640 0.834860 0.500130 -0.098855
N13   N     N_R   0.158060 0.154810 0.604930 -0.058595
N14   N     N_R   0.122510 0.958410 0.460270 -0.052550
N15   N     N_R   0.990190 0.031260 0.644790 -0.063999
N16   N     N_R   0.947430 0.944160 0.604920 -0.123448
N17   N     N_R   0.165270 0.045500 0.500140 -0.045785
N18   N     N_R   0.109810 0.150880 0.644800 -0.044959
N19   N     N_R   0.002890 0.838790 0.460260 -0.066609
N20   N     N_2   0.496809 0.583675 0.953474 -0.066470
Ni1   Ni    Ni4+2 0.104370 0.104380 0.500010 0.187816
Ni2   Ni    Ni4+2 0.895630 0.895620 0.499990 0.215423
Ni3   Ni    Ni4+2 0.006290 0.904630 0.408560 0.184258
Ni4   Ni    Ni4+2 0.993710 0.095370 0.591440 0.223721
O1    O     O_3   0.873034 0.724349 0.524753 -0.655972
O2    O     O_3   0.399606 0.298748 0.779863 -0.659875
O3    O     O_3   0.964379 0.257886 0.608656 -0.656082
O4    O     O_3   0.197146 0.386853 0.771411 -0.653477
O5    O     O_3   0.922292 0.849924 0.773695 -0.649649
O6    O     O_3   0.119242 0.264435 0.460735 -0.651632
O7    O     O_3   0.995609 0.873165 0.236431 -0.676672
O8    O     O_3   0.884259 0.836912 0.640842 -0.612510
O9    O     O_3   0.701446 0.845472 0.476625 -0.705882
O10   O     O_3   0.035617 0.385852 0.321001 -0.652709
O11   O     O_3   0.983336 0.280257 0.379514 -0.631023
O12   O     O_3   0.117287 0.552797 0.722273 -0.695712
O13   O     O_3   0.688261 0.070567 0.459392 -0.672449
O14   O     O_3   0.692337 0.941634 0.628506 -0.677513
O15   O     O_3   0.768029 0.825514 0.140312 -0.668674

loop_
_geom_bond_atom_site_label_1
_geom_bond_atom_site_label_2
_ccdc_geom_bond_type
N9    Ni1   S    
C48   C55   A    
C99   C103  A    
C87   C88   A    
C22   H25   S    
C28   H38   S    
C119  H90   S    
C7    H122  S    
C27   H36   S    
C25   H30   S    
C41   C43   A    
C73   C74   A    
C20   H19   S    
C13   C32   A    
C95   C96   A    
C111  H70   S    
C34   C93   A    
C28   O7    S    
N7    Ni4   S    
C23   H27   S    
C58   H108  S    
C13   N18   A    
C32   C75   S    
C90   H53   S    
C97   C98   A    
C123  C124  S    
C102  O7    S    
C123  H101  S    
C54   C60   A    
C45   C46   A    
C56   C57   A    
C5    C6    S    
C7    H121  S    
C60   C78   A    
C26   C27   S    
C50   O12   S    
C102  C105  A    
C10   H131  S    
C117  H85   S    
N16   Ni2   S    
C108  H61   S    
C28   C29   S    
C9    H126  S    
C84   C86   A    
C30   H42   S    
C122  O12   S    
C69   C70   A    
C27   H37   S    
C2    N17   A    
C31   H71   S    
C1    H55   S    
C15   H6    S    
C123  H102  S    
C106  C107  S    
C55   H98   S    
C27   H34   S    
C15   C16   S    
C46   C52   A    
C110  H66   S    
C14   H3    S    
C87   H35   S    
C62   C70   A    
C74   O14   S    
C118  H87   S    
C18   C19   S    
C71   H54   S    
N12   N19   A    
C93   H1    S    
C106  H57   S    
C76   O4    S    
C66   N8    A    
C6    H120  S    
C24   O9    S    
C110  C111  S    
C10   H129  S    
C84   O15   S    
C83   C84   A    
C65   C72   A    
C109  H64   S    
C68   C69   A    
C65   C67   A    
C21   H23   S    
C17   H10   S    
C34   C57   S    
C24   C38   A    
C121  H97   S    
C31   C33   A    
C35   C115  A    
C125  H109  S    
C78   N9    A    
C89   C91   A    
C82   O1    S    
C33   C82   A    
C77   H45   S    
C93   N14   A    
C124  H104  S    
C91   C92   A    
C118  H88   S    
C72   C73   A    
C56   C62   A    
C25   O6    S    
C2    C34   A    
C48   C50   A    
C42   C49   A    
C119  H91   S    
C101  C103  A    
C122  H99   S    
C21   C22   S    
C25   H31   S    
C121  H94   S    
C20   H18   S    
C6    H119  S    
C42   N6    A    
C18   H14   S    
C95   H21   S    
C88   H4    S    
C16   H7    S    
C16   H8    S    
C72   O13   S    
C112  C113  S    
C124  H103  S    
C53   C60   S    
N8    Ni2   S    
C32   C71   A    
C53   C55   A    
C41   C47   A    
C80   H24   S    
C94   N3    S    
C66   H52   S    
C8    O15   S    
C8    H124  S    
C59   C61   A    
C49   C66   A    
C115  O8    S    
C67   C68   A    
C112  O9    S    
C11   H133  S    
C85   N2    S    
N6    Ni3   S    
C117  H86   S    
C31   N19   A    
C76   C77   A    
C14   H137  S    
C35   C104  A    
N15   Ni4   S    
C104  N15   A    
C39   C40   A    
C125  O13   S    
C86   C87   A    
C19   H15   S    
C78   O6    S    
N13   Ni1   S    
C42   H128  S    
C121  H96   S    
C25   C26   S    
C63   C64   A    
C122  H100  S    
C7    H123  S    
C103  H49   S    
N1    N11   A    
C10   H130  S    
C107  H58   S    
C45   O10   S    
C29   H41   S    
C54   O3    S    
C18   H12   S    
C75   C76   A    
N18   Ni4   S    
C30   H44   S    
C29   C30   S    
C125  H110  S    
C20   H17   S    
C3    H111  S    
C5    O14   S    
C1    N1    A    
C61   C67   A    
C83   H132  S    
C47   C48   A    
C11   O2    S    
C109  H65   S    
C107  C108  S    
C8    H125  S    
C9    H127  S    
C17   H11   S    
C92   C94   A    
C50   C51   A    
C8    C9    S    
C77   C79   A    
C91   H50   S    
C94   C95   A    
C118  H89   S    
C21   O5    S    
C113  H77   S    
C102  N11   A    
C104  H51   S    
C18   O4    S    
C71   N13   A    
C116  H83   S    
N3    N5    D    
C111  H68   S    
N11   Ni3   S    
C120  H93   S    
C40   C41   A    
C83   C85   A    
C3    H112  S    
C116  O10   S    
N19   Ni3   S    
C98   C100  A    
N6    N8    A    
C24   N4    A    
C96   H47   S    
N1    Ni1   S    
N4    Ni2   S    
N7    N9    A    
C23   H29   S    
C22   H26   S    
C119  O11   S    
C3    C4    S    
N12   Ni2   S    
C21   H22   S    
C56   H95   S    
C52   C53   A    
N2    N20   D    
C63   H106  S    
C113  C114  S    
C9    C10   S    
C85   C88   A    
C115  N16   A    
C28   H39   S    
C38   C90   A    
C46   C47   A    
N4    N10   A    
C114  H79   S    
C97   C99   A    
C15   O3    S    
C39   H84   S    
C52   O11   S    
C51   H107  S    
N15   N16   A    
C49   C86   S    
C108  H63   S    
C22   C23   S    
C75   C81   A    
C44   C45   A    
N17   Ni1   S    
C12   C14   S    
C80   C81   A    
C112  H76   S    
C119  C120  S    
C3    C125  S    
C70   H13   S    
C6    C7    S    
C98   H20   S    
C92   H48   S    
C4    H115  S    
C11   H134  S    
C109  O8    S    
N14   Ni3   S    
C99   N5    S    
C106  H56   S    
C59   C63   A    
C97   H46   S    
C114  H80   S    
C107  H59   S    
C13   H73   S    
C5    H118  S    
C19   C20   S    
C23   H28   S    
C82   N12   A    
C58   C59   A    
C30   H43   S    
C37   C39   A    
C109  C110  S    
C64   C65   A    
C43   C51   A    
C57   C58   A    
C16   C17   S    
C15   H5    S    
C81   O2    S    
C36   C37   A    
C89   C96   A    
N10   Ni4   S    
C110  H67   S    
C100  C101  A    
C54   N7    A    
C4    H114  S    
C116  C117  S    
C26   H33   S    
C90   N10   A    
C29   H40   S    
C12   H136  S    
C113  H78   S    
C108  H60   S    
C61   C62   A    
C36   H72   S    
C33   C37   S    
C116  H82   S    
C14   H138  S    
C120  H92   S    
C111  H69   S    
C106  O1    S    
C79   C80   A    
C114  H81   S    
C40   C44   A    
C2    H62   S    
C64   H117  S    
C69   H2    S    
C44   H74   S    
C19   H16   S    
N13   N18   A    
N14   N17   A    
C89   C105  S    
C17   H9    S    
C4    H113  S    
C120  C121  S    
C36   C43   A    
C12   H135  S    
C5    H116  S    
C122  C123  S    
C117  C118  S    
C79   N20   S    
C112  H75   S    
C101  O5    S    
C124  H105  S    
C35   C100  S    
C11   C12   S    
C1    C105  A    
C26   H32   S    
C68   C74   A    
C38   C73   S    
