data_mof_unit_33542.cif
_audit_creation_date              2012-12-10T17:24:12-0500
_audit_creation_method            fapswitch 2.2
_symmetry_space_group_name_H-M    P1
_symmetry_Int_Tables_number       1
_space_group_crystal_system       triclinic
_cell_length_a                    10.138131
_cell_length_b                    10.753277
_cell_length_c                    16.568374
_cell_angle_alpha                 91.42504
_cell_angle_beta                  76.879476
_cell_angle_gamma                 95.364881
_cell_volume                      1751.38222965

loop_
_atom_site_label
_atom_site_type_symbol
_atom_type_description
_atom_site_fract_x
_atom_site_fract_y
_atom_site_fract_z
_atom_type_partial_charge
C1    C     C_R   0.557049 0.732804 0.491857 0.939814
C2    C     C_R   0.443631 0.267065 0.502385 0.934983
C3    C     C_2   0.590523 0.864755 0.477547 -0.380129
C4    C     C_2   0.412810 0.134543 0.494004 -0.382027
C5    C     C_2   0.492407 0.932548 0.466832 -0.149228
C6    C     C_2   0.515808 0.065583 0.464525 -0.156099
C7    C     C_2   0.926528 0.510955 0.506920 -0.126854
C8    C     C_2   0.073507 0.489012 0.493067 -0.122703
C9    C     C_R   0.480744 0.497440 0.655249 0.915490
C10   C     C_R   0.517221 0.494652 0.345030 0.909890
C11   C     C_R   0.459789 0.459406 0.741002 -0.160784
C12   C     C_R   0.520223 0.460513 0.259957 -0.166005
C13   C     C_R   0.531347 0.362552 0.758947 -0.277083
C14   C     C_R   0.625726 0.509728 0.196413 -0.320647
C15   C     C_R   0.502990 0.312579 0.837884 0.457766
C16   C     C_R   0.629331 0.473122 0.114352 0.495271
C17   C     C_R   0.410777 0.368787 0.902080 -0.068691
C18   C     C_R   0.534036 0.376862 0.098439 -0.092113
C19   C     C_R   0.334328 0.463430 0.884409 0.473727
C20   C     C_R   0.436689 0.318035 0.164314 0.492292
C21   C     C_R   0.357021 0.505447 0.802284 -0.338356
C22   C     C_R   0.426007 0.365250 0.244014 -0.273854
C23   C     C_2   0.410187 0.345559 0.988838 -0.160554
C24   C     C_2   0.528554 0.349769 0.012328 -0.165249
H1    H     H_    0.606275 0.321817 0.710790 0.185253
H2    H     H_    0.702975 0.577801 0.210681 0.157895
H3    H     H_    0.348224 0.322927 0.294272 0.172876
H4    H     H_    0.296699 0.574795 0.786115 0.161986
H5    H     H_    0.623858 0.359468 0.966117 0.233142
H6    H     H_    0.315912 0.352375 0.034863 0.230884
H7    H     H_    0.620434 0.106430 0.445782 0.189470
H8    H     H_    0.390012 0.891164 0.467472 0.190176
H9    H     H_    0.308504 0.093215 0.512939 0.153886
H10   H     H_    0.692532 0.906656 0.477170 0.151760
H11   H     H_    0.114454 0.418814 0.448546 0.162843
H12   H     H_    0.885621 0.581169 0.551428 0.164299
H13   H     H_    0.111479 0.617615 0.574630 0.162217
H14   H     H_    0.888491 0.382354 0.425384 0.165820
N1    N     N_2   0.846390 0.448330 0.467170 -0.192686
N2    N     N_2   0.153610 0.551670 0.532830 -0.192380
O1    O     O_R   0.430310 0.692580 0.506610 -0.610521
O2    O     O_R   0.569690 0.307420 0.493390 -0.612084
O3    O     O_R   0.652740 0.659410 0.485540 -0.609375
O4    O     O_R   0.347260 0.340590 0.514460 -0.610180
O5    O     O_R   0.375640 0.518570 0.627580 -0.602232
O6    O     O_R   0.624360 0.481430 0.372420 -0.602174
O7    O     O_R   0.598070 0.485390 0.606510 -0.613275
O8    O     O_R   0.401930 0.514610 0.393490 -0.612064
Zn1   Zn    Zn3+2 0.351480 0.522150 0.514070 0.938360
Zn2   Zn    Zn3+2 0.648520 0.477850 0.485930 0.937942
O9    O     O_3   0.236324 0.509249 0.948342 -0.603417
C25   C     C_3   0.240041 0.640913 0.946177 0.096606
H15   H     H_    0.178689 0.669080 0.903096 0.152133
H16   H     H_    0.345852 0.685806 0.927077 0.135401
C26   C     C_3   0.178226 0.688901 0.032293 -0.816894
H17   H     H_    0.236806 0.661592 0.077096 0.254005
H18   H     H_    0.181097 0.792371 0.031396 0.199082
H19   H     H_    0.070870 0.649164 0.052574 0.270527
O10   O     O_3   0.345524 0.219605 0.151239 -0.623603
C27   C     C_3   0.411802 0.108240 0.136693 0.110128
H20   H     H_    0.519116 0.122570 0.100460 0.137927
H21   H     H_    0.356697 0.044964 0.098902 0.165636
C28   C     C_3   0.406358 0.042651 0.218199 -0.875259
H22   H     H_    0.467589 0.099707 0.255702 0.250856
H23   H     H_    0.299503 0.027673 0.254130 0.266830
H24   H     H_    0.448381 0.950641 0.205337 0.217840
O11   O     O_3   0.727872 0.526455 0.049024 -0.643417
C29   C     C_3   0.716841 0.656287 0.043299 0.088710
H25   H     H_    0.809050 0.695915 0.998401 0.172419
H26   H     H_    0.717329 0.706488 0.102722 0.125412
C30   C     C_3   0.591428 0.682319 0.011025 -0.352392
H27   H     H_    0.595153 0.635136 0.950182 0.229148
H28   H     H_    0.497230 0.644928 0.055151 0.220805
C31   C     C_3   0.585378 0.822308 0.001217 -1.004165
H29   H     H_    0.585073 0.871526 0.060978 0.265408
H30   H     H_    0.490793 0.839227 0.981893 0.255992
H31   H     H_    0.674059 0.861204 0.953404 0.272573
O12   O     O_3   0.576770 0.217017 0.852849 -0.649205
C32   C     C_3   0.493050 0.103014 0.864156 0.082431
H32   H     H_    0.386283 0.113869 0.898097 0.130997
H33   H     H_    0.535753 0.042564 0.903311 0.171740
C33   C     C_3   0.495046 0.037574 0.780620 -0.337010
H34   H     H_    0.442599 0.092120 0.743286 0.214722
H35   H     H_    0.602059 0.032792 0.745949 0.235815
C34   C     C_3   0.424603 0.905331 0.792177 -0.993581
H36   H     H_    0.480037 0.847079 0.825336 0.262232
H37   H     H_    0.423825 0.862200 0.730659 0.272718
H38   H     H_    0.317935 0.907192 0.827991 0.260155

loop_
_geom_bond_atom_site_label_1
_geom_bond_atom_site_label_2
_ccdc_geom_bond_type
O4    Zn1   S    
C26   H17   S    
C28   H23   S    
C9    O5    A    
C7    H12   S    
C7    C8    S    
C34   H36   S    
C17   C23   S    
C31   H30   S    
C27   C28   S    
C18   C24   S    
C19   C21   A    
H13   N2    S    
C5    C6    S    
C15   O12   S    
N2    Zn1   S    
C12   C22   A    
C27   H21   S    
C24   H5    S    
C1    O3    A    
C2    O4    A    
C29   H25   S    
C31   H31   S    
C10   O6    A    
C23   C24   D    
C25   C26   S    
C5    H8    S    
C6    H7    S    
C28   H24   S    
O10   C27   S    
C13   H1    S    
O1    Zn1   S    
C25   H16   S    
O7    Zn2   S    
C34   H37   S    
C31   H29   S    
O9    C25   S    
C23   H6    S    
C32   H32   S    
C4    C6    D    
C30   H28   S    
O12   C32   S    
C3    H10   S    
C11   C21   A    
O11   C29   S    
C27   H20   S    
C1    C3    S    
C8    H11   S    
C2    C4    S    
C30   C31   S    
O5    Zn1   S    
C16   O11   S    
C14   H2    S    
C20   O10   S    
C9    C11   S    
C10   C12   S    
O2    Zn2   S    
C1    O1    A    
O8    Zn1   S    
C21   H4    S    
C12   C14   A    
C9    O7    A    
C33   H35   S    
C22   H3    S    
C13   C15   A    
C10   O8    A    
C14   C16   A    
C25   H15   S    
C32   H33   S    
C34   H38   S    
C15   C17   A    
C4    H9    S    
C20   C22   A    
C3    C5    D    
C32   C33   S    
O3    Zn2   S    
C33   C34   S    
O6    Zn2   S    
C26   H18   S    
C30   H27   S    
C11   C13   A    
H14   N1    S    
C2    O2    A    
C29   C30   S    
C17   C19   A    
C18   C20   A    
C28   H22   S    
C19   O9    S    
N1    Zn2   S    
C16   C18   A    
C33   H34   S    
C26   H19   S    
C29   H26   S    
C7    N1    D    
C8    N2    D    
