data_mof_unit_48022.cif
_audit_creation_date              2012-12-11T15:57:37-0500
_audit_creation_method            fapswitch 2.2
_symmetry_space_group_name_H-M    P1
_symmetry_Int_Tables_number       1
_space_group_crystal_system       triclinic
_cell_length_a                    10.767362
_cell_length_b                    10.720966
_cell_length_c                    16.936387
_cell_angle_alpha                 99.326059
_cell_angle_beta                  99.836325
_cell_angle_gamma                 61.028368
_cell_volume                      1678.12761641

loop_
_atom_site_label
_atom_site_type_symbol
_atom_type_description
_atom_site_fract_x
_atom_site_fract_y
_atom_site_fract_z
_atom_type_partial_charge
C1    C     C_R   0.353803 0.777061 0.402177 0.558780
C2    C     C_2   0.830872 0.329465 0.159756 -0.107042
C3    C     C_2   0.859262 0.215028 0.196421 -0.159845
C4    C     C_2   0.831735 0.230278 0.279294 -0.162496
C5    C     C_2   0.327558 0.857112 0.334494 -0.067823
C6    C     C_2   0.346456 0.819418 0.158860 0.258228
C7    C     C_2   0.420325 0.868202 0.216080 -0.131615
C8    C     C_2   0.438372 0.841563 0.300144 -0.125847
C9    C     C_2   0.383869 0.370444 0.676812 -0.098929
C10   C     C_2   0.342037 0.360100 0.839094 -0.117086
C11   C     C_2   0.470668 0.292888 0.811649 -0.140353
C12   C     C_R   0.365756 0.342885 0.358503 0.565723
C13   C     C_2   0.492275 0.320167 0.734679 -0.162939
C14   C     C_1   0.848395 0.327550 0.704734 -0.047551
C15   C     C_1   0.895997 0.292625 0.771514 -0.044267
C16   C     C_1   0.339260 0.810782 0.709055 -0.030721
C17   C     C_1   0.313050 0.838143 0.777180 -0.031776
C18   C     C_R   0.894129 0.307920 0.086749 0.555862
C19   C     C_R   0.290961 0.259932 0.121866 0.561930
C20   C     C_R   0.294841 0.889538 0.083735 0.524810
C21   C     C_R   0.945111 0.272653 0.854106 0.568806
C22   C     C_R   0.309153 0.296745 0.896518 0.552236
C23   C     C_R   0.776692 0.376549 0.404958 0.559885
C24   C     C_R   0.278619 0.884479 0.856847 0.543050
C25   C     C_R   0.358186 0.770121 0.626991 0.542578
C26   C     C_R   0.410266 0.378700 0.598003 0.566247
C27   C     C_R   0.778313 0.378183 0.628699 0.539926
C28   C     C_1   0.324077 0.315860 0.276833 -0.053638
C29   C     C_1   0.304727 0.290390 0.206083 -0.063663
C30   C     C_2   0.849069 0.328672 0.332990 -0.113153
Cr1   Cr    Cr6+3 0.608020 0.610770 0.522990 1.034205
Cr2   Cr    Cr6+3 0.289390 0.599570 0.488050 1.030636
Cr3   Cr    Cr6+3 0.602610 0.289690 0.489020 1.023217
Cr4   Cr    Cr6+3 0.053780 0.052210 0.965970 1.003387
Cr5   Cr    Cr6+3 0.060060 0.372530 0.992430 0.990152
Cr6   Cr    Cr6+3 0.372600 0.061970 0.991430 1.010123
H1    H     H_    0.906953 0.107265 0.166406 0.157072
H2    H     H_    0.600987 0.282828 0.722025 0.144887
H3    H     H_    0.255788 0.456096 0.814340 0.105751
H4    H     H_    0.274518 0.403699 0.686174 0.114343
H5    H     H_    0.789365 0.164597 0.294498 0.161587
H6    H     H_    0.779535 0.437261 0.189433 0.110922
H7    H     H_    0.464817 0.933143 0.202444 0.113535
H8    H     H_    0.546132 0.796205 0.330668 0.146265
H9    H     H_    0.219856 0.906734 0.303877 0.137765
H10   H     H_    0.559375 0.203935 0.841169 0.166144
O1    O     O_R   0.749250 0.499990 0.439200 -0.511472
O2    O     O_R   0.299400 0.468710 0.556310 -0.497666
O3    O     O_R   0.489240 0.256450 0.560730 -0.499152
O4    O     O_R   0.723350 0.306730 0.584410 -0.519582
O5    O     O_3   0.500010 0.500010 0.500020 -0.274812
O6    O     O_R   0.170650 0.915100 0.051290 -0.526750
O7    O     O_R   0.941960 0.184500 0.049060 -0.494892
O8    O     O_R   0.922640 0.402670 0.071640 -0.519555
O9    O     O_R   0.196880 0.368740 0.083740 -0.525068
O10   O     O_R   0.411120 0.181190 0.091480 -0.508390
O11   O     O_R   0.364220 0.944920 0.062310 -0.535363
O12   O     O_R   0.477870 0.725740 0.440280 -0.495052
O13   O     O_R   0.158740 0.906940 0.874970 -0.515118
O14   O     O_R   0.930920 0.176940 0.885610 -0.489725
O15   O     O_R   0.910730 0.394510 0.895320 -0.500687
O16   O     O_R   0.185840 0.361180 0.920280 -0.516728
O17   O     O_R   0.399210 0.173040 0.915160 -0.503132
O18   O     O_R   0.353170 0.937370 0.898860 -0.491606
O19   O     O_3   0.162150 0.162240 0.983280 -0.283655
O20   O     O_R   0.260770 0.742210 0.412610 -0.508702
O21   O     O_R   0.297990 0.466320 0.394220 -0.488746
O22   O     O_R   0.487720 0.253870 0.385870 -0.509222
O23   O     O_R   0.721940 0.304340 0.422320 -0.496739
O24   O     O_R   0.750770 0.502570 0.614050 -0.497688
O25   O     O_R   0.479280 0.728140 0.602370 -0.492172
O26   O     O_R   0.262290 0.744790 0.587460 -0.518580
H11   H     H_    0.896655 0.389852 0.317946 0.106416
O27   O     O_3   0.294962 0.734014 0.180959 -0.583880
C31   C     C_3   0.258468 0.651683 0.116564 0.046541
H12   H     H_    0.315280 0.538941 0.131693 0.172221
H13   H     H_    0.294151 0.648480 0.058020 0.107786
C32   C     C_3   0.096891 0.702412 0.107689 -0.228570
H14   H     H_    0.036165 0.814279 0.091490 0.171872
H15   H     H_    0.070449 0.634970 0.057995 0.145020
C33   C     C_3   0.046144 0.695348 0.185016 -0.380090
H16   H     H_    0.105418 0.585527 0.204427 0.172208
H17   H     H_    0.930691 0.725947 0.174373 0.119980
H18   H     H_    0.061540 0.770747 0.233961 0.181444

loop_
_geom_bond_atom_site_label_1
_geom_bond_atom_site_label_2
_ccdc_geom_bond_type
C19   O10   A    
C2    C18   S    
C23   O23   A    
C33   H16   S    
C7    C8    S    
Cr2   O26   S    
C10   C22   S    
C12   O22   A    
C12   C28   S    
C1    C5    S    
Cr1   O12   S    
C28   C29   T    
C32   H15   S    
C4    H5    S    
Cr5   O19   S    
Cr3   O3    S    
C9    C13   D    
C18   O7    A    
C22   O17   A    
Cr1   O24   S    
C16   C17   T    
C25   O25   A    
C7    H7    S    
C14   C27   S    
Cr6   O17   S    
C21   O15   A    
C27   O4    A    
Cr3   O23   S    
Cr1   O25   S    
C24   O18   A    
Cr1   O1    S    
Cr5   O8    S    
Cr4   O14   S    
Cr2   O2    S    
Cr4   O19   S    
C33   H17   S    
C9    C26   S    
C6    O27   S    
C12   O21   A    
C17   C24   S    
C23   O1    A    
O27   C31   S    
Cr5   O9    S    
C23   C30   S    
C21   O14   A    
Cr6   O11   S    
C26   O3    A    
C30   H11   S    
C32   H14   S    
Cr3   O4    S    
C5    H9    S    
C9    H4    S    
C10   H3    S    
C31   H12   S    
Cr2   O5    S    
Cr6   O10   S    
C22   O16   A    
C1    O20   A    
Cr5   O15   S    
C25   O26   A    
C31   H13   S    
C13   H2    S    
C27   O24   A    
Cr2   O21   S    
Cr4   O13   S    
C3    C4    S    
C19   C29   S    
C33   H18   S    
Cr2   O20   S    
C19   O9    A    
C16   C25   S    
Cr6   O19   S    
C8    H8    S    
Cr1   O5    S    
C5    C8    D    
C6    C7    D    
C26   O2    A    
Cr3   O5    S    
C6    C20   S    
Cr4   O6    S    
C2    C3    D    
C20   O6    A    
C1    O12   A    
C11   C13   S    
C32   C33   S    
C2    H6    S    
C24   O13   A    
Cr5   O16   S    
C31   C32   S    
C10   C11   D    
C18   O8    A    
C15   C21   S    
C3    H1    S    
Cr4   O7    S    
C14   C15   T    
C11   H10   S    
C20   O11   A    
Cr6   O18   S    
C4    C30   D    
Cr3   O22   S    
