data_mof_unit_42526.cif
_audit_creation_date              2013-03-05T16:09:57-0500
_audit_creation_method            fapswitch 2.2
_symmetry_space_group_name_H-M    P1
_symmetry_Int_Tables_number       1
_space_group_crystal_system       triclinic
_cell_length_a                    10.667683
_cell_length_b                    9.879523
_cell_length_c                    10.745421
_cell_angle_alpha                 90.918446
_cell_angle_beta                  92.423217
_cell_angle_gamma                 90.123668
_cell_volume                      1131.31471198

loop_
_atom_site_label
_atom_site_type_symbol
_atom_site_description
_atom_site_fract_x
_atom_site_fract_y
_atom_site_fract_z
_atom_type_partial_charge
O1    O     O_R   0.316770 0.614620 0.499990 -0.590951
O2    O     O_R   0.683230 0.614620 0.500010 -0.601423
O3    O     O_R   0.316800 0.385290 0.500000 -0.585562
O4    O     O_R   0.683200 0.385290 0.500000 -0.573761
C1    C     C_R   0.260984 0.500299 0.514939 0.972629
C2    C     C_R   0.739297 0.500566 0.486035 0.947926
O5    O     O_R   0.500010 0.614690 0.316770 -0.636641
O6    O     O_R   0.499990 0.614690 0.683230 -0.635317
O7    O     O_R   0.500040 0.385360 0.316770 -0.534575
O8    O     O_R   0.499960 0.385360 0.683230 -0.549840
C3    C     C_R   0.489037 0.497859 0.259919 0.973458
C4    C     C_R   0.509812 0.501463 0.740980 0.954856
Zn1   Zn    Zn3+2 0.500000 0.653120 0.500000 1.012183
Zn2   Zn    Zn3+2 0.500000 0.346880 0.500000 1.105834
C5    C     C_R   0.342153 0.696013 0.099040 0.155164
C6    C     C_R   0.499091 0.757072 0.902911 0.160477
C7    C     C_R   0.327903 0.820587 0.035681 0.348991
C8    C     C_R   0.411152 0.854222 0.943290 0.339407
C9    C     C_R   0.486748 0.622207 0.944196 -0.184233
C10   C     C_R   0.434144 0.603417 0.058667 -0.179900
C11   C     C_R   0.474055 0.489672 0.126047 -0.074654
C12   C     C_R   0.520070 0.504066 0.876394 -0.103588
C13   C     C_R   0.516761 0.373188 0.064163 0.336003
C14   C     C_R   0.538768 0.380294 0.938028 0.341920
C15   C     C_R   0.060372 0.378722 0.519166 0.470735
C16   C     C_R   0.939086 0.380649 0.470811 0.480770
C17   C     C_R   0.873415 0.503769 0.471387 -0.542697
C18   C     C_R   0.127134 0.501596 0.531158 -0.539996
C19   C     C_R   0.938716 0.627915 0.488015 0.463712
C20   C     C_R   0.062962 0.626324 0.527806 0.476929
C21   C     C_R   0.602025 0.070179 0.548298 0.313186
C22   C     C_R   0.399628 0.068901 0.448694 0.286494
C23   C     C_R   0.600776 0.927111 0.546202 -0.086432
C24   C     C_R   0.399359 0.925984 0.453762 -0.114394
H1    H     H_    0.680235 0.871177 0.583966 0.246706
H2    H     H_    0.319546 0.869432 0.417535 0.256919
N1    N     N_R   0.500000 0.857200 0.500000 -0.159608
N2    N     N_R   0.500000 0.142810 0.500000 -0.192611
O9    O     O_3   0.533912 0.253159 0.127164 -0.708898
H3    H     H_    0.506637 0.176890 0.071295 0.392029
O10   O     O_3   0.581549 0.268444 0.874765 -0.661902
H4    H     H_    0.639840 0.217327 0.930730 0.384971
N3    N     N_R   0.253491 0.654797 0.189151 0.203312
O11   O     O_R   0.201928 0.742737 0.262078 -0.359340
O12   O     O_R   0.214887 0.529763 0.190625 -0.363670
N4    N     N_R   0.612178 0.799176 0.843769 0.228488
O13   O     O_R   0.640869 0.927002 0.838415 -0.359757
O14   O     O_R   0.700929 0.712071 0.824237 -0.351624
O15   O     O_3   0.233537 0.911200 0.059845 -0.618017
H5    H     H_    0.156723 0.858976 0.075643 0.383415
O16   O     O_3   0.397905 0.979195 0.888807 -0.655636
H6    H     H_    0.423370 0.970859 0.801342 0.356295
O17   O     O_3   0.110891 0.255663 0.552522 -0.596929
H7    H     H_    0.171623 0.271595 0.623717 0.338877
O18   O     O_3   0.887391 0.260917 0.425155 -0.598874
H8    H     H_    0.823713 0.282806 0.358645 0.342116
O19   O     O_3   0.883902 0.752413 0.467966 -0.624797
H9    H     H_    0.827732 0.743449 0.392323 0.347930
O20   O     O_3   0.119120 0.748533 0.560451 -0.622270
H10   H     H_    0.180030 0.732168 0.630882 0.329569
N5    N     N_R   0.713950 0.134364 0.599343 0.253643
O21   O     O_R   0.706789 0.230028 0.682452 -0.281501
O22   O     O_R   0.821243 0.073236 0.589922 -0.250325
N6    N     N_R   0.296019 0.132005 0.383025 0.250517
O23   O     O_R   0.317335 0.218021 0.296403 -0.274489
O24   O     O_R   0.186051 0.074433 0.381462 -0.241253

loop_
_geom_bond_atom_site_label_1
_geom_bond_atom_site_label_2
_geom_bond_distance
_ccdc_geom_bond_type
C13   C14   1.388152 A    
C21   C23   1.413284 A    
C19   C20   1.375567 A    
C22   N2    1.384695 A    
C17   C19   1.414305 A    
C1    C18   1.445817 S    
N3    O12   1.301819 A    
O10   H4    0.991366 S    
C21   N5    1.434840 S    
Zn1   N1    2.016213 S    
C9    C10   1.388374 A    
O1    C1    1.290965 A    
C21   N2    1.391525 A    
O6    C4    1.290207 A    
O7    Zn2   2.011243 S    
N6    O23   1.297172 A    
O18   H8    0.991721 S    
C18   C20   1.411151 A    
C7    C8    1.403063 A    
C16   C17   1.405057 A    
C5    N3    1.444424 S    
O20   H10   0.991923 S    
O17   H7    0.991745 S    
C20   O20   1.380292 S    
C15   C18   1.407469 A    
O5    C3    1.299964 A    
C14   O10   1.376875 S    
O7    C3    1.280046 A    
N6    O24   1.301959 A    
O19   H9    0.991890 S    
O2    C2    1.286481 A    
O3    Zn2   1.991625 S    
O8    C4    1.297296 A    
C6    C9    1.418654 A    
C13   O9    1.383531 S    
C6    C8    1.419316 A    
C23   H1    1.081049 S    
C16   O18   1.378301 S    
C19   O19   1.379175 S    
C8    O16   1.379875 S    
C24   H2    1.073101 S    
C11   C13   1.406215 A    
N3    O11   1.299298 A    
O4    Zn2   1.990016 S    
N5    O21   1.294452 A    
C12   C14   1.410501 A    
C3    C11   1.441587 S    
O1    Zn1   1.990493 S    
C6    N4    1.450300 S    
Zn2   N2    2.016115 S    
C24   N1    1.352835 A    
O6    Zn1   2.011128 S    
C4    C12   1.454381 S    
O5    Zn1   1.999177 S    
C9    C12   1.419823 A    
C10   C11   1.403704 A    
C22   N6    1.435051 S    
O4    C2    1.299154 A    
O15   H5    0.989562 S    
O8    Zn2   1.999276 S    
C7    O15   1.378675 S    
O9    H3    0.991261 S    
C5    C7    1.421345 A    
O2    Zn1   1.992104 S    
N4    O13   1.301518 A    
C2    C17   1.446292 S    
C15   C16   1.374025 A    
N4    O14   1.302116 A    
N5    O22   1.302236 A    
C23   N1    1.349038 A    
O16   H6    0.991515 S    
C15   O17   1.377477 S    
C5    C10   1.419592 A    
O3    C1    1.294794 A    
C22   C24   1.413869 A    
