data_mof_unit_41015.cif
_audit_creation_date              2012-12-11T15:03:11-0500
_audit_creation_method            fapswitch 2.2
_symmetry_space_group_name_H-M    P1
_symmetry_Int_Tables_number       1
_space_group_crystal_system       triclinic
_cell_length_a                    13.25549
_cell_length_b                    13.331863
_cell_length_c                    26.787978
_cell_angle_alpha                 96.829062
_cell_angle_beta                  96.995353
_cell_angle_gamma                 61.012159
_cell_volume                      4100.30668502

loop_
_atom_site_label
_atom_site_type_symbol
_atom_type_description
_atom_site_fract_x
_atom_site_fract_y
_atom_site_fract_z
_atom_type_partial_charge
C1    C     C_R   0.378997 0.722103 0.434744 0.545125
C2    C     C_3   0.839002 0.306585 0.194356 0.038811
C3    C     C_3   0.843288 0.403906 0.265390 -0.069633
C4    C     C_R   0.397501 0.375865 0.416475 0.539777
C5    C     C_3   0.802287 0.333743 0.290777 -0.001764
C6    C     C_3   0.751974 0.417149 0.221455 0.302354
C7    C     C_3   0.708207 0.350397 0.247604 -0.109274
C8    C     C_1   0.858757 0.300235 0.141871 -0.055947
C9    C     C_1   0.785404 0.350004 0.344222 -0.059005
C10   C     C_3   0.376771 0.877011 0.268928 0.296325
C11   C     C_3   0.450414 0.782373 0.230059 -0.102684
C12   C     C_1   0.352868 0.369509 0.264188 -0.014002
C13   C     C_1   0.309115 0.881197 0.099884 -0.025304
C14   C     C_1   0.363872 0.762788 0.386656 -0.017186
C15   C     C_3   0.268179 0.917051 0.232035 -0.069898
C16   C     C_R   0.722606 0.400041 0.436420 0.544075
C17   C     C_3   0.341128 0.820435 0.193541 -0.005383
C18   C     C_3   0.237637 0.833178 0.252923 -0.009463
C19   C     C_3   0.344882 0.796200 0.290204 0.043443
C20   C     C_3   0.309480 0.736770 0.213808 -0.125809
C21   C     C_3   0.418284 0.699045 0.251800 -0.142513
C22   C     C_1   0.329327 0.846817 0.141261 -0.070705
C23   C     C_1   0.363340 0.369539 0.317358 -0.057951
C24   C     C_1   0.354123 0.782368 0.343533 -0.050171
C25   C     C_3   0.364611 0.217468 0.714281 0.299928
C26   C     C_3   0.406415 0.262643 0.763556 -0.100649
C27   C     C_1   0.265751 0.266980 0.875063 -0.008581
C28   C     C_R   0.381212 0.724682 0.575451 0.542888
C29   C     C_1   0.357802 0.356548 0.601134 -0.007095
C30   C     C_3   0.246337 0.254924 0.734044 -0.103273
C31   C     C_3   0.287106 0.302740 0.782998 -0.009080
C32   C     C_3   0.198601 0.373556 0.711942 -0.140763
C33   C     C_3   0.317423 0.333557 0.691988 0.060980
C34   C     C_1   0.375206 0.368896 0.362724 -0.022250
C35   C     C_3   0.238459 0.421109 0.761944 -0.116667
C36   C     C_3   0.357370 0.380543 0.741331 -0.010755
C37   C     C_1   0.273782 0.284656 0.833426 -0.061021
C38   C     C_1   0.335350 0.344906 0.641182 -0.021916
C39   C     C_1   0.889031 0.294308 0.864707 -0.011292
C40   C     C_R   0.394786 0.375589 0.557515 0.542971
C41   C     C_1   0.861606 0.306065 0.820342 -0.042632
C42   C     C_1   0.839080 0.319977 0.768031 0.000977
C43   C     C_1   0.822274 0.333434 0.723487 -0.002162
C44   C     C_1   0.799515 0.352622 0.671631 -0.049760
C45   C     C_3   0.889271 0.220889 0.264418 -0.115092
C46   C     C_1   0.771910 0.373257 0.627956 -0.015065
C47   C     C_1   0.293000 0.894018 0.863086 -0.015568
C48   C     C_1   0.311563 0.866803 0.819305 -0.048436
C49   C     C_1   0.327681 0.843718 0.767303 -0.010588
C50   C     C_1   0.339305 0.825771 0.722694 -0.015826
C51   C     C_1   0.352713 0.801621 0.670503 -0.054820
C52   C     C_R   0.723982 0.403891 0.577659 0.540923
C53   C     C_1   0.365170 0.773111 0.626359 -0.017365
C54   C     C_R   0.939834 0.279016 0.055540 0.538101
C55   C     C_R   0.289206 0.272823 0.072746 0.549110
C56   C     C_3   0.796636 0.237355 0.219903 -0.152888
C57   C     C_R   0.271191 0.936811 0.053790 0.543418
C58   C     C_R   0.936939 0.279308 0.915931 0.531307
C59   C     C_R   0.258210 0.242159 0.924011 0.558006
C60   C     C_R   0.262848 0.940933 0.913336 0.534919
C61   C     C_1   0.313253 0.314121 0.122366 -0.024691
C62   C     C_1   0.329141 0.341216 0.166019 -0.056021
C63   C     C_1   0.343314 0.361900 0.218713 -0.014797
C64   C     C_R   0.113708 0.867059 0.260042 0.026955
C65   C     C_R   0.033880 0.892769 0.217644 -0.099810
C66   C     C_R   0.918025 0.925767 0.222827 -0.114859
C67   C     C_1   0.887060 0.294370 0.100569 -0.027067
C68   C     C_R   0.880460 0.934551 0.270423 -0.104758
C69   C     C_R   0.958905 0.909881 0.312852 -0.114768
C70   C     C_R   0.075068 0.876208 0.307796 -0.091013
C71   C     C_3   0.462494 0.020138 0.715255 -0.008433
C72   C     C_3   0.546532 0.909914 0.687373 -0.352325
C73   C     C_R   0.422020 0.448948 0.751634 0.032405
C74   C     C_R   0.444491 0.481332 0.801899 -0.095307
C75   C     C_R   0.508001 0.540734 0.813189 -0.104044
C76   C     C_R   0.549902 0.568226 0.774437 -0.090766
C77   C     C_R   0.527658 0.537015 0.724361 -0.099371
C78   C     C_1   0.764261 0.368985 0.387577 -0.010866
C79   C     C_R   0.464059 0.477725 0.712901 -0.079003
C80   C     C_3   0.604083 0.510228 0.160193 -0.012920
C81   C     C_3   0.591003 0.579698 0.116458 -0.360702
C82   C     C_R   0.057724 0.253223 0.239953 0.021436
C83   C     C_R   0.118664 0.246799 0.287213 -0.104631
C84   C     C_R   0.238375 0.202846 0.290739 -0.058009
C85   C     C_R   0.298531 0.164393 0.247139 -0.050898
C86   C     C_R   0.238816 0.172076 0.199962 -0.124868
C87   C     C_R   0.118919 0.216891 0.196244 -0.102624
C88   C     C_3   0.523015 0.900683 0.316102 -0.021913
C89   C     C_3   0.930328 0.290857 0.238364 -0.006148
C90   C     C_3   0.546564 0.981084 0.355037 -0.368856
Cr1   Cr    Cr6+3 0.585520 0.589730 0.508860 1.026218
Cr2   Cr    Cr6+3 0.329140 0.580910 0.495080 1.031271
Cr3   Cr    Cr6+3 0.585350 0.329380 0.496090 1.031720
Cr4   Cr    Cr6+3 0.077110 0.074680 0.982320 1.024769
Cr5   Cr    Cr6+3 0.079190 0.334150 0.996330 1.030290
Cr6   Cr    Cr6+3 0.334370 0.081620 0.994860 1.018868
H1    H     H_    0.777689 0.169321 0.200627 0.115177
H2    H     H_    0.860815 0.473433 0.284029 0.113604
H3    H     H_    0.537585 0.760982 0.219837 0.135244
H4    H     H_    0.479175 0.609556 0.261546 0.129816
H5    H     H_    0.061450 0.887333 0.180521 0.115209
H6    H     H_    0.857242 0.945091 0.189946 0.107611
H7    H     H_    0.790599 0.960693 0.274445 0.106712
H8    H     H_    0.929622 0.917108 0.349752 0.113147
H9    H     H_    0.133133 0.858688 0.341316 0.124122
H10   H     H_    0.384221 0.013488 0.720743 0.138656
H11   H     H_    0.505746 0.028248 0.752683 0.124755
H12   H     H_    0.282840 0.677724 0.190516 0.118966
H13   H     H_    0.627005 0.913190 0.682771 0.162137
H14   H     H_    0.568780 0.835003 0.709087 0.099263
H15   H     H_    0.506850 0.899052 0.649557 0.171206
H16   H     H_    0.413477 0.459728 0.832427 0.112980
H17   H     H_    0.525030 0.565122 0.852004 0.111913
H18   H     H_    0.599225 0.614055 0.783170 0.112115
H19   H     H_    0.559925 0.558659 0.694336 0.115676
H20   H     H_    0.449561 0.454240 0.673930 0.113484
H21   H     H_    0.518625 0.543719 0.175252 0.138593
H22   H     H_    0.630096 0.420304 0.144947 0.123313
H23   H     H_    0.202537 0.005485 0.224095 0.130980
H24   H     H_    0.674314 0.542374 0.098681 0.162823
H25   H     H_    0.523648 0.578168 0.087822 0.101976
H26   H     H_    0.565509 0.670141 0.130001 0.164288
H27   H     H_    0.073660 0.273597 0.321449 0.108218
H28   H     H_    0.284837 0.196618 0.327354 0.132693
H29   H     H_    0.391640 0.128519 0.249903 0.134765
H30   H     H_    0.285794 0.140439 0.166294 0.121711
H31   H     H_    0.077072 0.217333 0.159351 0.123867
H32   H     H_    0.576746 0.882289 0.283987 0.125902
H33   H     H_    0.548755 0.819414 0.333864 0.144339
H34   H     H_    0.491246 0.216619 0.785163 0.106994
H35   H     H_    0.494372 0.001154 0.387810 0.167224
H36   H     H_    0.639687 0.939580 0.368239 0.102918
H37   H     H_    0.523637 0.062343 0.338157 0.149863
H38   H     H_    0.185909 0.505098 0.782486 0.124303
H39   H     H_    0.113903 0.419734 0.690290 0.121328
H40   H     H_    0.201229 0.202652 0.731900 0.109461
H41   H     H_    0.946216 0.139634 0.282906 0.137946
H42   H     H_    0.616347 0.376376 0.251990 0.103012
O1    O     O_R   0.700650 0.499560 0.456090 -0.506706
O2    O     O_R   0.362310 0.174000 0.055490 -0.506740
O3    O     O_R   0.326800 0.983030 0.039600 -0.496547
O4    O     O_R   0.479220 0.682850 0.457510 -0.493593
O5    O     O_R   0.165220 0.960770 0.926060 -0.501147
O6    O     O_R   0.978660 0.179890 0.932950 -0.494424
O7    O     O_R   0.960490 0.356500 0.937600 -0.513898
O8    O     O_R   0.182720 0.328380 0.950570 -0.490606
O9    O     O_R   0.356860 0.175610 0.946640 -0.505629
O10   O     O_R   0.321740 0.984530 0.938700 -0.512367
O11   O     O_3   0.163560 0.163490 0.991170 -0.272538
O12   O     O_R   0.338920 0.475010 0.540740 -0.498966
O13   O     O_R   0.304230 0.696360 0.445090 -0.511056
O14   O     O_R   0.337790 0.472640 0.439840 -0.491561
O15   O     O_R   0.493310 0.300190 0.435520 -0.512039
O16   O     O_R   0.681220 0.340950 0.451270 -0.496197
O17   O     O_R   0.701870 0.502110 0.564940 -0.509057
O18   O     O_R   0.480360 0.685220 0.558410 -0.499085
O19   O     O_R   0.305450 0.698920 0.553940 -0.502189
O20   O     O_3   0.432436 0.113784 0.686418 -0.548447
O21   O     O_3   0.682415 0.521717 0.198445 -0.569841
O22   O     O_3   0.404689 0.955001 0.299588 -0.572975
O23   O     O_R   0.494530 0.302750 0.544370 -0.498214
O24   O     O_R   0.682350 0.343320 0.552170 -0.490722
O25   O     O_3   0.500010 0.500010 0.500010 -0.254881
O26   O     O_R   0.170670 0.959150 0.034900 -0.504177
O27   O     O_R   0.983710 0.178390 0.033850 -0.494825
O28   O     O_R   0.965940 0.354890 0.046440 -0.503440
O29   O     O_R   0.187770 0.326880 0.051460 -0.484113

loop_
_geom_bond_atom_site_label_1
_geom_bond_atom_site_label_2
_ccdc_geom_bond_type
C15   C18   S    
C66   C68   A    
C71   H11   S    
C86   H30   S    
C16   O16   A    
C41   C42   S    
C66   H6    S    
C85   H29   S    
C35   C36   S    
Cr5   O7    S    
C68   H7    S    
C65   H5    S    
C43   C44   S    
C3    C6    S    
C17   C20   S    
C87   H31   S    
C6    O21   S    
C58   O7    A    
C39   C41   T    
C85   C86   A    
C52   O17   A    
Cr1   O17   S    
C12   C23   S    
C82   C89   S    
Cr4   O5    S    
C88   H33   S    
Cr3   O16   S    
C19   C21   S    
C10   C15   S    
C60   O5    A    
C74   H16   S    
C30   C31   S    
C13   C57   S    
Cr3   O25   S    
C82   C87   A    
C46   C52   S    
C33   C36   S    
C35   H38   S    
C11   H3    S    
C18   C19   S    
C73   C74   A    
C14   C24   T    
Cr6   O9    S    
C1    O4    A    
C47   C60   S    
C72   H13   S    
C47   C48   T    
C45   C56   S    
C68   C69   A    
C29   C38   T    
Cr2   O14   S    
C76   H18   S    
C75   H17   S    
C64   C70   A    
C45   C89   S    
C16   C78   S    
C26   H34   S    
Cr1   O4    S    
C90   H36   S    
C4    O15   A    
Cr6   O3    S    
C72   H15   S    
C26   C31   S    
C79   H20   S    
Cr1   O25   S    
C2    C6    S    
Cr5   O8    S    
C7    C56   S    
C54   O28   A    
C4    O14   A    
Cr4   O27   S    
C44   C46   T    
C10   O22   S    
C80   H22   S    
C77   C79   A    
Cr6   O10   S    
C72   H14   S    
C74   C75   A    
C32   C35   S    
C76   C77   A    
C36   C73   S    
C5    C7    S    
C90   H37   S    
C86   C87   A    
C80   O21   S    
C54   C67   S    
C25   C26   S    
C39   C58   S    
C5    C45   S    
C11   C21   S    
C55   O2    A    
C31   C37   S    
C81   H25   S    
Cr2   O19   S    
Cr4   O11   S    
C2    C89   S    
C75   C76   A    
C5    C9    S    
C62   C63   S    
C32   H39   S    
C83   C84   A    
C81   H24   S    
Cr3   O23   S    
C10   C19   S    
C23   C34   T    
Cr2   O13   S    
C45   H41   S    
C50   C51   S    
C73   C79   A    
C40   O12   A    
C84   C85   A    
Cr5   O11   S    
C90   H35   S    
Cr2   O25   S    
C26   C36   S    
C48   C49   S    
C88   C90   S    
C49   C50   T    
C30   H40   S    
C82   C83   A    
Cr2   O12   S    
Cr1   O1    S    
C16   O1    A    
C42   C43   T    
C54   O27   A    
Cr5   O28   S    
Cr4   O26   S    
C55   O29   A    
C69   H8    S    
C25   C30   S    
C12   C63   T    
C71   O20   S    
C80   H21   S    
C11   C17   S    
C21   H4    S    
C2    C8    S    
C17   C22   S    
C80   C81   S    
C3    C5    S    
C70   H9    S    
Cr5   O29   S    
Cr6   O2    S    
C7    H42   S    
C28   C53   S    
C15   C17   S    
C6    C7    S    
C84   H28   S    
C33   C38   S    
C57   O3    A    
C81   H26   S    
C3    C89   S    
Cr4   O6    S    
C64   C65   A    
Cr3   O15   S    
C19   C24   S    
C40   O23   A    
C88   H32   S    
C2    C56   S    
C32   C33   S    
C30   C32   S    
C3    H2    S    
C18   C64   S    
C57   O26   A    
C56   H1    S    
Cr3   O24   S    
C27   C37   T    
Cr6   O11   S    
C55   C61   S    
C31   C35   S    
C28   O19   A    
C15   H23   S    
C13   C22   T    
C1    O13   A    
C18   C20   S    
C9    C78   T    
C88   O22   S    
C4    C34   S    
C61   C62   T    
C69   C70   A    
C10   C11   S    
C51   C53   T    
C59   O8    A    
C58   O6    A    
C71   C72   S    
Cr1   O18   S    
C20   C21   S    
C8    C67   T    
C65   C66   A    
C71   H10   S    
C52   O24   A    
C25   O20   S    
C28   O18   A    
C27   C59   S    
C1    C14   S    
C60   O10   A    
C29   C40   S    
C77   H19   S    
C83   H27   S    
C25   C33   S    
C20   H12   S    
C59   O9    A    
