data_mof_unit_21288.cif
_audit_creation_date              2013-03-05T15:48:16-0500
_audit_creation_method            fapswitch 2.2
_symmetry_space_group_name_H-M    P1
_symmetry_Int_Tables_number       1
_space_group_crystal_system       triclinic
_cell_length_a                    15.704558
_cell_length_b                    15.701039
_cell_length_c                    34.579893
_cell_angle_alpha                 90.380093
_cell_angle_beta                  90.357104
_cell_angle_gamma                 120.130601
_cell_volume                      7373.9338184

loop_
_atom_site_label
_atom_site_type_symbol
_atom_site_description
_atom_site_fract_x
_atom_site_fract_y
_atom_site_fract_z
_atom_type_partial_charge
O1    O     O_R   0.498680 0.159540 0.541860 -0.493483
O2    O     O_R   0.840460 0.339140 0.541860 -0.481823
O3    O     O_R   0.660860 0.501320 0.541860 -0.474314
O4    O     O_R   0.159540 0.498680 0.041860 -0.487341
O5    O     O_R   0.339140 0.840460 0.041860 -0.484398
O6    O     O_R   0.501320 0.660860 0.041860 -0.478862
O7    O     O_R   0.532760 0.358060 0.540030 -0.478805
O8    O     O_R   0.641940 0.174700 0.540030 -0.461296
O9    O     O_R   0.825300 0.467240 0.540030 -0.463964
O10   O     O_R   0.358060 0.532760 0.040030 -0.463953
O11   O     O_R   0.174700 0.641940 0.040030 -0.457866
O12   O     O_R   0.467240 0.825300 0.040030 -0.459158
C1    C     C_R   0.578833 0.441989 0.554879 0.601271
C2    C     C_R   0.558823 0.137086 0.555017 0.595590
C3    C     C_R   0.863347 0.422059 0.555057 0.576778
C4    C     C_R   0.441885 0.578569 0.054968 0.593144
C5    C     C_R   0.136877 0.558647 0.054948 0.596042
C6    C     C_R   0.421835 0.862947 0.055255 0.572239
O13   O     O_R   0.498590 0.161190 0.456930 -0.429315
O14   O     O_R   0.838810 0.337400 0.456930 -0.477124
O15   O     O_R   0.662600 0.501410 0.456930 -0.466197
O16   O     O_R   0.161190 0.498590 0.956930 -0.432450
O17   O     O_R   0.337400 0.838810 0.956930 -0.477743
O18   O     O_R   0.501410 0.662600 0.956930 -0.467944
O19   O     O_R   0.532680 0.359580 0.461300 -0.512921
O20   O     O_R   0.640420 0.173100 0.461300 -0.454813
O21   O     O_R   0.826900 0.467320 0.461300 -0.500904
O22   O     O_R   0.359580 0.532680 0.961300 -0.514753
O23   O     O_R   0.173100 0.640420 0.961300 -0.456073
O24   O     O_R   0.467320 0.826900 0.961300 -0.505866
C7    C     C_R   0.576932 0.442199 0.445855 0.579890
C8    C     C_R   0.579824 0.185661 0.440161 0.539907
C9    C     C_R   0.864715 0.422301 0.445728 0.570548
C10   C     C_R   0.441776 0.577000 0.945717 0.579632
C11   C     C_R   0.185806 0.579866 0.940195 0.538146
C12   C     C_R   0.422296 0.864562 0.945697 0.566646
Cr1   Cr    Cr6+3 0.522350 0.263930 0.500020 1.146250
Cr2   Cr    Cr6+3 0.736070 0.258420 0.500020 1.167047
Cr3   Cr    Cr6+3 0.741580 0.477650 0.500020 1.155633
Cr4   Cr    Cr6+3 0.263930 0.522350 0.000020 1.157075
Cr5   Cr    Cr6+3 0.258420 0.736070 0.000020 1.164231
Cr6   Cr    Cr6+3 0.477650 0.741580 0.000020 1.148643
O25   O     O_3   0.666667 0.333333 0.499990 -0.345453
O26   O     O_3   0.333333 0.666667 0.999990 -0.343316
N1    N     N_R   0.077651 0.622800 0.760750 -0.163152
N2    N     N_R   0.540396 0.442008 0.778102 -0.127368
N3    N     N_R   0.536161 0.094036 0.777770 -0.131028
N4    N     N_R   0.620829 0.077490 0.259856 -0.166372
N5    N     N_R   0.467274 0.564769 0.277859 -0.120447
N6    N     N_R   0.083746 0.521166 0.275802 -0.120854
N7    N     N_R   0.050844 0.609553 0.723599 -0.174600
N8    N     N_R   0.548667 0.432802 0.740292 -0.196008
N9    N     N_R   0.545360 0.110745 0.739979 -0.192395
N10   N     N_R   0.607676 0.052965 0.222459 -0.168943
N11   N     N_R   0.460533 0.573407 0.239908 -0.171110
N12   N     N_R   0.097954 0.528497 0.237841 -0.146942
C13   C     C_R   0.926037 0.460953 0.590050 -0.051633
C14   C     C_R   0.553155 0.459150 0.593679 -0.034956
C15   C     C_R   0.542072 0.090265 0.593228 -0.041443
C16   C     C_R   0.460964 0.926575 0.090122 -0.055153
C17   C     C_R   0.460175 0.549828 0.093249 -0.042027
C18   C     C_R   0.086971 0.539832 0.092572 -0.044089
C19   C     C_R   0.932525 0.393798 0.614497 -0.145952
C20   C     C_R   0.630747 0.505999 0.620386 -0.147356
C21   C     C_R   0.473967 0.096207 0.617403 -0.145929
C22   C     C_R   0.394426 0.936820 0.113655 -0.151378
C23   C     C_R   0.530581 0.624623 0.117242 -0.143728
C24   C     C_R   0.087207 0.467303 0.115912 -0.142281
C25   C     C_R   0.980556 0.423485 0.650203 0.091878
C26   C     C_R   0.613122 0.501818 0.659787 0.086135
C27   C     C_R   0.474949 0.082489 0.657068 0.085565
C28   C     C_R   0.424828 0.990580 0.148202 0.076409
C29   C     C_R   0.530603 0.612218 0.157026 0.079766
C30   C     C_R   0.065969 0.462040 0.155101 0.080783
C31   C     C_R   0.027728 0.523822 0.661352 0.010838
C32   C     C_R   0.515463 0.455894 0.673012 -0.007007
C33   C     C_R   0.541540 0.056820 0.673038 0.006338
C34   C     C_R   0.524583 0.035981 0.159969 0.013869
C35   C     C_R   0.462750 0.521213 0.173217 0.011082
C36   C     C_R   0.043179 0.530321 0.171640 0.008957
C37   C     C_R   0.024981 0.593381 0.636363 0.167305
C38   C     C_R   0.435858 0.415039 0.646129 0.151305
C39   C     C_R   0.604661 0.041471 0.648638 0.159750
C40   C     C_R   0.593703 0.030007 0.135714 0.175978
C41   C     C_R   0.396959 0.441852 0.149061 0.168382
C42   C     C_R   0.034175 0.598513 0.147947 0.172011
C43   C     C_R   0.973108 0.561604 0.600836 0.175904
C44   C     C_R   0.454858 0.414535 0.606255 0.175871
C45   C     C_R   0.605227 0.058598 0.608547 0.175955
C46   C     C_R   0.561578 0.974331 0.100990 0.175956
C47   C     C_R   0.395771 0.456159 0.108851 0.178448
C48   C     C_R   0.055598 0.602956 0.108157 0.178807
N13   N     N_R   0.124835 0.513541 0.715078 -0.111010
N14   N     N_R   0.438091 0.488292 0.728043 -0.120684
N15   N     N_R   0.528451 0.955885 0.728944 -0.127417
N16   N     N_R   0.514833 0.130587 0.215108 -0.160016
N17   N     N_R   0.474141 0.433448 0.229389 -0.142119
N18   N     N_R   0.948920 0.525775 0.228691 -0.151968
N19   N     N_R   0.151209 0.526375 0.752193 -0.143526
N20   N     N_R   0.429383 0.497031 0.765847 -0.184465
N21   N     N_R   0.519447 0.939223 0.766760 -0.193050
N22   N     N_R   0.527469 0.154657 0.252471 -0.154891
N23   N     N_R   0.480848 0.424801 0.267324 -0.193079
N24   N     N_R   0.934747 0.518464 0.266679 -0.201830
C49   C     C_R   0.126499 0.579664 0.775807 0.356372
C50   C     C_R   0.481488 0.475451 0.791433 0.376281
C51   C     C_R   0.521628 0.007367 0.791753 0.371003
C52   C     C_R   0.579225 0.127070 0.275608 0.365675
C53   C     C_R   0.478685 0.490922 0.292192 0.375029
C54   C     C_R   0.001251 0.514717 0.290847 0.362243
C55   C     C_R   0.072412 0.553152 0.700281 0.382156
C56   C     C_R   0.498470 0.456687 0.714633 0.391635
C57   C     C_R   0.540574 0.041615 0.714908 0.405033
C58   C     C_R   0.552903 0.077548 0.199534 0.405691
C59   C     C_R   0.464744 0.508444 0.215071 0.410374
C60   C     C_R   0.030433 0.530074 0.213643 0.381277
C61   C     C_R   0.104758 0.487182 0.836693 0.204900
C62   C     C_R   0.561191 0.544076 0.856237 0.205101
C63   C     C_R   0.443093 0.008443 0.855006 0.200203
C64   C     C_R   0.486484 0.101702 0.336783 0.200950
C65   C     C_R   0.551461 0.568147 0.357146 0.203531
C66   C     C_R   0.003154 0.437117 0.354258 0.197799
C67   C     C_R   0.115024 0.485501 0.877039 0.182048
C68   C     C_R   0.551578 0.567489 0.894912 0.194064
C69   C     C_R   0.421323 0.976388 0.893637 0.187436
C70   C     C_R   0.485255 0.113023 0.377138 0.186716
C71   C     C_R   0.573044 0.556224 0.395757 0.194847
C72   C     C_R   0.973425 0.417727 0.393196 0.186249
C73   C     C_R   0.194139 0.664460 0.879043 -0.161740
C74   C     C_R   0.373313 0.480419 0.886145 -0.151220
C75   C     C_R   0.526071 0.903681 0.888078 -0.154799
C76   C     C_R   0.664284 0.194467 0.378849 -0.160460
C77   C     C_R   0.473221 0.378318 0.387440 -0.150590
C78   C     C_R   0.905701 0.526891 0.388202 -0.152597
C79   C     C_R   0.181931 0.665639 0.839169 -0.134237
C80   C     C_R   0.382815 0.458592 0.848218 -0.128294
C81   C     C_R   0.547190 0.934966 0.850214 -0.139325
C82   C     C_R   0.665246 0.181916 0.338972 -0.137510
C83   C     C_R   0.452000 0.390010 0.349629 -0.125407
C84   C     C_R   0.935251 0.546162 0.350063 -0.135977
C85   C     C_R   0.138974 0.577762 0.817765 -0.008850
C86   C     C_R   0.475904 0.491765 0.832729 -0.010927
C87   C     C_R   0.504421 0.984931 0.833037 -0.015675
C88   C     C_R   0.577160 0.137485 0.317702 -0.008719
C89   C     C_R   0.493055 0.483942 0.333740 -0.013155
C90   C     C_R   0.981234 0.499760 0.332410 -0.016255
C91   C     C_R   0.161723 0.575268 0.898491 -0.035868
C92   C     C_R   0.456810 0.537937 0.909323 -0.019698
C93   C     C_R   0.460108 0.920047 0.909624 -0.025412
C94   C     C_R   0.575171 0.161300 0.398436 -0.034376
C95   C     C_R   0.537200 0.460213 0.410203 -0.020309
C96   C     C_R   0.920135 0.459485 0.409588 -0.024435
H1    H     H_    0.894957 0.316129 0.606924 0.188821
H2    H     H_    0.706481 0.539960 0.610950 0.182915
H3    H     H_    0.424274 0.119243 0.606072 0.181488
H4    H     H_    0.316941 0.900128 0.105872 0.190034
H5    H     H_    0.581389 0.696336 0.105617 0.199787
H6    H     H_    0.109452 0.417307 0.104236 0.196464
H7    H     H_    0.230597 0.733939 0.894689 0.166502
H8    H     H_    0.300145 0.457568 0.896543 0.184124
H9    H     H_    0.557001 0.860966 0.899648 0.179573
H10   H     H_    0.733871 0.232037 0.394374 0.164949
H11   H     H_    0.444751 0.304256 0.397978 0.193374
H12   H     H_    0.865544 0.560259 0.400113 0.182269
H13   H     H_    0.207901 0.735486 0.824867 0.180700
H14   H     H_    0.317033 0.417755 0.830506 0.201840
H15   H     H_    0.595349 0.917682 0.833864 0.186917
H16   H     H_    0.735100 0.209104 0.324536 0.174980
H17   H     H_    0.405934 0.324874 0.332229 0.202001
H18   H     H_    0.919378 0.595522 0.333865 0.190136
N25   N     N_R   0.972757 0.632358 0.575007 0.124066
O27   O     O_R   0.913299 0.666088 0.580954 -0.258499
O28   O     O_R   0.020662 0.651671 0.542699 -0.244445
N26   N     N_R   0.374832 0.366270 0.578911 0.118085
O29   O     O_R   0.376809 0.408140 0.546314 -0.244392
O30   O     O_R   0.301330 0.278776 0.585870 -0.232843
N27   N     N_R   0.672399 0.047559 0.583873 0.121546
O31   O     O_R   0.640863 0.996548 0.551888 -0.229942
O32   O     O_R   0.765539 0.090016 0.592874 -0.254891
N28   N     N_R   0.632072 0.970100 0.076212 0.120449
O33   O     O_R   0.647618 0.896320 0.078446 -0.289338
O34   O     O_R   0.690631 0.046380 0.055811 -0.228240
N29   N     N_R   0.326550 0.377074 0.084292 0.121025
O35   O     O_R   0.356206 0.354394 0.052853 -0.252271
O36   O     O_R   0.233372 0.329437 0.092642 -0.271774
N30   N     N_R   0.049634 0.674213 0.084206 0.120142
O37   O     O_R   0.000441 0.646935 0.051715 -0.238272
O38   O     O_R   0.094119 0.766622 0.094547 -0.267444
N31   N     N_R   0.070329 0.392258 0.896049 0.122404
O39   O     O_R   0.105584 0.333503 0.891717 -0.253011
O40   O     O_R   0.990675 0.363633 0.915986 -0.210705
N32   N     N_R   0.637498 0.623745 0.918836 0.120549
O41   O     O_R   0.712105 0.704166 0.905990 -0.214400
O42   O     O_R   0.640675 0.595661 0.953874 -0.239564
N33   N     N_R   0.357519 0.998106 0.915923 0.120970
O43   O     O_R   0.272474 0.978915 0.901979 -0.215978
O44   O     O_R   0.384119 0.036657 0.950408 -0.241864
N34   N     N_R   0.392405 0.067745 0.396378 0.128774
O45   O     O_R   0.338848 0.109511 0.396466 -0.258947
O46   O     O_R   0.361869 0.984929 0.414270 -0.207586
N35   N     N_R   0.633901 0.641057 0.419608 0.121654
O47   O     O_R   0.717427 0.711405 0.406888 -0.214847
O48   O     O_R   0.606573 0.647464 0.454441 -0.228338
N36   N     N_R   0.994094 0.353060 0.415394 0.121479
O49   O     O_R   0.971247 0.266559 0.401842 -0.216113
O50   O     O_R   0.035010 0.380223 0.449486 -0.229915
N37   N     N_2   0.975681 0.350523 0.675797 -0.458516
H19   H     H_    0.979135 0.293957 0.661926 0.311161
C97   C     C_3   0.894436 0.313964 0.702469 -0.210412
H20   H     H_    0.823117 0.275223 0.686411 0.141841
H21   H     H_    0.897686 0.375395 0.719791 0.176166
H22   H     H_    0.898612 0.261396 0.722624 0.240677
N38   N     N_2   0.694544 0.546263 0.686038 -0.453632
H23   H     H_    0.743456 0.618814 0.679599 0.305025
C98   C     C_3   0.744254 0.490494 0.691486 -0.251135
H24   H     H_    0.781084 0.488608 0.664398 0.114502
H25   H     H_    0.691093 0.413926 0.700270 0.164613
H26   H     H_    0.801056 0.525782 0.714641 0.203916
N39   N     N_2   0.408161 0.094435 0.680952 -0.463667
H27   H     H_    0.336170 0.053663 0.671346 0.307241
C99   C     C_3   0.436329 0.196099 0.688383 -0.224513
H28   H     H_    0.430264 0.230822 0.661416 0.138568
H29   H     H_    0.513165 0.238394 0.699621 0.165607
H30   H     H_    0.386854 0.199249 0.710406 0.230129
N40   N     N_2   0.352777 0.992163 0.172447 -0.483938
H31   H     H_    0.291503 0.923499 0.175978 0.295508
C100  C     C_3   0.326180 0.064634 0.161603 -0.162908
H32   H     H_    0.287845 0.045278 0.133033 0.183637
H33   H     H_    0.392831 0.138928 0.160145 0.212179
H34   H     H_    0.276080 0.066859 0.183585 0.219700
N41   N     N_2   0.599868 0.691763 0.180721 -0.473331
H35   H     H_    0.671336 0.720077 0.171511 0.301679
C101  C     C_3   0.575924 0.768614 0.186974 -0.223545
H36   H     H_    0.580934 0.807078 0.159475 0.157749
H37   H     H_    0.628686 0.823235 0.208223 0.213310
H38   H     H_    0.500416 0.737331 0.198649 0.183318
N42   N     N_2   0.071484 0.389974 0.178124 -0.484606
H39   H     H_    0.122093 0.371261 0.168530 0.305653
C102  C     C_3   0.977187 0.304057 0.185982 -0.174179
H40   H     H_    0.942946 0.263022 0.158655 0.212241
H41   H     H_    0.927080 0.325432 0.199975 0.190145
H42   H     H_    0.987757 0.254901 0.205919 0.210324
N43   N     N_R   0.077968 0.696460 0.646281 0.113218
O51   O     O_R   0.034038 0.747988 0.645581 -0.218503
O52   O     O_R   0.169977 0.738688 0.657014 -0.262162
N44   N     N_R   0.336108 0.373397 0.659084 0.120106
O53   O     O_R   0.277782 0.400103 0.643352 -0.202132
O54   O     O_R   0.302527 0.307290 0.686022 -0.293888
N45   N     N_R   0.669509 0.010572 0.664478 0.116303
O55   O     O_R   0.671530 0.935286 0.649593 -0.193529
O56   O     O_R   0.728219 0.058757 0.693287 -0.307246
N46   N     N_R   0.696578 0.081490 0.146019 0.106471
O57   O     O_R   0.748146 0.037752 0.143622 -0.252693
O58   O     O_R   0.739210 0.172778 0.157766 -0.328217
N47   N     N_R   0.329753 0.347676 0.165293 0.109542
O59   O     O_R   0.321830 0.267578 0.150517 -0.277488
O60   O     O_R   0.274084 0.341325 0.194131 -0.292685
N48   N     N_R   0.006575 0.665381 0.164321 0.115562
O61   O     O_R   0.933405 0.671408 0.149547 -0.216716
O62   O     O_R   0.057368 0.723732 0.192847 -0.276865
N49   N     N_R   0.052890 0.396132 0.815423 0.119555
O63   O     O_R   0.970342 0.372486 0.797822 -0.295896
O64   O     O_R   0.091457 0.340145 0.811376 -0.232225
N50   N     N_R   0.657099 0.576237 0.840739 0.118703
O65   O     O_R   0.716988 0.553952 0.858082 -0.203373
O66   O     O_R   0.686798 0.632255 0.810470 -0.254342
N51   N     N_R   0.399801 0.061076 0.837929 0.118615
O67   O     O_R   0.341526 0.024492 0.807971 -0.258929
O68   O     O_R   0.412850 0.142063 0.853934 -0.215152
N52   N     N_R   0.395208 0.048598 0.315610 0.115469
O69   O     O_R   0.330910 0.077650 0.316658 -0.227245
O70   O     O_R   0.377097 0.972293 0.294489 -0.252208
N53   N     N_R   0.592504 0.665187 0.341541 0.118450
O71   O     O_R   0.574110 0.729269 0.357653 -0.201744
O72   O     O_R   0.655359 0.692387 0.313472 -0.257843
N54   N     N_R   0.051343 0.389717 0.336747 0.121328
O73   O     O_R   0.132920 0.401363 0.351567 -0.209191
O74   O     O_R   0.009601 0.328482 0.307933 -0.278396

loop_
_geom_bond_atom_site_label_1
_geom_bond_atom_site_label_2
_geom_bond_distance
_ccdc_geom_bond_type
N21   C51   1.357746 A    
C22   H4    1.084036 S    
N25   O27   1.300819 A    
N47   O60   1.301285 A    
O20   C8    1.288615 A    
N33   O44   1.301264 A    
N16   N22   1.329115 A    
C40   N46   1.438213 S    
C76   C94   1.404746 A    
N35   O47   1.301221 A    
C24   C30   1.390677 A    
N48   O62   1.301253 A    
C102  H40   1.111301 S    
C77   C95   1.400765 A    
C81   H15   1.083827 S    
N29   O35   1.301282 A    
C41   C47   1.411455 A    
N27   O31   1.301265 A    
C27   N39   1.422566 S    
C35   C59   1.464735 S    
N11   C59   1.356163 A    
N38   H23   1.031635 S    
O21   C9    1.250062 A    
N4    N10   1.331715 A    
O16   C11   1.276764 A    
O15   C7    1.246654 A    
N45   O55   1.301157 A    
C75   H9    1.083510 S    
Cr6   O26   1.960563 S    
C74   H8    1.082300 S    
C64   C88   1.411477 A    
N40   C100  1.445926 S    
C17   C47   1.414558 A    
C65   C71   1.412065 A    
C99   H30   1.109758 S    
C47   N29   1.436697 S    
C98   H25   1.111267 S    
C78   C84   1.384989 A    
N49   O63   1.301100 A    
C48   N30   1.436323 S    
C12   C93   1.473718 S    
C83   C89   1.397571 A    
N1    N7    1.331431 A    
C82   C88   1.397479 A    
C76   C82   1.392914 A    
N43   O51   1.300594 A    
C20   H2    1.084360 S    
O9    Cr3   1.966122 S    
C97   H22   1.110266 S    
C63   C87   1.415398 A    
C82   H16   1.083684 S    
C15   C45   1.415481 A    
N31   O40   1.300981 A    
O2    Cr2   2.060912 S    
N26   O29   1.301354 A    
C42   N48   1.436227 S    
C36   C42   1.414151 A    
O13   Cr1   2.078106 S    
C71   C95   1.414364 A    
C73   C79   1.392442 A    
C38   C44   1.413376 A    
C10   C92   1.467864 S    
C72   C96   1.415415 A    
C22   C28   1.393729 A    
C19   C25   1.392302 A    
O21   Cr3   1.962669 S    
N50   O65   1.301076 A    
N27   O32   1.301331 A    
C18   C48   1.414914 A    
C3    C13   1.475857 S    
C80   C86   1.394413 A    
N22   C52   1.355843 A    
N34   O45   1.300463 A    
C23   C29   1.390740 A    
C45   N27   1.436546 S    
C67   N31   1.433525 S    
O6    C4    1.244346 A    
N6    N12   1.328955 A    
C101  H36   1.111761 S    
N13   N19   1.328737 A    
Cr4   O26   1.960345 S    
O3    C1    1.240139 A    
C37   C43   1.411822 A    
O1    Cr1   2.084323 S    
N3    N9    1.329048 A    
O19   Cr1   1.964498 S    
C70   N34   1.432457 S    
C68   N32   1.437062 S    
C66   C90   1.415347 A    
C81   C87   1.396306 A    
C78   C96   1.402677 A    
C30   C36   1.408610 A    
N42   H39   1.031739 S    
C39   N45   1.437066 S    
C28   C34   1.412455 A    
C66   C72   1.412159 A    
N35   O48   1.301313 A    
C73   H7    1.082511 S    
N16   C58   1.356058 A    
N36   O50   1.301272 A    
C34   C58   1.478105 S    
C83   H17   1.083934 S    
O8    Cr2   1.981449 S    
N6    C54   1.355256 A    
C33   C57   1.467906 S    
O13   C8    1.277295 A    
C77   H11   1.081939 S    
N13   C55   1.356252 A    
C84   H18   1.083746 S    
N1    C49   1.356324 A    
C65   N53   1.434372 S    
N9    C57   1.356517 A    
N40   H31   1.031932 S    
C44   N26   1.437831 S    
C46   N28   1.431448 S    
N38   C98   1.448544 S    
C14   C20   1.398532 A    
C39   C45   1.413154 A    
N44   O54   1.300991 A    
C41   N47   1.437725 S    
N45   O56   1.301217 A    
C38   N44   1.437545 S    
C79   C85   1.397296 A    
O12   Cr6   1.965513 S    
N37   H19   1.031923 S    
C36   C60   1.467182 S    
O1    C2    1.246790 A    
C23   H5    1.083570 S    
C64   N52   1.436990 S    
C19   H1    1.084128 S    
C97   H20   1.112031 S    
C98   H26   1.110338 S    
C84   C90   1.397382 A    
N39   H27   1.031615 S    
N49   O64   1.301196 A    
O16   Cr4   2.078726 S    
C31   C37   1.414456 A    
Cr3   O25   1.960136 S    
O5    C6    1.247316 A    
N12   C60   1.356754 A    
N2    N8    1.328797 A    
N43   O52   1.301340 A    
N5    N11   1.329232 A    
C74   C92   1.402088 A    
C33   C39   1.414289 A    
O18   C10   1.248469 A    
Cr2   O25   1.964320 S    
C13   C43   1.413831 A    
O7    Cr1   1.962827 S    
N32   O42   1.301299 A    
Cr1   O25   1.960797 S    
C61   C85   1.410433 A    
C98   H24   1.111926 S    
O22   Cr4   1.964389 S    
C72   N36   1.436547 S    
C99   H28   1.110706 S    
C75   C81   1.384189 A    
C97   H21   1.110964 S    
C66   N54   1.434722 S    
C5    C18   1.476338 S    
N39   C99   1.447034 S    
C29   N41   1.423325 S    
O14   Cr2   2.099307 S    
C101  H38   1.110976 S    
C17   C23   1.400732 A    
N18   C60   1.355023 A    
C100  H32   1.111654 S    
O15   Cr3   2.084884 S    
C69   N33   1.436446 S    
N14   N20   1.328573 A    
C32   C56   1.466517 S    
C43   N25   1.432165 S    
C7    C95   1.470209 S    
C79   H13   1.083648 S    
C21   C27   1.391021 A    
C8    C94   1.482148 S    
C102  H41   1.110729 S    
C62   C68   1.413558 A    
C63   N51   1.435066 S    
N36   O49   1.301219 A    
O2    C3    1.246078 A    
C101  H37   1.110245 S    
N17   N23   1.328634 A    
C64   C70   1.407067 A    
C69   C93   1.415059 A    
N7    C55   1.357992 A    
O14   C9    1.247765 A    
C63   C69   1.413011 A    
C6    C16   1.479126 S    
C100  H33   1.111083 S    
C52   C88   1.466080 S    
N54   O74   1.301277 A    
C77   C83   1.383320 A    
C20   C26   1.387427 A    
C28   N40   1.422539 S    
N42   C102  1.446002 S    
C26   C32   1.408595 A    
Cr5   O26   1.964342 S    
C65   C89   1.415431 A    
C75   C93   1.403072 A    
N17   C59   1.354527 A    
C4    C17   1.473694 S    
O4    C5    1.245309 A    
C25   C31   1.412796 A    
N30   O38   1.301318 A    
N47   O59   1.300667 A    
C42   C48   1.412353 A    
N50   O66   1.301226 A    
C27   C33   1.407114 A    
N51   O68   1.301086 A    
N28   O33   1.300934 A    
N46   O58   1.301194 A    
C40   C46   1.412888 A    
O5    Cr5   2.060690 S    
N44   O53   1.301256 A    
O11   C5    1.249852 A    
C50   C86   1.460063 S    
O8    C2    1.248917 A    
C68   C92   1.413388 A    
O23   Cr5   1.942744 S    
C26   N38   1.423841 S    
C31   C55   1.473868 S    
O19   C7    1.248886 A    
C74   C80   1.381136 A    
C13   C19   1.398374 A    
C67   C91   1.419950 A    
C62   C86   1.415111 A    
C9    C96   1.474188 S    
C14   C44   1.410530 A    
N10   C58   1.358760 A    
N51   O67   1.301231 A    
C1    C14   1.465082 S    
C53   C89   1.466302 S    
C16   C46   1.414057 A    
N20   C50   1.356651 A    
N25   O28   1.300775 A    
C29   C35   1.407158 A    
O23   C11   1.288197 A    
N3    C51   1.354967 A    
O17   Cr5   2.099300 S    
O24   C12   1.248999 A    
N23   C53   1.357343 A    
O4    Cr4   2.084246 S    
O20   Cr2   1.942840 S    
N32   O41   1.301217 A    
C37   N43   1.437503 S    
C30   N42   1.425167 S    
N29   O36   1.301314 A    
N48   O61   1.301115 A    
C61   C67   1.405393 A    
N5    C53   1.355451 A    
C61   N49   1.434462 S    
C24   H6    1.083567 S    
C99   H29   1.111000 S    
O10   C4    1.246272 A    
C15   C21   1.400619 A    
N28   O34   1.300518 A    
N24   C54   1.358000 A    
C70   C94   1.419851 A    
C76   H10   1.082474 S    
C71   N35   1.437135 S    
N4    C52   1.356102 A    
C25   N37   1.423994 S    
C80   H14   1.084161 S    
N15   C57   1.355070 A    
C32   C38   1.418131 A    
N2    C50   1.354213 A    
N14   C56   1.354710 A    
N53   O72   1.301199 A    
C35   C41   1.414522 A    
C78   H12   1.083481 S    
O11   Cr5   1.981444 S    
C102  H42   1.110306 S    
N52   O70   1.301302 A    
C18   C24   1.401647 A    
O22   C10   1.246080 A    
O9    C3    1.247733 A    
N31   O39   1.300769 A    
N19   C49   1.355834 A    
N26   O30   1.301299 A    
C73   C91   1.404838 A    
O18   Cr6   2.084273 S    
N41   C101  1.448175 S    
C16   C22   1.399165 A    
N33   O43   1.301207 A    
C34   C40   1.415319 A    
O7    C1    1.246140 A    
C100  H34   1.110288 S    
C62   N50   1.435593 S    
N54   O73   1.301063 A    
C21   H3    1.083890 S    
O17   C12   1.248714 A    
O6    Cr6   2.080472 S    
O12   C6    1.248500 A    
N41   H35   1.031598 S    
N37   C97   1.447232 S    
N8    C56   1.357157 A    
N52   O69   1.300640 A    
O24   Cr6   1.962878 S    
O10   Cr4   1.963444 S    
N34   O46   1.300735 A    
C49   C85   1.465349 S    
C2    C15   1.476013 S    
N30   O37   1.301235 A    
C54   C90   1.468224 S    
C51   C87   1.466639 S    
N18   N24   1.329780 A    
O3    Cr3   2.080176 S    
N15   N21   1.329718 A    
N46   O57   1.301062 A    
C11   C91   1.480678 S    
N53   O71   1.301002 A    
