data_mof_unit_25395.cif
_audit_creation_date              2012-10-26T19:45:35-0400
_audit_creation_method            fapswitch 2.2
_symmetry_space_group_name_H-M    P1
_symmetry_Int_Tables_number       1
_space_group_crystal_system       triclinic
_cell_length_a                    10.908155
_cell_length_b                    9.509456
_cell_length_c                    10.744903
_cell_angle_alpha                 90.230396
_cell_angle_beta                  90.556933
_cell_angle_gamma                 90.343226
_cell_volume                      1114.49352348

loop_
_atom_site_label
_atom_site_type_symbol
_atom_type_description
_atom_site_fract_x
_atom_site_fract_y
_atom_site_fract_z
_atom_type_partial_charge
C1    C     C_R   0.262353 0.499579 0.500071 0.560797
C2    C     C_R   0.449356 0.924905 0.403093 0.034103
C3    C     C_R   0.549653 0.926424 0.597443 0.026356
C4    C     C_R   0.550303 0.075145 0.597155 0.028033
C5    C     C_R   0.500975 0.500039 0.259624 0.530569
C6    C     C_R   0.737866 0.500311 0.500276 0.542536
C7    C     C_R   0.501607 0.500374 0.740262 0.532193
C8    C     C_3   0.502485 0.654020 0.071685 -0.229419
C9    C     C_3   0.386868 0.424140 0.069616 -0.239636
C10   C     C_3   0.503127 0.654107 0.929176 -0.234078
C11   C     C_3   0.387280 0.423646 0.926371 -0.226435
C12   C     C_3   0.618391 0.425653 0.928879 -0.235190
C13   C     C_3   0.618069 0.425388 0.072791 -0.229937
C14   C     C_3   0.502208 0.500769 0.121565 0.052141
C15   C     C_3   0.502649 0.501084 0.878081 0.052283
C16   C     C_3   0.149062 0.290188 0.274993 -0.003086
C17   C     C_3   0.145801 0.150008 0.206155 -0.368673
C18   C     C_3   0.155333 0.709738 0.727337 0.013072
C19   C     C_3   0.207826 0.845492 0.781613 -0.349988
C20   C     C_1   0.872636 0.267668 0.388918 0.282017
C21   C     C_1   0.878977 0.733982 0.610421 0.278701
C22   C     C_R   0.063278 0.384200 0.449566 0.197992
C23   C     C_R   0.066288 0.613574 0.553763 0.191818
C24   C     C_R   0.935626 0.385004 0.448789 -0.042515
C25   C     C_R   0.938531 0.614805 0.552805 -0.043619
C26   C     C_R   0.872131 0.500371 0.500458 -0.112318
C27   C     C_R   0.128883 0.498828 0.501303 -0.014493
C28   C     C_R   0.449701 0.073676 0.402984 0.042541
Cu1   Cu    Cu3+1 0.500020 0.640660 0.500000 0.960240
Cu2   Cu    Cu3+1 0.500020 0.359340 0.500000 0.962084
H1    H     H_    0.584696 0.712044 0.107217 0.131614
H2    H     H_    0.385375 0.313043 0.892006 0.127015
H3    H     H_    0.702106 0.479222 0.108924 0.112393
H4    H     H_    0.620339 0.314944 0.106623 0.137805
H5    H     H_    0.702522 0.479749 0.895326 0.110720
H6    H     H_    0.620960 0.315319 0.894063 0.121307
H7    H     H_    0.409829 0.129055 0.325092 0.104467
H8    H     H_    0.408093 0.868644 0.325578 0.101908
H9    H     H_    0.242326 0.335635 0.268349 0.145743
H10   H     H_    0.083228 0.361973 0.226993 0.099229
H11   H     H_    0.051222 0.106222 0.206120 0.176757
H12   H     H_    0.384472 0.313639 0.103212 0.111541
H13   H     H_    0.174933 0.165230 0.108358 0.078824
H14   H     H_    0.208104 0.073729 0.251772 0.150442
H15   H     H_    0.224217 0.625261 0.739636 0.125598
H16   H     H_    0.071242 0.682092 0.780296 0.111209
H17   H     H_    0.224726 0.832924 0.883012 0.067997
H18   H     H_    0.295575 0.872228 0.735433 0.164415
H19   H     H_    0.141966 0.932727 0.767366 0.174773
H20   H     H_    0.588891 0.871351 0.675876 0.126202
H21   H     H_    0.591325 0.131438 0.674784 0.110081
H22   H     H_    0.419914 0.710946 0.104687 0.115397
H23   H     H_    0.302858 0.478051 0.102513 0.091377
H24   H     H_    0.421320 0.711339 0.894274 0.117993
H25   H     H_    0.302834 0.475320 0.891082 0.091679
H26   H     H_    0.585829 0.711742 0.896369 0.125290
N1    N     N_R   0.500030 0.852070 0.500030 -0.222933
N2    N     N_R   0.500030 0.147930 0.500030 -0.218850
N3    N     N_1   0.822570 0.174052 0.341072 -0.296757
N4    N     N_1   0.832828 0.829668 0.656995 -0.322117
O1    O     O_R   0.319660 0.618740 0.499990 -0.461443
O2    O     O_3   0.129548 0.729919 0.599665 -0.518434
O3    O     O_R   0.319660 0.381260 0.499990 -0.466913
O4    O     O_R   0.499990 0.618790 0.317690 -0.521389
O5    O     O_R   0.499990 0.381210 0.317690 -0.520458
O6    O     O_R   0.680370 0.618830 0.500010 -0.484477
O7    O     O_R   0.680370 0.381170 0.500010 -0.487643
O8    O     O_R   0.500030 0.618780 0.682310 -0.523900
O9    O     O_R   0.500030 0.381220 0.682310 -0.522776
O10   O     O_3   0.122946 0.267772 0.401979 -0.521770

loop_
_geom_bond_atom_site_label_1
_geom_bond_atom_site_label_2
_ccdc_geom_bond_type
C7    O9    A    
C2    C28   A    
C9    C14   S    
C17   H13   S    
C13   H3    S    
Cu1   Cu2   S    
C28   N2    A    
C12   H6    S    
Cu1   O8    S    
C10   H26   S    
C19   H19   S    
Cu2   O7    S    
C12   C15   S    
C22   C27   A    
C20   C24   S    
C7    O8    A    
C7    C15   S    
C9    H12   S    
C17   H14   S    
C16   O10   S    
C13   H4    S    
Cu1   O1    S    
Cu2   O3    S    
C12   H5    S    
C9    C11   S    
C5    C14   S    
C6    C26   S    
C21   C25   S    
C28   H7    S    
C16   H10   S    
Cu2   N2    S    
C8    C10   S    
C6    O7    A    
C3    H20   S    
C24   C26   A    
C11   H2    S    
C23   C27   A    
C10   C15   S    
C23   C25   A    
C10   H24   S    
C22   C24   A    
Cu1   O4    S    
Cu2   O5    S    
C9    H23   S    
C16   H9    S    
C2    N1    A    
Cu1   O6    S    
C18   H15   S    
C18   H16   S    
C8    H22   S    
C6    O6    A    
Cu2   O9    S    
C11   H25   S    
C12   C13   S    
C21   N4    T    
C5    O5    A    
C18   C19   S    
C19   H17   S    
C4    N2    A    
C1    C27   S    
C2    H8    S    
C19   H18   S    
C1    O3    A    
C8    C14   S    
C4    H21   S    
C17   H11   S    
C25   C26   A    
C13   C14   S    
C8    H1    S    
C11   C15   S    
C20   N3    T    
C22   O10   S    
C23   O2    S    
C18   O2    S    
C3    C4    A    
C5    O4    A    
Cu1   N1    S    
C16   C17   S    
C3    N1    A    
C1    O1    A    
