data_mof_unit_45533.cif
_audit_creation_date              2012-12-10T17:53:23-0500
_audit_creation_method            fapswitch 2.2
_symmetry_space_group_name_H-M    P1
_symmetry_Int_Tables_number       1
_space_group_crystal_system       triclinic
_cell_length_a                    23.378423
_cell_length_b                    10.694228
_cell_length_c                    9.94675
_cell_angle_alpha                 91.309843
_cell_angle_beta                  90.301768
_cell_angle_gamma                 95.32387
_cell_volume                      2475.38555543

loop_
_atom_site_label
_atom_site_type_symbol
_atom_type_description
_atom_site_fract_x
_atom_site_fract_y
_atom_site_fract_z
_atom_type_partial_charge
C1    C     C_R   0.507642 0.263184 0.498949 0.933207
C2    C     C_R   0.126441 0.666799 0.460178 0.551634
C3    C     C_R   0.237176 0.524795 0.617533 -0.202481
C4    C     C_R   0.389625 0.506471 0.500318 0.950294
C5    C     C_R   0.295832 0.511321 0.620964 0.431405
C6    C     C_R   0.328443 0.529019 0.502107 -0.325049
C7    C     C_R   0.302364 0.575032 0.386651 0.392547
C8    C     C_R   0.243327 0.583446 0.384233 -0.195381
C9    C     C_R   0.210620 0.556871 0.498789 0.159078
C10   C     C_R   0.763241 0.541500 0.377592 0.585654
C11   C     C_R   0.703331 0.517739 0.378980 -0.342772
C12   C     C_R   0.962021 0.348894 0.581726 0.549540
C13   C     C_R   0.673304 0.523835 0.500422 -0.100017
C14   C     C_R   0.703260 0.554389 0.620892 -0.228545
C15   C     C_R   0.762650 0.574778 0.620696 -0.211424
C16   C     C_R   0.497875 0.740593 0.502396 0.823679
C17   C     C_R   0.792528 0.566157 0.500115 0.227112
C18   C     C_R   0.561474 0.136129 0.728061 0.556316
C19   C     C_R   0.557896 0.083223 0.854902 -0.365089
C20   C     C_R   0.525216 0.969180 0.873019 0.007678
C21   C     C_R   0.501514 0.901457 0.760325 -0.095426
C22   C     C_R   0.510177 0.947955 0.629161 -0.023871
C23   C     C_R   0.021840 0.348666 0.576454 -0.281475
C24   C     C_R   0.531142 0.073973 0.617789 -0.032422
C25   C     C_R   0.519618 0.133535 0.497113 -0.118062
C26   C     C_R   0.507646 0.063701 0.379175 -0.232600
C27   C     C_R   0.498157 0.935690 0.384341 -0.232145
C28   C     C_R   0.610706 0.504580 0.500256 0.899268
C29   C     C_R   0.498687 0.876150 0.507969 -0.084284
C30   C     C_R   0.438661 0.296309 0.132123 0.468216
C31   C     C_R   0.428820 0.180647 0.062211 -0.171017
C32   C     C_R   0.431179 0.180504 0.923782 -0.386510
C33   C     C_R   0.439271 0.295095 0.856921 0.584299
C34   C     C_R   0.056366 0.453956 0.533038 -0.054972
C35   C     C_R   0.470009 0.400389 0.925202 -0.092429
C36   C     C_R   0.470026 0.400669 0.069698 -0.028626
C37   C     C_R   0.531168 0.589658 0.074245 -0.163868
C38   C     C_R   0.532734 0.588469 0.929894 0.607714
C39   C     C_R   0.886364 0.672555 0.464083 0.581493
C40   C     C_R   0.876733 0.462517 0.543869 0.566291
C41   C     C_R   0.936502 0.457738 0.543598 -0.115580
C42   C     C_R   0.971340 0.564691 0.500810 -0.085726
C43   C     C_R   0.946146 0.672980 0.461449 -0.054831
C44   C     C_3   0.935322 0.136531 0.562023 -0.223412
C45   C     C_R   0.031398 0.563237 0.496726 -0.086536
C46   C     C_3   0.648520 0.215309 0.654474 -0.300433
C47   C     C_2   0.516643 0.921892 0.010099 0.444779
C48   C     C_3   0.349815 0.317770 0.216199 -0.231850
C49   C     C_2   0.404247 0.066417 0.131641 0.417984
C50   C     C_3   0.374922 0.209468 0.685003 -0.201588
C51   C     C_3   0.620458 0.707809 0.915499 -0.375043
C52   C     C_3   0.066464 0.992029 0.436112 -0.218946
C53   C     C_3   0.328117 0.571136 0.830829 -0.179696
C54   C     C_3   0.353240 0.734727 0.282465 -0.187282
C55   C     C_3   0.777000 0.607050 0.160949 -0.274854
C56   C     C_R   0.066456 0.670780 0.456584 -0.114976
C57   C     C_R   0.040875 0.779244 0.417131 0.548725
C58   C     C_R   0.980810 0.778188 0.418153 -0.284103
C59   C     C_R   0.115858 0.452704 0.527029 0.551594
H1    H     H_    0.680442 0.491872 0.286151 0.171842
H2    H     H_    0.417997 0.093697 0.869803 0.211715
H3    H     H_    0.961265 0.859348 0.382765 0.190671
H4    H     H_    0.211713 0.506272 0.706799 0.177517
H5    H     H_    0.222884 0.610196 0.292615 0.186545
H6    H     H_    0.937523 0.151135 0.451468 0.146245
H7    H     H_    0.897363 0.068985 0.580169 0.221769
H8    H     H_    0.973624 0.092945 0.598202 0.131244
H9    H     H_    0.642074 0.188512 0.546407 0.159946
H10   H     H_    0.667730 0.139318 0.709121 0.170781
H11   H     H_    0.680093 0.299021 0.660732 0.215839
H12   H     H_    0.680964 0.559994 0.715535 0.184250
H13   H     H_    0.540870 0.967927 0.093524 0.022205
H14   H     H_    0.329427 0.230116 0.167823 0.140507
H15   H     H_    0.344337 0.398140 0.149802 0.205674
H16   H     H_    0.325744 0.330801 0.310215 0.179434
H17   H     H_    0.401825 0.066051 0.240484 0.088739
H18   H     H_    0.353009 0.239476 0.593622 0.183042
H19   H     H_    0.340813 0.178673 0.757831 0.174973
H20   H     H_    0.400393 0.131321 0.653077 0.122716
H21   H     H_    0.648737 0.753379 0.838084 0.202644
H22   H     H_    0.619266 0.776273 0.000796 0.160368
H23   H     H_    0.785768 0.593456 0.714738 0.158591
H24   H     H_    0.640085 0.621968 0.947121 0.141981
H25   H     H_    0.104135 0.060611 0.418820 0.227321
H26   H     H_    0.063531 0.978354 0.546736 0.142185
H27   H     H_    0.028081 0.033892 0.397639 0.132069
H28   H     H_    0.286418 0.601187 0.866593 0.146462
H29   H     H_    0.354943 0.652107 0.788213 0.151761
H30   H     H_    0.351450 0.539756 0.919557 0.192355
H31   H     H_    0.378033 0.758494 0.376980 0.116148
H32   H     H_    0.316794 0.794136 0.274554 0.177549
H33   H     H_    0.382650 0.756841 0.197512 0.246457
H34   H     H_    0.503595 0.108298 0.283599 0.155530
H35   H     H_    0.772010 0.703592 0.201076 0.175175
H36   H     H_    0.736658 0.566140 0.111270 0.143652
H37   H     H_    0.810599 0.615730 0.082507 0.201993
H38   H     H_    0.579258 0.133402 0.939735 0.159489
H39   H     H_    0.474561 0.816054 0.777801 0.210139
H40   H     H_    0.488998 0.883458 0.291266 0.203763
H41   H     H_    0.555184 0.663689 0.132152 0.155528
H42   H     H_    0.041352 0.266726 0.609833 0.191108
N1    N     N_R   0.853454 0.568284 0.504214 -0.344311
N2    N     N_R   0.149561 0.558805 0.494165 -0.336153
N3    N     N_R   0.499460 0.498800 0.142780 -0.109592
N4    N     N_R   0.499440 0.498720 0.857170 -0.134569
O1    O     O_R   0.500000 0.316780 0.614690 -0.555827
O2    O     O_R   0.583850 0.500050 0.614640 -0.561710
O3    O     O_R   0.583840 0.500030 0.385310 -0.646086
O4    O     O_2   0.861131 0.774997 0.426794 -0.583291
O5    O     O_3   0.928720 0.248404 0.636012 -0.555395
O6    O     O_3   0.596612 0.246015 0.712907 -0.606367
O7    O     O_2   0.481820 0.832597 0.031857 -0.590651
O8    O     O_3   0.408543 0.310376 0.248916 -0.580234
O9    O     O_2   0.384573 0.973007 0.068194 -0.577132
O10   O     O_3   0.411087 0.312956 0.736842 -0.527728
O11   O     O_3   0.565145 0.679785 0.858792 -0.577418
O12   O     O_2   0.841613 0.361990 0.580859 -0.500067
O13   O     O_3   0.074474 0.879879 0.364006 -0.556579
O14   O     O_3   0.319744 0.469771 0.737332 -0.569410
O15   O     O_3   0.333656 0.606181 0.272892 -0.614541
O16   O     O_3   0.794651 0.527227 0.261213 -0.600382
O17   O     O_2   0.140048 0.345934 0.553425 -0.575476
O18   O     O_2   0.161634 0.770275 0.433159 -0.508166
O19   O     O_R   0.500000 0.316750 0.385360 -0.597793
O20   O     O_R   0.416160 0.499970 0.614690 -0.532787
O21   O     O_R   0.416150 0.499950 0.385360 -0.510771
O22   O     O_R   0.500000 0.683250 0.614640 -0.605705
O23   O     O_R   0.500000 0.683220 0.385310 -0.620856
Zn1   Zn    Zn3+2 0.500000 0.500020 0.653130 1.062469
Zn2   Zn    Zn3+2 0.500000 0.499980 0.346870 1.003418

loop_
_geom_bond_atom_site_label_1
_geom_bond_atom_site_label_2
_ccdc_geom_bond_type
C58   H3    S    
O1    Zn1   S    
C55   O16   S    
C22   C29   A    
C54   O15   S    
C27   C29   A    
C14   H12   S    
C44   H7    S    
C35   C36   A    
O2    Zn1   S    
C10   O16   S    
C50   H20   S    
C12   O5    S    
C19   H38   S    
C7    C8    A    
C23   H42   S    
C2    O18   S    
C54   H33   S    
C12   C23   A    
C27   H40   S    
C26   C27   A    
C37   C38   A    
C4    O20   A    
C5    O14   S    
C3    C9    A    
C21   C22   A    
C52   H26   S    
C32   H2    S    
C54   H31   S    
C30   C31   A    
O21   Zn2   S    
C10   C17   A    
C47   O7    D    
C56   C57   A    
C50   O10   S    
C41   C42   A    
C52   H25   S    
C51   H21   S    
C46   H10   S    
C43   C58   A    
C19   C20   A    
C45   C56   A    
C8    C9    A    
C13   C28   S    
C51   H22   S    
O3    Zn2   S    
C1    O1    A    
C59   O17   S    
C40   O12   S    
N3    Zn2   S    
C46   O6    S    
C1    C25   S    
C48   H16   S    
C44   H6    S    
C31   C49   S    
C55   H35   S    
C50   H19   S    
C15   H23   S    
C33   O10   S    
C48   H15   S    
C18   O6    S    
C4    C6    S    
C18   C19   A    
C39   C43   A    
C25   C26   A    
C42   C45   A    
C17   N1    S    
O22   Zn1   S    
C46   H9    S    
C12   C41   A    
C35   N4    A    
C26   H34   S    
C38   O11   S    
C31   C32   A    
C9    N2    S    
C23   C34   A    
C49   H17   S    
O19   Zn2   S    
C53   H28   S    
C34   C45   A    
C24   C25   A    
C16   O23   A    
C8    H5    S    
C55   H36   S    
C40   C41   A    
C53   H30   S    
C34   C59   A    
C18   C24   A    
C42   C43   A    
C11   H1    S    
C50   H18   S    
C51   H24   S    
C39   N1    A    
C15   C17   A    
C48   H14   S    
C55   H37   S    
C3    C5    A    
O23   Zn2   S    
C37   N3    A    
N4    Zn1   S    
C53   O14   S    
C6    C7    A    
C3    H4    S    
C51   O11   S    
C30   C36   A    
C36   N3    A    
C4    O21   A    
C59   N2    A    
C32   C33   A    
C38   N4    A    
C52   H27   S    
C16   C29   S    
C1    O19   A    
C54   H32   S    
C2    C56   A    
C7    O15   S    
C21   H39   S    
C11   C13   A    
C57   C58   A    
C5    C6    A    
C2    N2    A    
C28   O3    A    
C33   C35   A    
C49   O9    D    
C53   H29   S    
C22   C24   A    
C16   O22   A    
C47   H13   S    
C46   H11   S    
C20   C47   S    
C10   C11   A    
C40   N1    A    
O20   Zn1   S    
C39   O4    S    
C20   C21   A    
C14   C15   A    
C48   O8    S    
C44   H8    S    
C28   O2    A    
C13   C14   A    
C37   H41   S    
C44   O5    S    
C57   O13   S    
C30   O8    S    
C52   O13   S    
