data_mof_unit_8125.cif
_audit_creation_date              2012-12-10T18:35:00-0500
_audit_creation_method            fapswitch 2.2
_symmetry_space_group_name_H-M    P1
_symmetry_Int_Tables_number       1
_space_group_crystal_system       triclinic
_cell_length_a                    15.13622
_cell_length_b                    13.783361
_cell_length_c                    10.849444
_cell_angle_alpha                 90.000129
_cell_angle_beta                  90.031413
_cell_angle_gamma                 90.000631
_cell_volume                      2263.49729363

loop_
_atom_site_label
_atom_site_type_symbol
_atom_type_description
_atom_site_fract_x
_atom_site_fract_y
_atom_site_fract_z
_atom_type_partial_charge
C1    C     C_R   0.329699 0.499821 0.495027 0.862483
C2    C     C_R   0.670300 0.499822 0.504973 0.862566
C3    C     C_R   0.232861 0.500091 0.489747 -0.165763
C4    C     C_R   0.767138 0.500095 0.510255 -0.165775
C5    C     C_R   0.183425 0.423374 0.435809 0.420089
C6    C     C_R   0.816570 0.423394 0.564227 0.420078
C7    C     C_R   0.091353 0.426493 0.442137 -0.203633
C8    C     C_R   0.908642 0.426509 0.557901 -0.203648
C9    C     C_R   0.048152 0.505385 0.496107 0.038530
C10   C     C_R   0.951846 0.505387 0.503899 0.038537
C11   C     C_R   0.549458 0.107269 0.413090 -0.113519
C12   C     C_R   0.450544 0.107267 0.586911 -0.113655
C13   C     C_R   0.548455 0.209260 0.414544 0.139783
C14   C     C_R   0.451546 0.209258 0.585457 0.139997
C15   C     C_R   0.500001 0.054890 0.500000 0.183795
C16   C     C_R   0.429537 0.893070 0.446259 0.331471
C17   C     C_R   0.570465 0.893072 0.553737 0.331488
C18   C     C_R   0.431983 0.790737 0.446726 0.045752
C19   C     C_R   0.568018 0.790739 0.553273 0.045715
C20   C     C_R   0.500001 0.945984 0.499999 -0.136764
C21   C     C_R   0.506846 0.500525 0.262066 0.818333
C22   C     C_R   0.493152 0.500525 0.737934 0.818411
C23   C     C_R   0.542400 0.680628 0.113063 -0.282914
C24   C     C_R   0.457589 0.680623 0.886936 -0.282903
C25   C     C_R   0.524658 0.769390 0.055252 0.363579
C26   C     C_R   0.475327 0.769387 0.944747 0.363574
C27   C     C_R   0.486066 0.591798 0.938465 0.034517
C28   C     C_R   0.513927 0.591800 0.061535 0.034517
C29   C     C_R   0.512524 0.502765 0.127484 -0.071873
C30   C     C_R   0.487474 0.502764 0.872516 -0.071889
C31   C     C_R   0.504176 0.415068 0.063411 -0.152419
C32   C     C_R   0.495825 0.415067 0.936589 -0.152442
C33   C     C_R   0.096739 0.582862 0.543664 -0.115796
C34   C     C_R   0.903262 0.582852 0.456309 -0.115791
C35   C     C_R   0.188391 0.579944 0.541212 -0.218394
C36   C     C_R   0.811610 0.579936 0.458759 -0.218431
Cu1   Cu    Cu3+1 0.500000 0.596430 0.500000 0.984799
Cu2   Cu    Cu3+1 0.500000 0.403570 0.500000 1.037578
H1    H     H_    0.504822 0.346029 0.111140 0.168619
H2    H     H_    0.495181 0.346028 0.888859 0.168655
H3    H     H_    0.224639 0.639689 0.581961 0.190814
H4    H     H_    0.775362 0.639669 0.417985 0.190797
H5    H     H_    0.052530 0.367893 0.403455 0.191771
H6    H     H_    0.947462 0.367918 0.596608 0.191787
H7    H     H_    0.588257 0.069576 0.344389 0.177244
H8    H     H_    0.411745 0.069573 0.655609 0.177242
H9    H     H_    0.586885 0.248916 0.347313 0.130786
H10   H     H_    0.413115 0.248913 0.652688 0.130803
N1    N     N_R   0.500000 0.258690 0.500000 -0.186243
N2    N     N_R   0.500000 0.741330 0.500000 -0.230643
O1    O     O_R   0.371460 0.581430 0.500010 -0.602452
O2    O     O_R   0.628540 0.581430 0.499990 -0.602467
O3    O     O_R   0.371470 0.418560 0.500010 -0.527204
O4    O     O_R   0.628530 0.418560 0.499990 -0.527064
O5    O     O_R   0.500000 0.581450 0.319650 -0.586707
O6    O     O_R   0.500000 0.581450 0.680350 -0.586727
O7    O     O_R   0.500010 0.418580 0.319650 -0.586714
O8    O     O_R   0.499990 0.418580 0.680350 -0.586474
S1    S     S_3+6 0.336321 0.951948 0.381550 0.057909
O9    O     O_2   0.364751 0.037291 0.304984 -0.212644
O10   O     O_2   0.284784 0.882685 0.302213 -0.245025
O11   O     O_3   0.271466 0.991331 0.496901 -0.536324
H11   H     H_    0.225425 0.031186 0.456294 0.410431
S2    S     S_3+6 0.663681 0.951954 0.618443 0.057890
O12   O     O_2   0.635248 0.037267 0.695057 -0.212496
O13   O     O_2   0.715245 0.882681 0.697730 -0.245167
O14   O     O_3   0.728511 0.991390 0.503094 -0.536333
H12   H     H_    0.774648 0.031090 0.543735 0.410407
H13   H     H_    0.378762 0.750206 0.404826 0.174607
H14   H     H_    0.621238 0.750208 0.595173 0.174620
H15   H     H_    0.581781 0.681281 0.195985 0.225632
H16   H     H_    0.418209 0.681273 0.804013 0.225632
S3    S     S_3+6 0.567206 0.876598 0.123155 0.059558
O15   O     O_2   0.634831 0.919934 0.037999 -0.198316
O16   O     O_2   0.494468 0.948740 0.144083 -0.196272
O17   O     O_3   0.615671 0.851135 0.258927 -0.583477
H17   H     H_    0.650716 0.909583 0.279524 0.388335
S4    S     S_3+6 0.432774 0.876591 0.876842 0.059571
O18   O     O_2   0.365144 0.919922 0.961997 -0.198282
O19   O     O_2   0.505508 0.948740 0.855917 -0.196293
O20   O     O_3   0.384312 0.851123 0.741069 -0.583459
H18   H     H_    0.349274 0.909574 0.720463 0.388345
H19   H     H_    0.063724 0.644282 0.585611 0.169662
H20   H     H_    0.936279 0.644262 0.414339 0.169656
S5    S     S_3+6 0.232154 0.325149 0.354666 0.040805
O21   O     O_2   0.269684 0.254078 0.445768 -0.280202
O22   O     O_2   0.164215 0.274338 0.276813 -0.244040
O23   O     O_3   0.313177 0.366386 0.262515 -0.528028
H21   H     H_    0.344055 0.307423 0.233035 0.384511
S6    S     S_3+6 0.767834 0.325196 0.645418 0.040771
O24   O     O_2   0.730308 0.254088 0.554356 -0.279854
O25   O     O_2   0.835771 0.274419 0.723310 -0.244292
O26   O     O_3   0.686804 0.366471 0.737529 -0.528157
H22   H     H_    0.656200 0.307499 0.767532 0.384510

loop_
_geom_bond_atom_site_label_1
_geom_bond_atom_site_label_2
_ccdc_geom_bond_type
C4    C36   A    
O26   H22   S    
S3    O15   D    
C36   H4    S    
C19   N2    A    
C24   C27   A    
O20   H18   S    
Cu2   N1    S    
S5    O21   D    
C18   N2    A    
C26   S4    S    
C28   C29   A    
C24   C26   A    
C17   S2    S    
Cu1   O1    S    
S4    O19   D    
C14   N1    A    
C17   C20   A    
C1    O3    A    
C33   C35   A    
Cu2   O8    S    
Cu1   O6    S    
C11   C15   A    
C7    H5    S    
C9    C10   S    
C34   C36   A    
C5    S5    S    
C18   H13   S    
C23   C25   A    
S1    O9    D    
C27   C30   A    
C9    C33   A    
S3    O16   D    
C34   H20   S    
C5    C7    A    
S5    O22   D    
C15   C20   S    
S1    O10   D    
O14   H12   S    
S2    O14   S    
C23   H15   S    
O17   H17   S    
C4    C6    A    
C2    O4    A    
C13   H9    S    
Cu1   O2    S    
S4    O18   D    
C22   O6    A    
C25   C26   A    
C6    S6    S    
C21   C29   S    
C1    C3    S    
C16   S1    S    
S2    O13   D    
C2    C4    S    
C21   O7    A    
Cu1   Cu2   S    
Cu2   O7    S    
C1    O1    A    
S6    O25   D    
C31   C32   A    
Cu2   O4    S    
C12   C15   A    
C3    C35   A    
C16   C20   A    
O11   H11   S    
C10   C34   A    
C16   C18   A    
C23   C28   A    
C33   H19   S    
C2    O2    A    
C13   N1    A    
C12   H8    S    
C12   C14   A    
S3    O17   S    
C11   H7    S    
C24   H16   S    
S6    O26   S    
C21   O5    A    
S5    O23   S    
C7    C9    A    
S1    O11   S    
C22   C30   S    
C8    H6    S    
C3    C5    A    
C22   O8    A    
C6    C8    A    
S2    O12   D    
C29   C31   A    
C30   C32   A    
Cu1   N2    S    
C11   C13   A    
S4    O20   S    
S6    O24   D    
Cu2   O3    S    
C17   C19   A    
C31   H1    S    
C25   S3    S    
C32   H2    S    
C35   H3    S    
Cu1   O5    S    
O23   H21   S    
C8    C10   A    
C27   C28   A    
C14   H10   S    
C19   H14   S    
