data_mof_unit_27663.cif
_audit_creation_date              2013-03-05T16:41:03-0500
_audit_creation_method            fapswitch 2.2
_symmetry_space_group_name_H-M    P1
_symmetry_Int_Tables_number       1
_space_group_crystal_system       triclinic
_cell_length_a                    18.650259
_cell_length_b                    18.673257
_cell_length_c                    18.782653
_cell_angle_alpha                 109.486143
_cell_angle_beta                  109.388895
_cell_angle_gamma                 109.20971
_cell_volume                      5055.78382354

loop_
_atom_site_label
_atom_site_type_symbol
_atom_site_description
_atom_site_fract_x
_atom_site_fract_y
_atom_site_fract_z
_atom_type_partial_charge
O1    O     O_R   0.408360 0.551710 0.460090 -0.610927
O2    O     O_R   0.408400 0.448280 0.356670 -0.628013
C1    C     C_R   0.381939 0.502405 0.380317 0.889081
O3    O     O_R   0.591600 0.643340 0.551710 -0.608867
O4    O     O_R   0.591630 0.539900 0.448290 -0.626225
C2    C     C_R   0.621522 0.620159 0.501412 0.859578
Zn1   Zn    Zn3+2 0.499980 0.569060 0.569060 0.989900
Zn2   Zn    Zn3+2 0.500020 0.430940 0.430940 0.943285
O5    O     O_R   0.591600 0.551720 0.643330 -0.608041
O6    O     O_R   0.591640 0.448290 0.539910 -0.625638
O7    O     O_R   0.408370 0.460100 0.551710 -0.604227
O8    O     O_R   0.408400 0.356660 0.448290 -0.627911
C3    C     C_R   0.618314 0.497931 0.619858 0.864309
C4    C     C_R   0.378294 0.379931 0.498496 0.870895
H1    H     H_    0.795002 0.818348 0.893482 0.126025
C5    C     C_R   0.789686 0.869131 0.805495 -0.145006
H2    H     H_    0.795853 0.929168 0.848472 0.120973
C6    C     C_R   0.781150 0.853595 0.724185 -0.161259
H3    H     H_    0.780190 0.901908 0.704718 0.118561
C7    C     C_R   0.772540 0.775478 0.667772 0.132241
C8    C     C_R   0.774068 0.713986 0.694580 -0.110795
H4    H     H_    0.768667 0.653983 0.652523 0.095297
C9    C     C_R   0.781136 0.729238 0.775348 -0.118149
H5    H     H_    0.779299 0.680557 0.794520 0.129655
C10   C     C_R   0.789284 0.806771 0.830906 -0.115884
C11   C     C_R   0.824764 0.819164 0.576611 -0.260533
H6    H     H_    0.881857 0.875090 0.636454 0.154027
C12   C     C_R   0.813621 0.810034 0.496238 -0.076099
C13   C     C_R   0.737986 0.740138 0.417684 -0.006631
C14   C     C_R   0.677245 0.677251 0.421976 -0.264577
H7    H     H_    0.619322 0.621999 0.362338 0.152895
C15   C     C_R   0.688797 0.686157 0.502344 -0.079874
C16   C     C_R   0.761573 0.758933 0.580924 -0.009842
C17   C     C_R   0.640651 0.723138 0.276753 -0.157078
H8    H     H_    0.594186 0.725630 0.298703 0.125522
C18   C     C_R   0.621903 0.712844 0.194286 -0.139135
H9    H     H_    0.561548 0.707493 0.153195 0.122897
C19   C     C_R   0.681029 0.709481 0.164855 -0.123366
H10   H     H_    0.666313 0.701234 0.100902 0.119095
C20   C     C_R   0.759196 0.716862 0.218048 -0.117671
H11   H     H_    0.804950 0.714230 0.195214 0.140282
C21   C     C_R   0.778367 0.727766 0.300761 -0.105747
H12   H     H_    0.839232 0.734237 0.341597 0.102821
C22   C     C_R   0.719339 0.730949 0.330865 0.130431
H13   H     H_    0.572955 0.886838 0.618077 0.125410
C23   C     C_R   0.434590 0.796309 0.536868 -0.160462
H14   H     H_    0.417456 0.833226 0.579750 0.120816
C24   C     C_R   0.369159 0.717782 0.460493 -0.073417
H15   H     H_    0.301640 0.694128 0.445313 0.125363
C25   C     C_R   0.390960 0.669509 0.404504 0.191500
C26   C     C_R   0.479009 0.700972 0.425982 -0.100118
H16   H     H_    0.497009 0.664491 0.383753 0.093064
C27   C     C_R   0.544282 0.778755 0.503230 -0.111322
H17   H     H_    0.612113 0.801333 0.521051 0.126588
C28   C     C_R   0.522169 0.826598 0.558406 -0.108189
C29   C     C_R   0.255356 0.582297 0.259644 0.266938
C30   C     C_R   0.185938 0.500723 0.187576 -0.199772
C31   C     C_R   0.180236 0.421309 0.181368 -0.041874
C32   C     C_R   0.248034 0.424988 0.244541 -0.259714
H18   H     H_    0.245450 0.364602 0.240032 0.161485
C33   C     C_R   0.317512 0.505021 0.315092 -0.126596
C34   C     C_R   0.321350 0.584628 0.324944 -0.137986
C35   C     C_R   0.060364 0.274412 0.132212 -0.154161
H19   H     H_    0.078277 0.293667 0.199453 0.124893
C36   C     C_R   0.992052 0.190324 0.066751 -0.143236
H20   H     H_    0.957731 0.145363 0.083553 0.130009
C37   C     C_R   0.968358 0.164117 0.979707 -0.122225
H21   H     H_    0.915721 0.098918 0.929092 0.119626
C38   C     C_R   0.012763 0.222063 0.958033 -0.121831
H22   H     H_    0.994569 0.201520 0.890630 0.143614
C39   C     C_R   0.080734 0.306366 0.023346 -0.114994
H23   H     H_    0.114163 0.350807 0.005933 0.105334
C40   C     C_R   0.105239 0.333363 0.110986 0.152494
H24   H     H_    0.186370 0.586974 0.497444 0.125656
C41   C     C_R   0.209641 0.520051 0.568907 -0.146139
H25   H     H_    0.208375 0.562964 0.623426 0.119762
C42   C     C_R   0.223387 0.450941 0.569462 -0.146375
H26   H     H_    0.232842 0.441036 0.624812 0.117044
C43   C     C_R   0.225556 0.395314 0.499103 0.138635
C44   C     C_R   0.212676 0.409083 0.427787 -0.130652
H27   H     H_    0.213061 0.366157 0.372533 0.100851
C45   C     C_R   0.198346 0.477939 0.427265 -0.119278
H28   H     H_    0.187747 0.488047 0.372016 0.139960
C46   C     C_R   0.197237 0.533601 0.497908 -0.110385
C47   C     C_R   0.176798 0.255778 0.499617 -0.255663
H29   H     H_    0.120882 0.260506 0.501387 0.154458
C48   C     C_R   0.186166 0.184083 0.497687 -0.076369
C49   C     C_R   0.258150 0.176462 0.495632 -0.005348
C50   C     C_R   0.319975 0.241803 0.494916 -0.262555
H30   H     H_    0.376009 0.237107 0.493480 0.157278
C51   C     C_R   0.310704 0.313551 0.496890 -0.080845
C52   C     C_R   0.238894 0.321409 0.499339 -0.005649
C53   C     C_R   0.341186 0.112620 0.560724 -0.141982
H31   H     H_    0.386985 0.176665 0.617817 0.123173
C54   C     C_R   0.353777 0.041765 0.556247 -0.151365
H32   H     H_    0.408811 0.051146 0.609659 0.129231
C55   C     C_R   0.295762 0.958974 0.482591 -0.107622
H33   H     H_    0.305871 0.904276 0.478957 0.144917
C56   C     C_R   0.224983 0.946886 0.413377 -0.112213
H34   H     H_    0.180973 0.882942 0.356033 0.166231
C57   C     C_R   0.211495 0.017351 0.417987 -0.145630
H35   H     H_    0.156709 0.007365 0.363784 0.105406
C58   C     C_R   0.269605 0.100716 0.491812 0.138075
H36   H     H_    0.407495 0.492037 0.806470 0.123126
C59   C     C_R   0.545773 0.564673 0.854599 -0.141370
H37   H     H_    0.556837 0.619353 0.909749 0.120169
C60   C     C_R   0.615781 0.565730 0.841870 -0.150183
H38   H     H_    0.680795 0.621601 0.887496 0.116653
C61   C     C_R   0.601723 0.495133 0.770183 0.138871
C62   C     C_R   0.517021 0.423127 0.712049 -0.131194
H39   H     H_    0.505284 0.367722 0.657057 0.103836
C63   C     C_R   0.447305 0.422075 0.725428 -0.123325
H40   H     H_    0.382232 0.366249 0.681079 0.140446
C64   C     C_R   0.461587 0.492922 0.796384 -0.109023
C65   C     C_R   0.741970 0.495701 0.819845 -0.262068
H41   H     H_    0.737975 0.495996 0.876279 0.154150
C66   C     C_R   0.813251 0.496182 0.810346 -0.081120
C67   C     C_R   0.820363 0.496903 0.738244 -0.008785
C68   C     C_R   0.754129 0.495981 0.675652 -0.262434
H42   H     H_    0.758491 0.496555 0.619623 0.154352
C69   C     C_R   0.682911 0.495543 0.685203 -0.084315
C70   C     C_R   0.676306 0.495898 0.757821 -0.007836
C71   C     C_R   0.950144 0.567845 0.723992 -0.148554
H43   H     H_    0.940634 0.623924 0.734660 0.117063
C72   C     C_R   0.018547 0.566817 0.709093 -0.140715
H44   H     H_    0.061507 0.621805 0.708371 0.118305
C73   C     C_R   0.031154 0.494607 0.694572 -0.128975
H45   H     H_    0.083870 0.493696 0.682637 0.117407
C74   C     C_R   0.975435 0.423364 0.695017 -0.133210
H46   H     H_    0.984828 0.367203 0.682815 0.143808
C75   C     C_R   0.907388 0.424426 0.710649 -0.124476
H47   H     H_    0.864213 0.368649 0.710261 0.102855
C76   C     C_R   0.894404 0.496788 0.725300 0.139024
O9    O     O_R   0.051730 0.908360 0.460060 -0.617343
O10   O     O_R   0.948280 0.908380 0.356650 -0.622945
C77   C     C_R   0.998669 0.877968 0.380325 0.872637
O11   O     O_R   0.960110 0.908350 0.551690 -0.619575
O12   O     O_R   0.856660 0.908370 0.448270 -0.608942
C78   C     C_R   0.879817 0.877705 0.497732 0.861385
Zn3   Zn    Zn3+2 0.069070 0.999960 0.569030 0.953946
Zn4   Zn    Zn3+2 0.930930 0.999990 0.430930 0.969707
O13   O     O_R   0.051720 0.091580 0.643310 -0.628858
O14   O     O_R   0.948270 0.091600 0.539890 -0.610154
O15   O     O_R   0.143340 0.091590 0.551680 -0.615049
O16   O     O_R   0.039890 0.091610 0.448270 -0.625741
C79   C     C_R   0.998149 0.118569 0.619737 0.867985
C80   C     C_R   0.120169 0.118914 0.498828 0.873652
O17   O     O_R   0.051730 0.460050 0.908360 -0.623282
O18   O     O_R   0.948290 0.356630 0.908390 -0.623754
C81   C     C_R   0.002144 0.380103 0.881574 0.860759
O19   O     O_R   0.143340 0.551690 0.091580 -0.578351
O20   O     O_R   0.039900 0.448270 0.091610 -0.621621
C82   C     C_R   0.120015 0.499722 0.120014 0.935539
Zn5   Zn    Zn3+2 0.069070 0.569030 0.999960 1.020839
Zn6   Zn    Zn3+2 0.930930 0.430930 0.000000 0.957085
O21   O     O_R   0.051710 0.643320 0.091560 -0.578165
O22   O     O_R   0.948270 0.539900 0.091590 -0.641848
O23   O     O_R   0.960100 0.551680 0.908340 -0.614074
O24   O     O_R   0.856660 0.448270 0.908370 -0.629562
C83   C     C_R   0.998465 0.620142 0.118541 0.915203
C84   C     C_R   0.879871 0.498090 0.877980 0.856779
H48   H     H_    0.027185 0.690641 0.593379 0.117187
C85   C     C_R   0.095034 0.763690 0.546538 -0.162282
H49   H     H_    0.156467 0.802412 0.607155 0.117216
C86   C     C_R   0.088699 0.776613 0.476002 -0.069826
H50   H     H_    0.145813 0.825022 0.482518 0.132448
C87   C     C_R   0.008831 0.727435 0.397541 0.114613
C88   C     C_R   0.936882 0.661994 0.389222 -0.199280
H51   H     H_    0.875851 0.620887 0.328070 0.132129
C89   C     C_R   0.943307 0.649492 0.459989 -0.112472
H52   H     H_    0.887260 0.599857 0.453625 0.134539
C90   C     C_R   0.022225 0.700565 0.538727 -0.107423
C91   C     C_R   0.998742 0.675925 0.254261 -0.192665
H53   H     H_    0.000286 0.619655 0.258073 0.164543
C92   C     C_R   0.997145 0.686099 0.183551 -0.063614
C93   C     C_R   0.997941 0.759904 0.178305 -0.013473
C94   C     C_R   0.997023 0.821145 0.243931 -0.281338
H54   H     H_    0.995959 0.877635 0.240340 0.157342
C95   C     C_R   0.999523 0.811532 0.315137 -0.093524
C96   C     C_R   0.002521 0.739457 0.322035 -0.026911
C97   C     C_R   0.067275 0.854089 0.125603 -0.135581
H55   H     H_    0.116919 0.903164 0.192369 0.127113
C98   C     C_R   0.070955 0.869112 0.058460 -0.142267
H56   H     H_    0.122674 0.929463 0.073516 0.132604
C99   C     C_R   0.008387 0.805952 0.971924 -0.120430
H57   H     H_    0.011624 0.817189 0.919862 0.128828
C100  C     C_R   0.941693 0.728123 0.952564 -0.116231
H58   H     H_    0.894240 0.678969 0.885650 0.130627
C101  C     C_R   0.936846 0.713310 0.019453 -0.129772
H59   H     H_    0.884103 0.653107 0.003434 0.091911
C102  C     C_R   0.000546 0.775631 0.106563 0.128228
H60   H     H_    0.402704 0.591243 0.066600 0.120007
C103  C     C_R   0.282999 0.546971 0.953728 -0.150519
H61   H     H_    0.305035 0.608926 0.954932 0.120868
C104  C     C_R   0.199463 0.476931 0.889153 -0.093747
H62   H     H_    0.157723 0.485179 0.840241 0.132669
C105  C     C_R   0.169874 0.396819 0.888148 0.112590
C106  C     C_R   0.227073 0.386246 0.949313 -0.199420
H63   H     H_    0.206776 0.323837 0.947277 0.136246
C107  C     C_R   0.310437 0.456490 0.014008 -0.123844
H64   H     H_    0.353656 0.448436 0.061954 0.135615
C108  C     C_R   0.338183 0.536954 0.016523 -0.094384
C109  C     C_R   0.077752 0.254359 0.754426 -0.252311
H65   H     H_    0.137840 0.258123 0.756553 0.157817
C110  C     C_R   0.996891 0.183826 0.685467 -0.077543
C111  C     C_R   0.917841 0.178614 0.679678 -0.005140
C112  C     C_R   0.922229 0.244036 0.746455 -0.277672
H66   H     H_    0.862172 0.240501 0.744143 0.157650
C113  C     C_R   0.003108 0.314858 0.815311 -0.086287
C114  C     C_R   0.082093 0.321845 0.818796 -0.015215
C115  C     C_R   0.771199 0.126627 0.558289 -0.155661
H67   H     H_    0.789092 0.193851 0.575470 0.125846
C116  C     C_R   0.688962 0.059544 0.487835 -0.137823
H68   H     H_    0.643820 0.075090 0.451445 0.137219
C117  C     C_R   0.665273 0.972438 0.463956 -0.106544
H69   H     H_    0.601882 0.920424 0.409004 0.145030
C118  C     C_R   0.723510 0.952443 0.510980 -0.121820
H70   H     H_    0.705370 0.885075 0.491720 0.131708
C119  C     C_R   0.805368 0.019273 0.582224 -0.118615
H71   H     H_    0.849398 0.002790 0.618713 0.094179
C120  C     C_R   0.830417 0.106942 0.605589 0.130908
N1    N     N_R   0.257191 0.662400 0.267897 0.206445
O25   O     O_R   0.325328 0.724796 0.279461 -0.397862
O26   O     O_R   0.192831 0.674954 0.268860 -0.441480

loop_
_geom_bond_atom_site_label_1
_geom_bond_atom_site_label_2
_geom_bond_distance
_ccdc_geom_bond_type
O14   C79   1.276612 A    
C2    C15   1.430672 S    
C48   C49   1.407319 A    
C35   C36   1.398550 A    
C41   H25   1.082744 S    
C53   H31   1.083419 S    
C104  C105  1.404892 A    
Zn6   O22   2.016611 S    
C66   C67   1.407873 A    
O13   C79   1.278569 A    
C27   C28   1.396699 A    
C85   H49   1.082276 S    
C109  H65   1.085803 S    
C53   C58   1.404445 A    
C99   C100  1.396079 A    
C63   C64   1.397664 A    
C55   H33   1.082680 S    
C99   H57   1.082436 S    
C71   H43   1.083521 S    
C91   H53   1.085699 S    
Zn1   O7    2.016306 S    
O11   C78   1.280072 A    
C77   C95   1.432132 S    
C12   C13   1.411409 A    
C11   H6    1.085483 S    
C86   H50   1.082922 S    
C21   C22   1.403258 A    
C71   C76   1.404609 A    
C29   N1    1.438974 S    
C18   H9    1.081867 S    
C85   C86   1.398424 A    
O17   C81   1.272197 A    
Zn5   O23   2.017258 S    
O1    C1    1.275307 A    
C38   H22   1.081754 S    
C117  C118  1.396110 A    
O9    Zn3   2.019979 S    
C14   H7    1.085501 S    
O7    C4    1.277356 A    
C41   C46   1.398114 A    
C71   C72   1.398469 A    
C53   C54   1.398613 A    
C89   H52   1.082373 S    
C1    C33   1.431159 S    
C65   H41   1.085342 S    
C115  C120  1.406330 A    
C5    C10   1.396897 A    
C3    C69   1.431746 S    
C29   C30   1.411317 A    
C38   C39   1.398542 A    
C17   H8    1.083533 S    
O19   Zn5   2.017205 S    
C101  C102  1.404285 A    
O5    C3    1.277168 A    
C62   H39   1.083089 S    
C105  C114  1.481950 S    
O23   C84   1.277851 A    
C55   C56   1.397228 A    
C67   C68   1.384426 A    
C54   H32   1.082316 S    
C5    H2    1.082323 S    
C65   C66   1.396402 A    
C23   C28   1.397193 A    
C107  H64   1.082360 S    
C60   H38   1.083622 S    
O24   C84   1.277501 A    
C109  C114  1.381222 A    
C106  H63   1.083167 S    
C50   C51   1.396357 A    
Zn5   O21   2.015547 S    
C51   C52   1.408205 A    
Zn4   O16   2.015841 S    
C68   C69   1.395892 A    
C59   C60   1.398480 A    
C24   C25   1.405863 A    
C87   C96   1.481392 S    
C32   H18   1.085738 S    
C57   C58   1.404464 A    
C65   C70   1.384025 A    
C8    H4    1.082575 S    
C91   C92   1.395233 A    
C60   C61   1.404816 A    
C105  C106  1.404644 A    
C12   C78   1.431250 S    
O17   Zn5   2.016825 S    
O15   C80   1.276990 A    
C63   H40   1.081844 S    
O16   C80   1.278306 A    
C47   C52   1.384730 A    
C25   C26   1.404165 A    
C42   C43   1.405131 A    
C19   H10   1.082509 S    
O11   Zn3   2.015752 S    
C23   C24   1.397855 A    
C32   C33   1.390281 A    
C69   C70   1.407718 A    
C47   C48   1.396412 A    
Zn6   O24   2.017332 S    
C26   H16   1.082904 S    
C14   C15   1.394912 A    
C57   H35   1.082853 S    
C88   H51   1.082997 S    
C59   C64   1.397975 A    
O10   C77   1.282810 A    
C17   C22   1.406376 A    
C43   C44   1.405295 A    
C44   C45   1.399113 A    
C97   C98   1.398092 A    
C119  H71   1.082647 S    
C39   C40   1.402839 A    
C111  C112  1.384212 A    
C6    H3    1.083620 S    
C93   C102  1.484070 S    
O9    C77   1.274224 A    
C104  H62   1.082679 S    
C35   C40   1.406856 A    
C91   C96   1.382299 A    
C36   C37   1.397121 A    
C31   C32   1.379762 A    
C97   H55   1.083379 S    
C30   C82   1.433691 S    
C81   C113  1.432240 S    
O6    C3    1.278102 A    
C103  C108  1.397587 A    
C112  H66   1.085328 S    
C26   C27   1.398034 A    
C37   H21   1.082328 S    
C73   C74   1.397588 A    
C98   H56   1.082286 S    
C13   C14   1.384624 A    
C119  C120  1.404328 A    
C98   C99   1.396643 A    
C109  C110  1.394470 A    
C11   C16   1.382888 A    
C115  H67   1.083423 S    
O20   Zn6   2.017257 S    
O21   C83   1.275892 A    
Zn2   O8    2.015320 S    
C103  C104  1.398244 A    
C113  C114  1.412494 A    
C43   C52   1.481787 S    
C49   C50   1.383421 A    
N1    O26   1.301092 A    
C85   C90   1.397820 A    
C41   C42   1.398644 A    
C47   H29   1.085397 S    
C116  H68   1.082300 S    
C67   C76   1.480026 S    
C48   C80   1.430239 S    
C94   H54   1.085357 S    
H36   C64   1.082535 S    
C7    C16   1.482849 S    
C5    C6    1.398039 A    
C93   C94   1.383432 A    
C115  C116  1.398175 A    
O8    C4    1.277525 A    
C45   H28   1.081932 S    
O22   C83   1.278297 A    
C45   C46   1.397715 A    
C8    C9    1.397905 A    
C13   C22   1.485615 S    
C72   H44   1.082391 S    
C25   C34   1.486065 S    
C83   C92   1.430065 S    
C29   C34   1.395681 A    
O3    C2    1.275746 A    
C21   H12   1.077626 S    
C73   H45   1.082577 S    
C87   C88   1.404505 A    
C49   C58   1.480775 S    
C72   C73   1.397745 A    
C74   H46   1.081757 S    
C101  H59   1.082617 S    
Zn1   O5    2.013308 S    
C110  C111  1.409601 A    
C23   H14   1.082358 S    
C20   H11   1.082159 S    
O10   Zn4   2.012284 S    
C56   C57   1.399432 A    
O1    Zn1   2.021168 S    
Zn2   O6    2.021171 S    
O2    Zn2   2.013306 S    
Zn3   O15   2.016077 S    
H24   C46   1.082578 S    
C44   H27   1.083219 S    
C75   C76   1.404155 A    
O12   Zn4   2.015824 S    
O4    Zn2   2.016302 S    
C68   H42   1.085353 S    
C54   C55   1.397556 A    
C27   H17   1.078852 S    
Zn3   O13   2.012412 S    
C95   C96   1.411508 A    
C118  C119  1.398032 A    
C59   H37   1.082580 S    
C11   C12   1.395671 A    
C56   H34   1.081484 S    
C88   C89   1.398325 A    
C66   C84   1.432294 S    
C15   C16   1.409044 A    
Zn4   O14   2.019941 S    
O2    C1    1.279295 A    
C118  H70   1.078381 S    
C116  C117  1.396740 A    
C100  H58   1.078246 S    
C36   H20   1.082341 S    
C92   C93   1.409750 A    
O18   C81   1.283787 A    
C18   C19   1.397378 A    
C19   C20   1.396894 A    
C97   C102  1.406507 A    
C79   C110  1.429677 S    
C30   C31   1.413008 A    
O4    C2    1.278920 A    
C89   C90   1.397532 A    
C24   H15   1.083352 S    
C20   C21   1.398262 A    
C17   C18   1.398558 A    
C94   C95   1.395508 A    
C6    C7    1.406433 A    
O19   C82   1.279995 A    
C117  H69   1.082481 S    
O18   Zn6   2.015760 S    
C33   C34   1.409522 A    
C61   C70   1.480712 S    
C62   C63   1.399128 A    
C4    C51   1.431071 S    
C100  C101  1.397833 A    
H1    C10   1.082412 S    
O12   C78   1.276218 A    
C9    H5    1.078552 S    
C35   H19   1.083426 S    
C39   H23   1.077184 S    
C9    C10   1.396474 A    
H48   C90   1.082482 S    
C7    C8    1.403779 A    
H13   C28   1.082378 S    
O3    Zn1   2.015317 S    
C86   C87   1.404775 A    
C103  H61   1.082282 S    
C112  C113  1.395649 A    
H60   C108  1.081680 S    
C42   H26   1.083577 S    
C106  C107  1.398077 A    
O20   C82   1.274491 A    
C111  C120  1.483631 S    
C37   C38   1.396578 A    
C50   H30   1.085368 S    
C61   C62   1.404701 A    
N1    O25   1.301205 A    
C107  C108  1.397259 A    
C75   H47   1.082780 S    
C31   C40   1.487723 S    
C74   C75   1.399023 A    
