data_mof_unit_13602.cif
_audit_creation_date              2013-03-05T16:11:52-0500
_audit_creation_method            fapswitch 2.2
_symmetry_space_group_name_H-M    P1
_symmetry_Int_Tables_number       1
_space_group_crystal_system       triclinic
_cell_length_a                    10.876564
_cell_length_b                    9.903938
_cell_length_c                    23.434967
_cell_angle_alpha                 90.449519
_cell_angle_beta                  97.831506
_cell_angle_gamma                 91.293964
_cell_volume                      2500.09873401

loop_
_atom_site_label
_atom_site_type_symbol
_atom_site_description
_atom_site_fract_x
_atom_site_fract_y
_atom_site_fract_z
_atom_type_partial_charge
O1    O     O_R   0.317570 0.620260 0.500030 -0.538880
O2    O     O_R   0.317570 0.379740 0.500030 -0.518464
C1    C     C_R   0.259949 0.498431 0.493894 0.839222
O3    O     O_R   0.499840 0.620290 0.417900 -0.550770
O4    O     O_R   0.499840 0.379710 0.417900 -0.563484
C2    C     C_R   0.496786 0.498601 0.391600 0.850644
Cu1   Cu    Cu3+1 0.499860 0.642410 0.500030 1.114046
Cu2   Cu    Cu3+1 0.499860 0.357590 0.500030 1.100337
O5    O     O_R   0.682190 0.620260 0.500010 -0.550214
O6    O     O_R   0.682190 0.379740 0.500010 -0.563638
O7    O     O_R   0.499920 0.620230 0.582140 -0.511340
O8    O     O_R   0.499920 0.379770 0.582140 -0.514765
C3    C     C_R   0.738151 0.501358 0.498090 0.793174
C4    C     C_R   0.495451 0.500946 0.608357 0.879601
C5    C     C_R   0.542013 0.428088 0.878447 0.619394
N1    N     N_R   0.429012 0.448565 0.845957 -0.450312
C6    C     C_R   0.323396 0.457338 0.871569 0.644091
C7    C     C_R   0.329364 0.442596 0.931478 -0.035327
C8    C     C_R   0.446735 0.439196 0.965453 -0.042782
C9    C     C_R   0.555631 0.438382 0.938964 -0.147148
C10   C     C_R   0.221514 0.435060 0.958296 -0.073994
C11   C     C_R   0.230073 0.423545 0.018061 -0.099239
C12   C     C_R   0.346590 0.427137 0.052469 -0.033217
C13   C     C_R   0.454920 0.438203 0.026089 -0.006390
C14   C     C_R   0.571196 0.450251 0.060284 -0.084766
C15   C     C_R   0.679268 0.454553 0.033869 -0.161330
C16   C     C_R   0.673248 0.447423 0.973859 0.347917
C17   C     C_R   0.357677 0.421517 0.112830 0.592261
N2    N     N_R   0.471089 0.443442 0.145948 -0.442344
C18   C     C_R   0.576441 0.461994 0.120316 0.655103
O9    O     O_2   0.640393 0.397203 0.851867 -0.408449
O10   O     O_2   0.213647 0.481793 0.839532 -0.443129
H1    H     H_    0.130306 0.436248 0.933139 0.237862
H2    H     H_    0.145138 0.416136 0.037302 0.221958
O11   O     O_2   0.255667 0.394405 0.138070 -0.480830
O12   O     O_2   0.685846 0.493582 0.152625 -0.476880
H3    H     H_    0.769464 0.465261 0.059783 0.224965
C19   C     C_R   0.564999 0.382036 0.245903 0.410211
C20   C     C_R   0.574985 0.407324 0.305401 -0.327028
H4    H     H_    0.643898 0.355083 0.334390 0.188168
C21   C     C_R   0.490859 0.490508 0.328436 -0.174282
C22   C     C_R   0.393686 0.547574 0.290941 0.356487
C23   C     C_R   0.396261 0.540300 0.231516 -0.187506
C24   C     C_R   0.478285 0.455013 0.208035 0.154150
C25   C     C_R   0.353553 0.400072 0.741185 0.411950
C26   C     C_R   0.369410 0.423980 0.683501 -0.242665
C27   C     C_R   0.469887 0.502673 0.669358 -0.173499
C28   C     C_R   0.538888 0.582270 0.713601 0.343791
C29   C     C_R   0.510704 0.573732 0.769758 -0.166895
H5    H     H_    0.565124 0.633642 0.803433 0.211642
C30   C     C_R   0.427421 0.475287 0.785234 0.138144
C31   C     C_3   0.061528 0.618398 0.455774 -0.290185
C32   C     C_3   0.090945 0.503114 0.553065 -0.430185
H6    H     H_    0.111858 0.713071 0.466860 0.289327
H7    H     H_    0.117305 0.603584 0.572352 0.274168
C33   C     C_3   0.923191 0.632652 0.463635 0.153921
C34   C     C_3   0.953352 0.470003 0.554173 0.191116
H8    H     H_    0.870889 0.408364 0.407016 0.202603
H9    H     H_    0.862397 0.288912 0.461635 0.258282
C35   C     C_3   0.050457 0.370102 0.459341 -0.270303
C36   C     C_3   0.119630 0.496707 0.490284 -0.053529
C37   C     C_3   0.875697 0.503113 0.494225 -0.104651
C38   C     C_3   0.906917 0.386803 0.452723 -0.549219
C39   C     C_3   0.631335 0.084376 0.511240 0.082597
C40   C     C_3   0.630469 0.920953 0.519949 0.039904
H10   H     H_    0.672114 0.097377 0.470340 0.090060
H11   H     H_    0.690109 0.883096 0.489179 0.166439
C41   C     C_3   0.427996 0.081651 0.548291 0.398173
C42   C     C_3   0.410351 0.917417 0.541348 0.400886
C43   C     C_3   0.451888 0.079927 0.441607 0.093816
C44   C     C_3   0.471474 0.918255 0.440926 0.106920
N3    N     N_3   0.500250 0.143650 0.501250 -0.338845
N4    N     N_3   0.500250 0.856350 0.501250 -0.344231
H12   H     H_    0.513696 0.119945 0.411081 0.114699
H13   H     H_    0.557289 0.910028 0.419929 0.083121
H14   H     H_    0.309240 0.371597 0.649528 0.211290
N5    N     N_R   0.647264 0.659042 0.704881 0.193699
O13   O     O_R   0.733359 0.599689 0.681878 -0.202440
O14   O     O_R   0.675404 0.771078 0.733641 -0.201441
H15   H     H_    0.068172 0.603171 0.409242 0.216239
H16   H     H_    0.146431 0.428097 0.579921 0.173374
N6    N     N_R   0.904762 0.764319 0.489517 0.149900
O15   O     O_R   0.883794 0.865657 0.454771 -0.329836
O16   O     O_R   0.952348 0.791282 0.542198 -0.182421
N7    N     N_R   0.908958 0.520552 0.606423 0.162765
O17   O     O_R   0.875733 0.430999 0.642048 -0.203597
O18   O     O_R   0.941997 0.640126 0.626988 -0.172572
H17   H     H_    0.869319 0.634280 0.419561 0.117796
H18   H     H_    0.949144 0.358460 0.558164 0.207767
H19   H     H_    0.081087 0.350256 0.416785 0.257454
H20   H     H_    0.066927 0.281731 0.486777 0.278141
N8    N     N_R   0.727147 0.158387 0.551068 0.215996
O19   O     O_R   0.842891 0.142863 0.544269 -0.305716
O20   O     O_R   0.702909 0.248618 0.588252 -0.211750
N9    N     N_R   0.700887 0.873036 0.574902 0.245650
O21   O     O_R   0.704449 0.745958 0.586496 -0.209749
O22   O     O_R   0.790059 0.944974 0.603707 -0.117326
N10   N     N_R   0.494734 0.116466 0.607695 0.171890
O23   O     O_R   0.597962 0.063008 0.629065 -0.206032
O24   O     O_R   0.440172 0.179951 0.645398 -0.262320
N11   N     N_R   0.423980 0.864276 0.602126 0.146696
O25   O     O_R   0.528008 0.831509 0.630953 -0.244230
O26   O     O_R   0.340059 0.893366 0.634786 -0.194864
N12   N     N_R   0.329507 0.125254 0.412120 0.224000
O27   O     O_R   0.257771 0.046814 0.376645 -0.194297
O28   O     O_R   0.306988 0.252488 0.406516 -0.286911
N13   N     N_R   0.386035 0.842533 0.397409 0.230159
O29   O     O_R   0.303492 0.755505 0.409925 -0.251346
O30   O     O_R   0.401120 0.855310 0.343462 -0.297061
N14   N     N_R   0.301043 0.137160 0.547019 0.146126
O31   O     O_R   0.240769 0.121296 0.590982 -0.214173
O32   O     O_R   0.231186 0.155120 0.499104 -0.298638
N15   N     N_R   0.278852 0.880968 0.517646 0.155621
O33   O     O_R   0.206460 0.819642 0.549475 -0.271420
O34   O     O_R   0.224897 0.924760 0.469000 -0.249873
N16   N     N_R   0.787046 0.461656 0.949635 0.170743
O35   O     O_R   0.802986 0.562983 0.916169 -0.262018
O36   O     O_R   0.882828 0.392468 0.970518 -0.328616
N17   N     N_R   0.638515 0.278103 0.225140 0.166261
O37   O     O_R   0.592861 0.201982 0.181496 -0.300023
O38   O     O_R   0.744983 0.247896 0.254029 -0.284462
N18   N     N_R   0.282672 0.592056 0.311356 0.181134
O39   O     O_R   0.235370 0.520880 0.349771 -0.355861
O40   O     O_R   0.213461 0.680473 0.282365 -0.244381
H21   H     H_    0.327146 0.593021 0.202962 0.218093
N19   N     N_R   0.269456 0.293811 0.753820 0.191212
O41   O     O_R   0.299615 0.214215 0.797138 -0.266378
O42   O     O_R   0.170924 0.263985 0.717483 -0.212690

loop_
_geom_bond_atom_site_label_1
_geom_bond_atom_site_label_2
_geom_bond_distance
_ccdc_geom_bond_type
N19   O41   1.301188 A    
C44   N13   1.471150 S    
C7    C10   1.405095 A    
C21   C22   1.410767 A    
C8    C9    1.410305 A    
N1    C30   1.447356 S    
C23   H21   1.082423 S    
C26   H14   1.080511 S    
C34   C37   1.578279 S    
C20   C21   1.403220 A    
N5    O13   1.292471 A    
Cu1   O7    1.938366 S    
C42   N15   1.497165 S    
C15   C16   1.400079 A    
N11   O25   1.285935 A    
C34   H18   1.109846 S    
C35   C38   1.560425 S    
C17   N2    1.376762 A    
C31   C36   1.554462 S    
C19   C20   1.403814 A    
O7    C4    1.338819 A    
C43   N12   1.494000 S    
C33   H17   1.116324 S    
C10   H1    1.083091 S    
C25   C30   1.414535 A    
C1    C36   1.516680 S    
C5    N1    1.374809 A    
H8    C38   1.113326 S    
C40   N4    1.546914 S    
N16   O35   1.301444 A    
C32   H16   1.111928 S    
C7    C8    1.410719 A    
O5    C3    1.340985 A    
N14   O31   1.303020 A    
C32   C36   1.546152 S    
C3    C37   1.510760 S    
N9    O21   1.289974 A    
C17   O11   1.349402 S    
N16   O36   1.301123 A    
N1    C6    1.370766 A    
C29   C30   1.399233 A    
C2    C21   1.474321 S    
C43   H12   1.115464 S    
C12   C13   1.405792 A    
C42   N4    1.572597 S    
C43   C44   1.620295 S    
N2    C18   1.373818 A    
C41   N3    1.560406 S    
C16   N16   1.434915 S    
N5    O14   1.302240 A    
N11   O26   1.304134 A    
C10   C11   1.396690 A    
N13   O30   1.303597 A    
O3    Cu1   1.935405 S    
N12   O28   1.293403 A    
N12   O27   1.299683 A    
C31   H6    1.086537 S    
C41   N10   1.513142 S    
C32   H7    1.105148 S    
C5    C9    1.408342 A    
C11   H2    1.083096 S    
Cu2   N3    2.119358 S    
N7    O18   1.299414 A    
Cu1   Cu2   2.820839 S    
C13   C14   1.404042 A    
Cu1   N4    2.118718 S    
C20   H4    1.084100 S    
C44   N4    1.540801 S    
C32   C34   1.528526 S    
C41   C42   1.637758 S    
C40   H11   1.102521 S    
C14   C15   1.401121 A    
N7    O17   1.301382 A    
N6    O15   1.301893 A    
C35   C36   1.567977 S    
O1    C1    1.344569 A    
C39   H10   1.116788 S    
C28   N5    1.427227 S    
C23   C24   1.404535 A    
C19   C24   1.418543 A    
C37   C38   1.574255 S    
C27   C28   1.417088 A    
C25   N19   1.437742 S    
Cu2   O8    1.934938 S    
N8    O20   1.299416 A    
C6    C7    1.405507 A    
C41   N14   1.494356 S    
C12   C17   1.404856 A    
C33   N6    1.463241 S    
N17   O38   1.301537 A    
C19   N17   1.439099 S    
O3    C2    1.347013 A    
C28   C29   1.394127 A    
O8    C4    1.348825 A    
C29   H5    1.083816 S    
N6    O16   1.295305 A    
N2    C24   1.449918 S    
C33   C37   1.584980 S    
C22   C23   1.398037 A    
C39   N8    1.477881 S    
N13   O29   1.294502 A    
N18   O40   1.301848 A    
C22   N18   1.434940 S    
N15   O33   1.300311 A    
C35   H20   1.093633 S    
C14   C18   1.404031 A    
Cu1   O5    2.000202 S    
C26   C27   1.405662 A    
N19   O42   1.301528 A    
O1    Cu1   1.989857 S    
H9    C38   1.107951 S    
O2    Cu2   1.999705 S    
O6    C3    1.341082 A    
O4    Cu2   1.938822 S    
N17   O37   1.301401 A    
N9    O22   1.298772 A    
C15   H3    1.083682 S    
C5    O9    1.349083 S    
C4    C27   1.493113 S    
C9    C16   1.421923 A    
C35   H19   1.111146 S    
N10   O24   1.295858 A    
C18   O12   1.349471 S    
C39   C40   1.632915 S    
C8    C13   1.411749 A    
C44   H13   1.117104 S    
O4    C2    1.332304 A    
N8    O19   1.302642 A    
C34   N7    1.464770 S    
O2    C1    1.344115 A    
C39   N3    1.543110 S    
N14   O32   1.283165 A    
C25   C26   1.407107 A    
C40   N9    1.492487 S    
Cu2   O6    1.990356 S    
N10   O23   1.292089 A    
C6    O10   1.348671 S    
C11   C12   1.405909 A    
C43   N3    1.549010 S    
N15   O34   1.291922 A    
N18   O39   1.300715 A    
C31   H15   1.111971 S    
C31   C33   1.550002 S    
C42   N11   1.511766 S    
