data_mof_unit_33601.cif
_audit_creation_date              2012-12-10T18:04:36-0500
_audit_creation_method            fapswitch 2.2
_symmetry_space_group_name_H-M    P1
_symmetry_Int_Tables_number       1
_space_group_crystal_system       triclinic
_cell_length_a                    19.603202
_cell_length_b                    17.723398
_cell_length_c                    12.600409
_cell_angle_alpha                 91.619756
_cell_angle_beta                  97.085185
_cell_angle_gamma                 89.476315
_cell_volume                      4342.59141433

loop_
_atom_site_label
_atom_site_type_symbol
_atom_type_description
_atom_site_fract_x
_atom_site_fract_y
_atom_site_fract_z
_atom_type_partial_charge
C1    C     C_R   0.420467 0.109882 0.453532 0.884279
C2    C     C_R   0.767125 0.766523 0.669837 -0.151623
C3    C     C_3   0.962178 0.236297 0.050754 -0.984301
C4    C     C_3   0.271490 0.018891 0.660548 0.062354
C5    C     C_3   0.218257 0.957288 0.669232 -0.337633
C6    C     C_3   0.145127 0.988398 0.650700 -0.965061
C7    C     C_3   0.771489 0.518899 0.660553 0.062342
C8    C     C_3   0.718259 0.457294 0.669242 -0.337624
C9    C     C_3   0.645128 0.488404 0.650737 -0.965073
C10   C     C_3   0.318159 0.990237 0.078644 0.167177
C11   C     C_3   0.252907 0.038534 0.073801 -0.392098
C12   C     C_3   0.191475 0.991090 0.094208 -0.984337
C13   C     C_R   0.263111 0.743012 0.655262 -0.177666
C14   C     C_3   0.818158 0.490216 0.078637 0.167183
C15   C     C_3   0.752908 0.538515 0.073801 -0.392102
C16   C     C_3   0.691473 0.491069 0.094187 -0.984318
C17   C     C_3   0.766173 0.208637 0.900998 0.078087
C18   C     C_3   0.728754 0.198211 0.998466 -0.283529
C19   C     C_3   0.771504 0.150602 0.081660 -0.860358
C20   C     C_3   0.678256 0.679428 0.826383 0.112510
C21   C     C_3   0.630529 0.680012 0.913807 -0.328627
C22   C     C_3   0.581626 0.612914 0.899616 -0.996422
C23   C     C_3   0.266170 0.708585 0.901007 0.078189
C24   C     C_R   0.267117 0.266516 0.669839 -0.151606
C25   C     C_3   0.228769 0.698221 0.998509 -0.283460
C26   C     C_3   0.271516 0.650626 0.081724 -0.860402
C27   C     C_3   0.178245 0.179410 0.826358 0.112484
C28   C     C_3   0.130499 0.179984 0.913757 -0.328638
C29   C     C_3   0.081612 0.112873 0.899551 -0.996422
C30   C     C_3   0.747448 0.042014 0.498707 0.127351
C31   C     C_3   0.822555 0.061037 0.541762 -0.402643
C32   C     C_3   0.865517 0.990356 0.568325 -0.928759
C33   C     C_3   0.638974 0.783562 0.363714 0.140760
C34   C     C_3   0.678730 0.712787 0.333963 -0.383117
C35   C     C_R   0.326811 0.776936 0.684273 -0.277210
C36   C     C_3   0.631375 0.656042 0.269181 -0.990297
C37   C     C_3   0.247526 0.542108 0.498544 0.127207
C38   C     C_3   0.322677 0.561197 0.541233 -0.402385
C39   C     C_3   0.365744 0.490553 0.567545 -0.928906
C40   C     C_3   0.138967 0.283546 0.363718 0.140704
C41   C     C_3   0.178720 0.212755 0.334020 -0.383133
C42   C     C_3   0.131369 0.156007 0.269233 -0.990240
C43   C     C_R   0.326298 0.226508 0.708038 -0.304893
C44   C     C_R   0.826807 0.276946 0.684278 -0.277183
C45   C     C_R   0.826307 0.726516 0.708036 -0.304867
C46   C     C_R   0.369474 0.790596 0.605355 0.468151
C47   C     C_R   0.374384 0.205423 0.639150 0.448521
C48   C     C_R   0.869479 0.290598 0.605370 0.468175
C49   C     C_R   0.413101 0.895183 0.445617 0.908866
C50   C     C_R   0.874392 0.705429 0.639148 0.448542
C51   C     C_R   0.700182 0.158666 0.528578 0.405817
C52   C     C_R   0.697289 0.827576 0.522922 0.373544
C53   C     C_R   0.200171 0.658688 0.528560 0.405794
C54   C     C_R   0.197282 0.327568 0.522923 0.373567
C55   C     C_R   0.656499 0.189427 0.697011 0.283138
C56   C     C_R   0.657066 0.821013 0.698452 0.279123
C57   C     C_R   0.156511 0.689405 0.697025 0.283080
C58   C     C_R   0.157060 0.321010 0.698453 0.279113
C59   C     C_R   0.366096 0.832458 0.416305 -0.110659
C60   C     C_R   0.920469 0.609882 0.453533 0.884294
C61   C     C_R   0.394352 0.187827 0.445937 -0.117247
C62   C     C_R   0.866109 0.332442 0.416314 -0.110680
C63   C     C_R   0.894357 0.687828 0.445937 -0.117251
C64   C     C_R   0.641994 0.002249 0.126277 0.419788
C65   C     C_R   0.141994 0.502252 0.126278 0.419820
C66   C     C_R   0.379095 0.998739 0.764861 0.615334
C67   C     C_R   0.879095 0.498741 0.764860 0.615331
C68   C     C_R   0.353698 0.004810 0.864386 -0.547432
C69   C     C_R   0.853698 0.504808 0.864386 -0.547453
C70   C     C_R   0.590994 0.898617 0.555775 0.910965
C71   C     C_R   0.913102 0.395180 0.445619 0.908826
C72   C     C_R   0.591494 0.100139 0.558042 0.898532
C73   C     C_R   0.090993 0.398616 0.555775 0.911009
C74   C     C_R   0.091497 0.600134 0.558044 0.898624
C75   C     C_R   0.398958 0.010476 0.960163 0.502140
C76   C     C_R   0.898959 0.510468 0.960163 0.502136
C77   C     C_R   0.471025 0.005299 0.955096 -0.051167
C78   C     C_R   0.971025 0.505293 0.955096 -0.051153
C79   C     C_R   0.493945 0.003869 0.852707 -0.006789
C80   C     C_R   0.993945 0.503867 0.852708 -0.006807
C81   C     C_R   0.521576 0.002893 0.047191 -0.198716
C82   C     C_R   0.746665 0.217224 0.548891 -0.109287
C83   C     C_R   0.021576 0.502889 0.047191 -0.198727
C84   C     C_R   0.592524 0.009296 0.035389 -0.114355
C85   C     C_R   0.092523 0.509300 0.035390 -0.114397
C86   C     C_R   0.612758 0.016715 0.933221 0.446743
C87   C     C_R   0.112757 0.516725 0.933223 0.446806
C88   C     C_R   0.563919 0.008447 0.844167 -0.141122
C89   C     C_R   0.063919 0.508450 0.844168 -0.141099
C90   C     C_R   0.505534 0.985853 0.150133 0.651719
C91   C     C_R   0.005536 0.485848 0.150133 0.651718
C92   C     C_R   0.620065 0.005847 0.227298 -0.201260
C93   C     C_R   0.760220 0.794489 0.564642 -0.109373
C94   C     C_R   0.120064 0.505849 0.227298 -0.201189
C95   C     C_R   0.717569 0.228875 0.730110 0.489148
C96   C     C_R   0.714725 0.778346 0.735006 0.471294
C97   C     C_R   0.217582 0.728855 0.730121 0.489127
C98   C     C_R   0.214716 0.278340 0.735007 0.471313
C99   C     C_R   0.648753 0.150890 0.595619 -0.381350
C100  C     C_R   0.648013 0.846879 0.592169 -0.366948
C101  C     C_R   0.148755 0.650886 0.595619 -0.381308
C102  C     C_R   0.148008 0.346875 0.592169 -0.366912
C103  C     C_R   0.336124 0.826013 0.309748 -0.237059
C104  C     C_R   0.246648 0.717250 0.548884 -0.109348
C105  C     C_R   0.401410 0.228806 0.354603 -0.189656
C106  C     C_R   0.836146 0.325979 0.309754 -0.237042
C107  C     C_R   0.901421 0.728807 0.354606 -0.189630
C108  C     C_R   0.278263 0.782311 0.282295 -0.202177
C109  C     C_R   0.371121 0.299692 0.343037 -0.205232
C110  C     C_R   0.778304 0.282248 0.282296 -0.202187
C111  C     C_R   0.871137 0.799695 0.343040 -0.205229
C112  C     C_R   0.249978 0.743226 0.359726 -0.092066
C113  C     C_R   0.323589 0.323358 0.410997 -0.127667
C114  C     C_R   0.750024 0.243157 0.359726 -0.092031
C115  C     C_R   0.260213 0.294484 0.564645 -0.109395
C116  C     C_R   0.823600 0.823361 0.410994 -0.127743
C117  C     C_R   0.280025 0.747209 0.467355 0.073653
C118  C     C_R   0.313785 0.280789 0.500622 0.083700
C119  C     C_R   0.780055 0.247166 0.467362 0.073769
C120  C     C_R   0.813792 0.780792 0.500618 0.083734
C121  C     C_R   0.340344 0.789393 0.496097 0.031956
C122  C     C_R   0.361330 0.223036 0.529265 0.030408
C123  C     C_R   0.840361 0.289373 0.496108 0.031966
C124  C     C_R   0.861335 0.723038 0.529263 0.030391
C125  C     C_3   0.713738 0.909236 0.073651 0.183000
C126  C     C_R   0.763112 0.243013 0.655262 -0.177759
C127  C     C_3   0.776051 0.869226 0.130001 -0.430152
C128  C     C_3   0.791022 0.794814 0.073165 -0.878295
C129  C     C_3   0.213749 0.409258 0.073605 0.183043
C130  C     C_3   0.275998 0.369189 0.130049 -0.430312
C131  C     C_3   0.290975 0.294785 0.073195 -0.878255
C132  C     C_3   0.479385 0.860648 0.150816 0.073322
C133  C     C_3   0.437910 0.818173 0.057506 -0.373102
C134  C     C_3   0.462184 0.736318 0.050717 -0.984319
C135  C     C_3   0.979396 0.360641 0.150818 0.073320
C136  C     C_3   0.937909 0.318156 0.057532 -0.373114
H1    H     H_    0.299147 0.006312 0.868012 0.164796
H2    H     H_    0.431673 0.207151 0.294016 0.171837
H3    H     H_    0.275028 0.651776 0.863835 0.127392
H4    H     H_    0.218035 0.754533 0.033378 0.199044
H5    H     H_    0.178499 0.670739 0.973737 0.284333
H6    H     H_    0.285138 0.595405 0.046002 0.315804
H7    H     H_    0.241644 0.640396 0.149204 0.280901
H8    H     H_    0.319690 0.680455 0.113052 0.245584
H9    H     H_    0.213733 0.130719 0.838831 0.125482
H10   H     H_    0.146587 0.169946 0.746997 0.117945
H11   H     H_    0.161396 0.177237 0.993448 0.209506
H12   H     H_    0.099849 0.232999 0.911246 0.257660
H13   H     H_    0.853834 0.359658 0.248778 0.175995
H14   H     H_    0.046123 0.117484 0.824129 0.273204
H15   H     H_    0.050708 0.111723 0.967558 0.274539
H16   H     H_    0.110993 0.059122 0.897320 0.278779
H17   H     H_    0.747844 0.996696 0.436329 0.178183
H18   H     H_    0.720557 0.018476 0.563233 0.109869
H19   H     H_    0.846310 0.093295 0.481565 0.245853
H20   H     H_    0.823757 0.096214 0.616275 0.212821
H21   H     H_    0.838653 0.952062 0.617625 0.268446
H22   H     H_    0.915603 0.006626 0.613864 0.269818
H23   H     H_    0.876045 0.960503 0.493576 0.265959
H24   H     H_    0.931688 0.707152 0.294022 0.171832
H25   H     H_    0.612717 0.807545 0.288971 0.149341
H26   H     H_    0.597638 0.768259 0.412517 0.119874
H27   H     H_    0.720086 0.728622 0.286050 0.243645
H28   H     H_    0.702548 0.685459 0.407861 0.215551
H29   H     H_    0.587769 0.641668 0.313309 0.270331
H30   H     H_    0.660754 0.603664 0.255584 0.281002
H31   H     H_    0.611132 0.679414 0.190549 0.265226
H32   H     H_    0.247827 0.496763 0.436186 0.178189
H33   H     H_    0.220787 0.518581 0.563248 0.109777
H34   H     H_    0.346261 0.593497 0.480901 0.245890
H35   H     H_    0.701819 0.214553 0.335754 0.175383
H36   H     H_    0.324007 0.596355 0.615783 0.212850
H37   H     H_    0.339031 0.452203 0.616969 0.268463
H38   H     H_    0.415889 0.506861 0.612863 0.269830
H39   H     H_    0.376142 0.460747 0.492693 0.265918
H40   H     H_    0.112729 0.307516 0.288952 0.149347
H41   H     H_    0.097617 0.268267 0.412507 0.119890
H42   H     H_    0.220093 0.228567 0.286128 0.243653
H43   H     H_    0.202514 0.185437 0.407940 0.215532
H44   H     H_    0.087744 0.141658 0.313334 0.270323
H45   H     H_    0.160743 0.103617 0.255683 0.280993
H46   H     H_    0.797139 0.876307 0.395630 0.172120
H47   H     H_    0.111155 0.179365 0.190578 0.265233
H48   H     H_    0.449419 0.801079 0.712022 0.317004
H49   H     H_    0.438044 0.168275 0.757864 0.324043
H50   H     H_    0.949410 0.301113 0.712055 0.317007
H51   H     H_    0.938052 0.668281 0.757860 0.324032
H52   H     H_    0.201761 0.714644 0.335761 0.175402
H53   H     H_    0.297123 0.376301 0.395632 0.172147
H54   H     H_    0.252456 0.783185 0.202011 0.153221
H55   H     H_    0.382194 0.334509 0.278496 0.157221
H56   H     H_    0.752506 0.283105 0.202006 0.153230
H57   H     H_    0.799147 0.506313 0.868012 0.164805
H58   H     H_    0.882216 0.834514 0.278504 0.157231
H59   H     H_    0.657127 0.005584 0.297961 0.216341
H60   H     H_    0.157125 0.505587 0.297960 0.216311
H61   H     H_    0.562729 0.192880 0.724328 0.382889
H62   H     H_    0.565606 0.813751 0.732547 0.354309
H63   H     H_    0.062747 0.692855 0.724376 0.382884
H64   H     H_    0.065601 0.313749 0.732548 0.354318
H65   H     H_    0.685506 0.036430 0.844434 0.322245
H66   H     H_    0.185501 0.536455 0.844438 0.322237
H67   H     H_    0.720114 0.911818 0.987597 0.222855
H68   H     H_    0.582388 0.006078 0.768516 0.209144
H69   H     H_    0.667652 0.873784 0.080920 0.095343
H70   H     H_    0.821758 0.906358 0.134133 0.238865
H71   H     H_    0.764732 0.857787 0.211775 0.234104
H72   H     H_    0.746401 0.756622 0.070278 0.267912
H73   H     H_    0.836269 0.766479 0.116890 0.258460
H74   H     H_    0.802628 0.805286 0.990851 0.298195
H75   H     H_    0.220216 0.411878 0.987588 0.222823
H76   H     H_    0.167628 0.373822 0.080715 0.095438
H77   H     H_    0.321730 0.406293 0.134295 0.238829
H78   H     H_    0.264607 0.357728 0.211783 0.234163
H79   H     H_    0.082389 0.506081 0.768518 0.209146
H80   H     H_    0.246332 0.256618 0.070211 0.267947
H81   H     H_    0.336184 0.266412 0.116968 0.258472
H82   H     H_    0.302642 0.305272 0.990917 0.298135
H83   H     H_    0.474051 0.831104 0.225799 0.174084
H84   H     H_    0.535071 0.856615 0.139540 0.089891
H85   H     H_    0.382498 0.819390 0.068143 0.212693
H86   H     H_    0.444371 0.845936 0.981456 0.220044
H87   H     H_    0.518278 0.734180 0.045842 0.267594
H88   H     H_    0.435401 0.707573 0.978190 0.262010
H89   H     H_    0.451221 0.705754 0.122426 0.270722
H90   H     H_    0.345355 0.788405 0.767591 0.156962
H91   H     H_    0.974078 0.331103 0.225812 0.174084
H92   H     H_    0.035077 0.356612 0.139515 0.089900
H93   H     H_    0.882500 0.319378 0.068191 0.212675
H94   H     H_    0.944359 0.345911 0.981472 0.220029
H95   H     H_    0.018266 0.234154 0.045820 0.267600
H96   H     H_    0.935364 0.207538 0.978263 0.262002
H97   H     H_    0.951241 0.205749 0.122491 0.270731
H98   H     H_    0.260869 0.043189 0.579798 0.167124
H99   H     H_    0.267093 0.067117 0.717233 0.104779
H100  H     H_    0.224157 0.911904 0.608218 0.241729
H101  H     H_    0.334915 0.210558 0.791056 0.182850
H102  H     H_    0.226890 0.931749 0.749257 0.237423
H103  H     H_    0.137322 0.032482 0.712197 0.259771
H104  H     H_    0.108022 0.942128 0.656221 0.281688
H105  H     H_    0.134881 0.012884 0.570061 0.263768
H106  H     H_    0.760863 0.543199 0.579805 0.167122
H107  H     H_    0.767093 0.567124 0.717241 0.104789
H108  H     H_    0.724152 0.411916 0.608217 0.241714
H109  H     H_    0.726901 0.431747 0.749261 0.237438
H110  H     H_    0.637332 0.532484 0.712244 0.259763
H111  H     H_    0.608026 0.442133 0.656264 0.281697
H112  H     H_    0.845340 0.288435 0.767595 0.156946
H113  H     H_    0.634872 0.512895 0.570102 0.263760
H114  H     H_    0.329708 0.971806 0.162290 0.188493
H115  H     H_    0.309251 0.937662 0.028103 0.116926
H116  H     H_    0.260487 0.085155 0.134935 0.235183
H117  H     H_    0.241917 0.063971 0.994366 0.225655
H118  H     H_    0.144762 0.027158 0.091002 0.282188
H119  H     H_    0.200871 0.965823 0.174436 0.266543
H120  H     H_    0.182169 0.945317 0.032151 0.277752
H121  H     H_    0.829706 0.471775 0.162279 0.188483
H122  H     H_    0.809250 0.437646 0.028085 0.116920
H123  H     H_    0.834925 0.710568 0.791055 0.182847
H124  H     H_    0.760488 0.585127 0.134950 0.235170
H125  H     H_    0.741923 0.563965 0.994374 0.225659
H126  H     H_    0.644762 0.527138 0.090988 0.282181
H127  H     H_    0.700866 0.465788 0.174406 0.266546
H128  H     H_    0.682168 0.445306 0.032115 0.277768
H129  H     H_    0.817229 0.233609 0.927767 0.140878
H130  H     H_    0.775089 0.151845 0.863816 0.127345
H131  H     H_    0.717991 0.254503 0.033373 0.199051
H132  H     H_    0.678498 0.170712 0.973648 0.284365
H133  H     H_    0.785134 0.095392 0.045913 0.315811
H134  H     H_    0.353819 0.859686 0.248772 0.175998
H135  H     H_    0.741631 0.140349 0.149132 0.280913
H136  H     H_    0.819675 0.180431 0.113006 0.245578
H137  H     H_    0.713741 0.630733 0.838844 0.125467
H138  H     H_    0.646583 0.669965 0.747033 0.117960
H139  H     H_    0.661441 0.677255 0.993485 0.209512
H140  H     H_    0.599892 0.733035 0.911317 0.257670
H141  H     H_    0.546117 0.617547 0.824218 0.273205
H142  H     H_    0.550745 0.611762 0.967650 0.274542
H143  H     H_    0.610992 0.559156 0.897342 0.278776
H144  H     H_    0.317250 0.733511 0.927734 0.140864
N1    N     N_R   0.552340 0.000000 0.237260 -0.186056
N2    N     N_R   0.052340 0.500000 0.237260 -0.186061
N3    N     N_R   0.448170 1.000000 0.762060 -0.137664
N4    N     N_R   0.948170 0.500000 0.762060 -0.137665
O1    O     O_R   0.448200 0.076800 0.373930 -0.609361
O2    O     O_R   0.585240 0.076800 0.457600 -0.576365
O3    O     O_R   0.085240 0.423200 0.457600 -0.594472
O4    O     O_R   0.085240 0.576800 0.457600 -0.576320
O5    O     O_R   0.551780 0.923190 0.626070 -0.600080
O6    O     O_R   0.551780 0.076810 0.626070 -0.618123
O7    O     O_R   0.051780 0.423190 0.626070 -0.600085
O8    O     O_R   0.051780 0.576810 0.626070 -0.618137
O9    O     O_3   0.608088 0.187215 0.767044 -0.734578
O10   O     O_3   0.609507 0.834251 0.768362 -0.752120
O11   O     O_3   0.108111 0.687173 0.767074 -0.734594
O12   O     O_R   0.448200 0.923200 0.373930 -0.611556
O13   O     O_3   0.109501 0.334250 0.768363 -0.752116
O14   O     O_3   0.680476 0.031551 0.921308 -0.774852
O15   O     O_3   0.180472 0.531579 0.921313 -0.774883
O16   O     O_3   0.709937 0.983590 0.118418 -0.613959
O17   O     O_3   0.209940 0.483596 0.118421 -0.614001
O18   O     O_3   0.453609 0.935559 0.159951 -0.633296
O19   O     O_3   0.953615 0.435550 0.159951 -0.633285
O20   O     O_3   0.337824 0.986392 0.667950 -0.596114
O21   O     O_3   0.837824 0.486404 0.667947 -0.596111
O22   O     O_3   0.374566 0.033876 0.055189 -0.610865
O23   O     O_R   0.948200 0.576800 0.373930 -0.609365
O24   O     O_3   0.874566 0.533858 0.055193 -0.610856
O25   O     O_3   0.728585 0.260119 0.832263 -0.622661
O26   O     O_3   0.718242 0.746181 0.834525 -0.638651
O27   O     O_3   0.228606 0.760088 0.832279 -0.622690
O28   O     O_3   0.218227 0.246167 0.834521 -0.638624
O29   O     O_3   0.711264 0.104644 0.450443 -0.637661
O30   O     O_3   0.683883 0.839737 0.413968 -0.648591
O31   O     O_3   0.211227 0.604698 0.450371 -0.637634
O32   O     O_3   0.183875 0.339724 0.413967 -0.648604
O33   O     O_3   0.439010 0.802132 0.633045 -0.786298
O34   O     O_R   0.948200 0.423200 0.373930 -0.611544
O35   O     O_3   0.437376 0.176317 0.680146 -0.761127
O36   O     O_3   0.939011 0.302147 0.633075 -0.786289
O37   O     O_3   0.937384 0.676322 0.680142 -0.761130
O38   O     O_R   0.414750 0.076790 0.542400 -0.546975
O39   O     O_R   0.414750 0.923210 0.542400 -0.514728
O40   O     O_R   0.914750 0.576790 0.542400 -0.546969
O41   O     O_R   0.914750 0.423210 0.542400 -0.514733
O42   O     O_R   0.585240 0.923200 0.457600 -0.594483
Zn1   Zn    Zn3+2 0.522330 1.000000 0.387520 0.982501
Zn2   Zn    Zn3+2 0.022330 0.500000 0.387520 0.982524
Zn3   Zn    Zn3+2 0.477660 0.000000 0.612480 1.016711
Zn4   Zn    Zn3+2 0.977660 0.500000 0.612480 1.016709

loop_
_geom_bond_atom_site_label_1
_geom_bond_atom_site_label_2
_ccdc_geom_bond_type
C30   O29   S    
O7    Zn4   S    
C12   H120  S    
N2    Zn2   S    
N4    Zn4   S    
C22   H141  S    
C68   C75   A    
C37   O31   S    
C24   C98   A    
C84   C86   A    
C71   O34   A    
C5    C6    S    
C86   C88   A    
C8    H108  S    
C79   N3    A    
C10   O22   S    
C17   O25   S    
C91   N2    A    
C127  H71   S    
C64   C84   A    
C105  H2    S    
C42   H44   S    
C64   O16   S    
C6    H105  S    
O42   Zn1   S    
O39   Zn3   S    
C93   C120  A    
C61   C105  A    
C94   N2    A    
C21   C22   S    
O2    Zn1   S    
C39   H38   S    
C37   H32   S    
C77   C79   A    
C42   H45   S    
H61   O9    S    
C5    H102  S    
C103  H134  S    
C25   H4    S    
C60   O40   A    
C19   H135  S    
H65   O14   S    
O38   Zn3   S    
C135  O19   S    
C33   H25   S    
C37   C38   S    
C57   O11   S    
C128  H73   S    
C27   H9    S    
C115  C118  A    
C66   O20   S    
C69   H57   S    
C133  H86   S    
C53   O31   S    
O34   Zn2   S    
C9    H110  S    
O8    Zn4   S    
C74   C101  S    
C81   C90   A    
O3    Zn2   S    
C8    H109  S    
C134  H88   S    
C87   C89   A    
C47   O35   S    
C94   H60   S    
C48   O36   S    
O23   Zn2   S    
C21   H140  S    
C104  C117  A    
C56   O10   S    
C125  O16   S    
C28   H11   S    
C4    H98   S    
C4    C5    S    
C14   H121  S    
C62   C106  A    
C119  C123  A    
C83   C91   A    
C136  H93   S    
C2    C96   A    
C130  C131  S    
C3    H97   S    
C18   H131  S    
C45   C50   A    
C125  H69   S    
C130  H78   S    
C13   C97   A    
C46   O33   S    
C30   H18   S    
C20   C21   S    
C125  C127  S    
C24   C43   A    
C128  H72   S    
C10   H114  S    
C43   C47   A    
C44   C48   A    
C76   O24   S    
O12   Zn1   S    
C58   C98   A    
C1    O38   A    
C7    C8    S    
C19   H133  S    
H66   O15   S    
C92   N1    A    
C135  H91   S    
C76   C78   A    
C13   C35   A    
C34   H28   S    
C37   H33   S    
C38   C39   S    
C78   C80   A    
C53   C104  A    
C69   C76   A    
C3    C136  S    
C118  C122  A    
C72   O6    A    
C43   H101  S    
C82   C126  A    
C116  H46   S    
C129  H75   S    
C110  C114  A    
C114  C119  A    
C91   O19   S    
H63   O11   S    
C108  H54   S    
C2    C45   A    
C114  H35   S    
C134  H89   S    
C50   C124  A    
C39   H39   S    
C3    H95   S    
C40   H40   S    
C75   O22   S    
C111  H58   S    
C65   O17   S    
C25   C26   S    
C52   C100  A    
C116  C120  A    
C132  H84   S    
C17   H130  S    
C15   H125  S    
C29   H15   S    
C31   C32   S    
C17   C18   S    
C52   C93   A    
C54   O32   S    
C88   H68   S    
C75   C77   A    
H49   O35   S    
H62   O10   S    
H50   O36   S    
C26   H7    S    
C32   H21   S    
C67   O21   S    
C105  C109  A    
C65   C94   A    
C107  C111  A    
C41   H43   S    
C22   H142  S    
C38   H36   S    
C51   O29   S    
C57   C101  A    
C6    H103  S    
C11   H116  S    
C49   C59   S    
C59   C103  A    
H64   O13   S    
C60   O23   A    
C95   C126  A    
C36   H29   S    
C62   C71   S    
C34   C36   S    
C66   N3    A    
C10   C11   S    
C55   O9    S    
C40   H41   S    
C7    O21   S    
C55   C99   A    
C14   C15   S    
C15   H124  S    
C96   O26   S    
O1    Zn1   S    
C72   C99   S    
C41   C42   S    
C39   H37   S    
C58   O13   S    
C48   C123  A    
C1    O1    A    
C107  H24   S    
C135  C136  S    
C70   O42   A    
H51   O37   S    
C129  O17   S    
C52   O30   S    
C131  H82   S    
C28   C29   S    
C129  C130  S    
C112  C117  A    
C18   C19   S    
C4    O20   S    
C80   C89   A    
C20   H137  S    
C95   O25   S    
C49   O39   A    
C128  H74   S    
C16   H127  S    
C78   C83   A    
C53   C101  A    
C5    H100  S    
C133  H85   S    
C111  C116  A    
C58   C102  A    
C32   H23   S    
C14   O24   S    
C12   H119  S    
C132  O18   S    
C90   N1    A    
C68   H1    S    
C82   C119  A    
C21   H139  S    
C79   C88   A    
C38   H34   S    
C28   H12   S    
C80   N4    A    
C72   O2    A    
C14   H122  S    
C86   O14   S    
C136  H94   S    
C36   H31   S    
C108  C112  A    
C90   O18   S    
C77   C81   A    
C11   C12   S    
C54   C115  A    
O41   Zn4   S    
C73   O7    A    
C13   C104  A    
C74   O8    A    
O5    Zn3   S    
C73   C102  S    
C83   C85   A    
C71   O41   A    
C133  C134  S    
C64   C92   A    
C127  C128  S    
C56   C96   A    
C125  H67   S    
C131  H80   S    
C54   C102  A    
C25   H5    S    
C67   N4    A    
C1    C61   S    
C31   H19   S    
C19   H136  S    
C113  H53   S    
C33   H26   S    
C27   H10   S    
C7    H106  S    
C11   H117  S    
C9    H111  S    
C44   H112  S    
O6    Zn3   S    
C20   O26   S    
C134  H87   S    
N3    Zn3   S    
C35   C46   A    
C59   C121  A    
C66   C68   A    
C35   H90   S    
C92   H59   S    
O4    Zn2   S    
C44   C126  A    
C49   O12   A    
C60   C63   S    
C23   H3    S    
C127  H70   S    
O40   Zn4   S    
C15   C16   S    
C130  H77   S    
C10   H115  S    
C117  C121  A    
H48   O33   S    
C17   H129  S    
C29   H14   S    
C30   H17   S    
C8    C9    S    
C46   C121  A    
C23   O27   S    
C103  C108  A    
N1    Zn1   S    
C63   C124  A    
C89   H79   S    
C16   H126  S    
C57   C97   A    
C106  H13   S    
C26   H8    S    
C62   C123  A    
C70   C100  S    
C45   H123  S    
C32   H22   S    
C85   C87   A    
C51   C99   A    
C50   O37   S    
C12   H118  S    
C135  H92   S    
C70   O5    A    
C41   H42   S    
C55   C95   A    
C34   H27   S    
C22   H143  S    
C132  C133  S    
C47   C122  A    
C6    H104  S    
C61   C122  A    
C67   C69   A    
C9    H113  S    
C33   O30   S    
C40   O32   S    
C73   O3    A    
C74   O4    A    
C30   C31   S    
C36   H30   S    
C33   C34   S    
C129  H76   S    
C51   C82   A    
C40   C41   S    
C97   O27   S    
C98   O28   S    
C4    H99   S    
C56   C100  A    
C63   C107  A    
C81   C84   A    
C106  C110  A    
C2    C93   A    
C3    H96   S    
C112  H52   S    
C23   H144  S    
C65   C85   A    
C109  C113  A    
C42   H47   S    
C131  H81   S    
C132  H83   S    
C87   O15   S    
C29   H16   S    
C18   H132  S    
C109  H55   S    
C110  H56   S    
C23   C25   S    
C20   H138  S    
C113  C118  A    
C16   H128  S    
C31   H20   S    
C24   C115  A    
C7    H107  S    
C27   C28   S    
C27   O28   S    
C26   H6    S    
C120  C124  A    
