data_mof_unit_43873.cif
_audit_creation_date              2012-12-10T17:05:11-0500
_audit_creation_method            fapswitch 2.2
_symmetry_space_group_name_H-M    P1
_symmetry_Int_Tables_number       1
_space_group_crystal_system       triclinic
_cell_length_a                    10.791162
_cell_length_b                    11.061561
_cell_length_c                    9.86163
_cell_angle_alpha                 110.964817
_cell_angle_beta                  98.640575
_cell_angle_gamma                 91.726039
_cell_volume                      1082.25665966

loop_
_atom_site_label
_atom_site_type_symbol
_atom_type_description
_atom_site_fract_x
_atom_site_fract_y
_atom_site_fract_z
_atom_type_partial_charge
C1    C     C_R   0.485208 0.253885 0.439624 0.708647
C2    C     C_3   0.878024 0.490373 0.497608 -0.089175
C3    C     C_3   0.946819 0.624541 0.607244 0.324751
C4    C     C_3   0.906094 0.472665 0.341805 -0.559217
C5    C     C_2   0.470727 0.112532 0.400830 0.349962
C6    C     C_2   0.494496 0.066055 0.509013 -0.374487
C7    C     C_2   0.513401 0.884358 0.589221 -0.506193
C8    C     C_2   0.467532 0.928662 0.483237 0.580537
C9    C     C_2   0.518861 0.496725 0.075412 -0.151535
C10   C     C_2   0.487844 0.486658 0.915053 0.581604
C11   C     C_R   0.260074 0.500376 0.500349 0.820505
C12   C     C_R   0.507995 0.745576 0.558937 0.863840
C13   C     C_R   0.739890 0.496089 0.498582 0.795760
C14   C     C_3   0.079300 0.396860 0.567730 -0.217174
C15   C     C_3   0.931491 0.373467 0.539920 0.881810
C16   C     C_3   0.087854 0.630816 0.594077 -0.586498
C17   C     C_3   0.047554 0.460313 0.337996 0.390216
C18   C     C_3   0.121696 0.495210 0.498708 -0.111522
Cu1   Cu    Cu3+1 0.522160 0.521810 0.644910 1.007474
Cu2   Cu    Cu3+1 0.477840 0.478190 0.355090 0.953267
H1    H     H_    0.114392 0.441235 0.688564 0.165969
H2    H     H_    0.877919 0.557778 0.313114 0.137248
H3    H     H_    0.107386 0.702767 0.543250 0.126176
H4    H     H_    0.903095 0.701955 0.572857 0.061670
H5    H     H_    0.532822 0.130845 0.620664 0.108936
H6    H     H_    0.560071 0.950831 0.697057 0.118187
H7    H     H_    0.607463 0.548755 0.140698 0.139612
H8    H     H_    0.634287 0.610074 0.932146 0.153091
H9    H     H_    0.354385 0.413413 0.082146 0.215608
H10   H     H_    0.147529 0.665823 0.705509 0.229297
H11   H     H_    0.081763 0.533625 0.294662 0.082330
H12   H     H_    0.849478 0.385949 0.256247 0.240659
N1    N     N_2   0.444530 0.445420 0.137360 -0.286213
N2    N     N_2   0.555520 0.554510 0.862630 -0.304833
O1    O     O_R   0.511820 0.332340 0.577400 -0.564769
O2    O     O_R   0.474400 0.295500 0.332650 -0.574856
O3    O     O_R   0.336400 0.518400 0.622370 -0.535231
O4    O     O_R   0.298980 0.481560 0.377620 -0.577571
O5    O     O_R   0.525600 0.704500 0.667350 -0.586696
O6    O     O_R   0.488180 0.667660 0.422600 -0.517734
O7    O     O_R   0.701020 0.518440 0.622380 -0.503668
O8    O     O_R   0.663600 0.481600 0.377630 -0.611220
O9    O     O_3   0.401389 0.845635 0.347863 -0.493657
C19   C     C_3   0.273104 0.834323 0.358722 -0.251240
H13   H     H_    0.220840 0.766334 0.251312 0.174887
H14   H     H_    0.232740 0.929381 0.382551 0.172423
H15   H     H_    0.258706 0.793573 0.443742 0.115169
O10   O     O_3   0.449506 0.026590 0.254259 -0.537578
C20   C     C_3   0.342856 0.052319 0.169989 -0.214500
H16   H     H_    0.372624 0.109338 0.106019 0.165555
H17   H     H_    0.272030 0.102555 0.236100 0.172709
H18   H     H_    0.295371 0.958291 0.089287 0.170974
O11   O     O_3   0.381193 0.410926 0.823230 -0.545845
C21   C     C_3   0.381115 0.280376 0.814439 -0.343737
H19   H     H_    0.305890 0.257476 0.868978 0.135784
H20   H     H_    0.473183 0.253497 0.858416 0.141702
H21   H     H_    0.354824 0.216374 0.697828 0.204045
C22   C     C_1   0.137723 0.272757 0.516241 0.371504
N3    N     N_1   0.181222 0.174674 0.475560 -0.367928
O12   O     O_3   0.895775 0.251685 0.419141 -0.598660
C23   C     C_3   0.768663 0.204248 0.395379 -0.305468
H22   H     H_    0.728658 0.228007 0.497813 0.177541
H23   H     H_    0.762099 0.096692 0.344146 0.193131
H24   H     H_    0.711983 0.238722 0.315453 0.182967
O13   O     O_3   0.889512 0.374495 0.671338 -0.562575
C24   C     C_3   0.933923 0.274286 0.718528 -0.369024
H25   H     H_    0.028491 0.305517 0.788161 0.157431
H26   H     H_    0.936616 0.180524 0.626755 0.188648
H27   H     H_    0.869102 0.255784 0.787606 0.177850
O14   O     O_3   0.935200 0.640907 0.754302 -0.516914
C25   C     C_3   0.926493 0.772817 0.838357 -0.290445
H28   H     H_    0.007497 0.836040 0.835510 0.137920
H29   H     H_    0.928061 0.783339 0.954779 0.185463
H30   H     H_    0.836088 0.805411 0.799339 0.156082
O15   O     O_3   0.067326 0.331681 0.249179 -0.526514
C26   C     C_3   0.057885 0.318508 0.100207 -0.319101
H31   H     H_    0.135062 0.379009 0.085625 0.156073
H32   H     H_    0.965148 0.344248 0.057609 0.157576
H33   H     H_    0.067007 0.215553 0.033312 0.169188

loop_
_geom_bond_atom_site_label_1
_geom_bond_atom_site_label_2
_ccdc_geom_bond_type
C24   H26   S    
C11   C18   S    
C11   O4    A    
C15   O12   S    
C14   C18   S    
Cu1   Cu2   S    
C8    O9    S    
O15   C26   S    
C13   O7    A    
C7    C8    D    
O11   C21   S    
C9    H7    S    
C7    H6    S    
C1    C5    S    
C14   H1    S    
C26   H32   S    
C5    C6    D    
Cu2   O6    S    
C6    H5    S    
C16   H10   S    
C15   O13   S    
H9    N1    S    
Cu2   O4    S    
C23   H23   S    
C11   O3    A    
C2    C13   S    
Cu1   O3    S    
C20   H17   S    
C26   H33   S    
O14   C25   S    
C9    C10   S    
C19   H15   S    
C24   H25   S    
H8    N2    S    
C9    N1    D    
C3    H4    S    
C13   O8    A    
C19   H14   S    
C7    C12   S    
C14   C22   S    
C5    O10   S    
C21   H20   S    
C3    O14   S    
C26   H31   S    
C10   O11   S    
C25   H29   S    
C6    C8    S    
C22   N3    T    
O12   C23   S    
Cu2   O2    S    
C12   O6    A    
C23   H24   S    
C2    C4    S    
O9    C19   S    
C4    H2    S    
C20   H18   S    
C17   C18   S    
C10   N2    D    
C2    C15   S    
C4    H12   S    
Cu1   O5    S    
C4    C17   S    
O10   C20   S    
C20   H16   S    
C16   H3    S    
C17   H11   S    
Cu2   N1    S    
C19   H13   S    
C1    O1    A    
C21   H19   S    
Cu1   N2    S    
C25   H30   S    
Cu2   O8    S    
C12   O5    A    
C2    C3    S    
C25   H28   S    
Cu1   O1    S    
C23   H22   S    
C24   H27   S    
C16   C18   S    
O13   C24   S    
C17   O15   S    
C14   C15   S    
C3    C16   S    
Cu1   O7    S    
C1    O2    A    
C21   H21   S    
