data_mof_unit_37853.cif
_audit_creation_date              2012-10-26T20:19:35-0400
_audit_creation_method            fapswitch 2.2
_symmetry_space_group_name_H-M    P1
_symmetry_Int_Tables_number       1
_space_group_crystal_system       triclinic
_cell_length_a                    10.756233
_cell_length_b                    10.853661
_cell_length_c                    9.585257
_cell_angle_alpha                 90.544217
_cell_angle_beta                  90.099692
_cell_angle_gamma                 92.925143
_cell_volume                      1117.51488927

loop_
_atom_site_label
_atom_site_type_symbol
_atom_type_description
_atom_site_fract_x
_atom_site_fract_y
_atom_site_fract_z
_atom_type_partial_charge
C1    C     C_R   0.509988 0.263194 0.500253 0.565787
C2    C     C_R   0.533557 0.065957 0.630878 0.025913
C3    C     C_R   0.521268 0.129453 0.503007 -0.000578
C4    C     C_R   0.260277 0.500633 0.500178 0.567347
C5    C     C_R   0.502337 0.062731 0.378591 -0.132820
C6    C     C_R   0.491365 0.935421 0.380154 -0.143202
C7    C     C_R   0.488091 0.872231 0.506991 0.012417
C8    C     C_R   0.665066 0.665616 0.146093 -0.091772
C9    C     C_R   0.745608 0.746508 0.074637 -0.177406
C10   C     C_R   0.745641 0.746264 0.930858 -0.167966
C11   C     C_R   0.665012 0.665232 0.857712 -0.093483
C12   C     C_3   0.877984 0.497990 0.499147 0.013976
C13   C     C_R   0.580845 0.581590 0.926184 0.146504
C14   C     C_R   0.580771 0.581722 0.075842 0.152497
C15   C     C_R   0.424286 0.420712 0.071875 0.078800
C16   C     C_R   0.493104 0.737527 0.501621 0.538743
C17   C     C_R   0.424204 0.421538 0.924061 -0.017100
C18   C     C_R   0.739936 0.499457 0.500064 0.525983
C19   C     C_3   0.067023 0.376418 0.434548 -0.129056
C20   C     C_3   0.922151 0.372543 0.440131 -0.117746
C21   C     C_3   0.071439 0.512304 0.652075 -0.238100
C22   C     C_3   0.076775 0.609008 0.411538 -0.123153
C23   C     C_3   0.929277 0.514814 0.650452 -0.249386
C24   C     C_3   0.122091 0.499767 0.500624 0.005018
C25   C     C_1   0.114901 0.266385 0.502500 0.196844
C26   C     C_1   0.343624 0.330721 0.140377 0.225885
C27   C     C_1   0.870060 0.340794 0.300559 0.198342
C28   C     C_1   0.129494 0.730182 0.461135 0.179408
C29   C     C_3   0.932748 0.606912 0.410683 -0.240904
C30   C     C_R   0.580264 0.123592 0.755085 -0.093322
C31   C     C_R   0.564834 0.066040 0.883606 -0.121251
C32   C     C_R   0.502916 0.950926 0.890451 -0.119107
C33   C     C_R   0.468062 0.888190 0.767808 -0.082222
C34   C     C_R   0.495835 0.939926 0.635244 0.037361
Cu1   Cu    Cu3+1 0.499990 0.499990 0.640660 0.914629
Cu2   Cu    Cu3+1 0.500010 0.500010 0.359340 0.962125
H1    H     H_    0.496019 0.108832 0.279273 0.151852
H2    H     H_    0.362712 0.357291 0.866416 0.134104
H3    H     H_    0.886384 0.298342 0.511389 0.105401
H4    H     H_    0.889997 0.440129 0.718762 0.143806
H5    H     H_    0.899398 0.597478 0.300994 0.131323
H6    H     H_    0.897649 0.695111 0.451610 0.113649
H7    H     H_    0.111214 0.598136 0.702970 0.145275
H8    H     H_    0.901253 0.604263 0.695180 0.130436
H9    H     H_    0.484252 0.908832 0.990729 0.117621
H10   H     H_    0.808633 0.809342 0.875234 0.130650
H11   H     H_    0.099551 0.433871 0.716990 0.142717
H12   H     H_    0.631203 0.212013 0.754435 0.146036
H13   H     H_    0.108868 0.597605 0.302021 0.119599
H14   H     H_    0.597739 0.112377 0.978205 0.127260
H15   H     H_    0.415559 0.801661 0.779971 0.156743
H16   H     H_    0.483462 0.886529 0.281207 0.136266
H17   H     H_    0.098761 0.373181 0.324168 0.144760
H18   H     H_    0.673862 0.672642 0.256131 0.178543
H19   H     H_    0.808859 0.809539 0.131593 0.127434
H20   H     H_    0.672725 0.672470 0.747764 0.184178
N1    N     N_R   0.501200 0.501210 0.147910 -0.254346
N2    N     N_R   0.501250 0.501290 0.852040 -0.261527
N3    N     N_1   0.152619 0.180458 0.555512 -0.262676
N4    N     N_1   0.278902 0.257190 0.194085 -0.309622
N5    N     N_1   0.829315 0.315929 0.191446 -0.297372
N6    N     N_1   0.170681 0.824983 0.499990 -0.281541
O1    O     O_R   0.499990 0.319640 0.618810 -0.508150
O2    O     O_R   0.500000 0.319660 0.381240 -0.483098
O3    O     O_R   0.317680 0.499970 0.618790 -0.503627
O4    O     O_R   0.317700 0.499990 0.381210 -0.498997
O5    O     O_R   0.500000 0.680340 0.618760 -0.538942
O6    O     O_R   0.500010 0.680360 0.381190 -0.529781
O7    O     O_R   0.682300 0.500010 0.618790 -0.535910
O8    O     O_R   0.682320 0.500030 0.381210 -0.511067

loop_
_geom_bond_atom_site_label_1
_geom_bond_atom_site_label_2
_ccdc_geom_bond_type
C10   H10   S    
Cu1   O1    S    
Cu2   O6    S    
C18   O8    A    
C6    C7    A    
C9    H19   S    
C22   C29   S    
C5    H1    S    
C29   H6    S    
C33   H15   S    
C11   C13   A    
C9    C10   A    
Cu1   Cu2   S    
Cu1   O5    S    
C17   N2    A    
C2    C30   A    
C29   H5    S    
C32   C33   A    
C19   H17   S    
C18   O7    A    
C21   C23   S    
C2    C3    A    
C3    C5    A    
C16   O5    A    
C22   C28   S    
C13   C14   A    
C4    O4    A    
C15   N1    A    
C12   C23   S    
C2    C34   A    
C5    C6    A    
C12   C20   S    
C22   H13   S    
C16   O6    A    
C1    O1    A    
C30   H12   S    
C7    C16   S    
C20   C27   S    
Cu2   O8    S    
C19   C24   S    
C22   C24   S    
C17   H2    S    
Cu1   N2    S    
C4    O3    A    
C19   C25   S    
C7    C34   A    
Cu2   O4    S    
C14   N1    A    
C10   C11   A    
Cu1   O3    S    
C31   H14   S    
C12   C18   S    
C23   H4    S    
C1    O2    A    
C4    C24   S    
C27   N5    T    
C33   C34   A    
Cu1   O7    S    
Cu2   N1    S    
C32   H9    S    
C21   C24   S    
C8    H18   S    
C15   C17   A    
C20   H3    S    
C30   C31   A    
C15   C26   S    
C8    C14   A    
C13   N2    A    
C25   N3    T    
C6    H16   S    
Cu2   O2    S    
C26   N4    T    
C23   H8    S    
C31   C32   A    
C21   H7    S    
C11   H20   S    
C19   C20   S    
C21   H11   S    
C8    C9    A    
C1    C3    S    
C12   C29   S    
C28   N6    T    
