data_mof_unit_45171.cif
_audit_creation_date              2012-10-26T19:28:58-0400
_audit_creation_method            fapswitch 2.2
_symmetry_space_group_name_H-M    P1
_symmetry_Int_Tables_number       1
_space_group_crystal_system       triclinic
_cell_length_a                    9.689329
_cell_length_b                    10.922291
_cell_length_c                    17.31116
_cell_angle_alpha                 92.844213
_cell_angle_beta                  85.960503
_cell_angle_gamma                 87.609676
_cell_volume                      1823.35229504

loop_
_atom_site_label
_atom_site_type_symbol
_atom_type_description
_atom_site_fract_x
_atom_site_fract_y
_atom_site_fract_z
_atom_type_partial_charge
C1    C     C_R   0.499439 0.738777 0.492231 0.616912
C2    C     C_R   0.526223 0.489722 0.265229 0.053753
C3    C     C_3   0.382265 0.931402 0.433420 -0.101995
C4    C     C_R   0.481705 0.502790 0.649424 0.577871
C5    C     C_3   0.366740 0.074708 0.446914 -0.219768
C6    C     C_3   0.462324 0.937964 0.566028 -0.246153
C7    C     C_3   0.648099 0.924768 0.447056 0.023009
C8    C     C_3   0.500668 0.877929 0.483020 -0.038309
C9    C     C_3   0.498381 0.122821 0.483848 -0.039995
C10   C     C_3   0.490876 0.075560 0.567370 -0.271491
C11   C     C_3   0.626271 0.066513 0.431249 -0.082209
C12   C     C_R   0.366552 0.568345 0.782062 0.030711
C13   C     C_3   0.927231 0.366987 0.488920 0.127515
C14   C     C_3   0.094894 0.372410 0.479937 0.225670
C15   C     C_3   0.921142 0.573879 0.437505 -0.128644
C16   C     C_R   0.501322 0.261084 0.492618 0.582918
C17   C     C_3   0.907737 0.549969 0.575024 0.001584
C18   C     C_3   0.083789 0.583004 0.442386 0.034995
C19   C     C_3   0.073047 0.533215 0.576812 -0.138998
C20   C     C_R   0.518289 0.498771 0.350408 0.622495
C21   C     C_R   0.475433 0.506356 0.734455 -0.019691
C22   C     C_R   0.586122 0.448475 0.768314 -0.125831
C23   C     C_R   0.405036 0.477813 0.147791 -0.111312
C24   C     C_R   0.590101 0.449916 0.847822 -0.077840
C25   C     C_R   0.480882 0.505004 0.895885 0.026936
C26   C     C_R   0.368507 0.566086 0.863729 0.064394
C27   C     C_2   0.387305 0.887008 0.348829 0.648677
C28   C     C_2   0.763832 0.922101 0.503336 0.584126
C29   C     C_2   0.707748 0.846345 0.374741 0.595733
C30   C     C_2   0.627704 0.103362 0.346416 0.602611
C31   C     C_2   0.887356 0.288622 0.419370 0.596818
C32   C     C_2   0.893021 0.288881 0.561870 0.532391
C33   C     C_3   0.145179 0.333788 0.338979 -0.053444
C34   C     C_R   0.404291 0.504356 0.226794 -0.131872
C35   C     C_2   0.852442 0.675993 0.607869 0.612096
C36   C     C_2   0.109640 0.718282 0.455720 0.616941
C37   C     C_2   0.542081 0.284496 0.990405 0.596911
C38   C     C_2   0.256252 0.630274 0.915616 0.605645
C39   C     C_2   0.253891 0.638366 0.747625 0.612139
C40   C     C_R   0.651684 0.458362 0.221639 -0.116137
C41   C     C_R   0.652493 0.431300 0.142014 -0.080209
C42   C     C_R   0.528385 0.438656 0.105473 0.032325
C43   C     C_2   0.492926 0.510546 0.980003 -0.116553
C44   C     C_2   0.526233 0.414146 0.021782 0.034599
Cu1   Cu    Cu3+1 0.357600 0.500140 0.499960 1.044033
Cu2   Cu    Cu3+1 0.642400 0.499860 0.500040 1.050966
H1    H     H_    0.671280 0.402074 0.732979 0.162580
H2    H     H_    0.512940 0.891805 0.612901 0.205466
H3    H     H_    0.586226 0.093155 0.596249 0.189246
H4    H     H_    0.133182 0.316172 0.526210 0.191674
H5    H     H_    0.898611 0.538510 0.379114 0.147100
H6    H     H_    0.136873 0.561476 0.384535 0.118744
H7    H     H_    0.748586 0.453701 0.248672 0.146210
H8    H     H_    0.862897 0.497091 0.622355 0.159735
H9    H     H_    0.099875 0.465231 0.619354 0.154216
H10   H     H_    0.120960 0.611853 0.603993 0.240389
H11   H     H_    0.867879 0.666094 0.442450 0.179919
H12   H     H_    0.749275 0.405483 0.108923 0.145604
H13   H     H_    0.309203 0.487384 0.119473 0.159942
H14   H     H_    0.472019 0.600211 0.009836 0.138279
H15   H     H_    0.679550 0.407994 0.872058 0.152734
H16   H     H_    0.359778 0.748174 0.272016 0.342353
H17   H     H_    0.951727 0.983640 0.522783 0.354527
H18   H     H_    0.687345 0.708912 0.295028 0.334860
H19   H     H_    0.724850 0.093515 0.238984 0.353415
H20   H     H_    0.814650 0.278892 0.313694 0.338182
H21   H     H_    0.802620 0.145710 0.609002 0.351456
H22   H     H_    0.060470 0.401512 0.332512 0.073434
H23   H     H_    0.284548 0.899612 0.456442 0.159626
H24   H     H_    0.119542 0.247349 0.307926 0.189781
H25   H     H_    0.241265 0.361747 0.308656 0.154488
H26   H     H_    0.702963 0.768320 0.678471 0.355990
H27   H     H_    0.124895 0.859922 0.535321 0.332793
H28   H     H_    0.492294 0.155588 0.910729 0.354649
H29   H     H_    0.137025 0.784566 0.942016 0.357528
H30   H     H_    0.048226 0.672917 0.744417 0.357094
H31   H     H_    0.342853 0.120721 0.393729 0.245396
H32   H     H_    0.273968 0.098422 0.487538 0.149373
H33   H     H_    0.350305 0.927860 0.582323 0.158211
H34   H     H_    0.405954 0.126242 0.604099 0.140778
H35   H     H_    0.307265 0.535293 0.257748 0.124735
H36   H     H_    0.715096 0.113930 0.449950 0.219311
N1    N     N_3   0.856560 0.499750 0.498270 -0.329282
N2    N     N_3   0.143860 0.496700 0.498910 -0.299521
O1    O     O_R   0.379740 0.682430 0.499960 -0.444491
O2    O     O_R   0.359571 0.765236 0.330076 -0.647053
O3    O     O_2   0.740426 0.905673 0.571655 -0.530856
O4    O     O_R   0.895494 0.958076 0.478140 -0.576314
O5    O     O_2   0.824569 0.862526 0.346490 -0.378702
O6    O     O_R   0.635059 0.751707 0.342269 -0.697927
O7    O     O_2   0.544491 0.181339 0.327108 -0.513146
O8    O     O_R   0.734048 0.059967 0.292057 -0.607601
O9    O     O_2   0.934030 0.182471 0.410433 -0.453250
O10   O     O_R   0.813677 0.336562 0.361329 -0.709292
O11   O     O_2   0.953916 0.302858 0.621056 -0.593243
O12   O     O_R   0.620260 0.682190 0.500020 -0.473839
O13   O     O_R   0.804834 0.192209 0.559664 -0.693442
O14   O     O_3   0.172494 0.307955 0.415661 -0.555384
O15   O     O_2   0.930834 0.758857 0.617276 -0.484911
O16   O     O_R   0.718714 0.690868 0.643668 -0.645116
O17   O     O_2   0.091745 0.786388 0.403009 -0.449964
O18   O     O_R   0.140700 0.768201 0.527721 -0.653627
O19   O     O_2   0.610466 0.209705 0.023774 -0.489452
O20   O     O_R   0.474021 0.246112 0.925443 -0.671524
O21   O     O_2   0.201795 0.577625 0.969737 -0.504666
O22   O     O_R   0.213906 0.751133 0.902931 -0.652625
O23   O     O_R   0.365800 0.500150 0.613560 -0.513006
O24   O     O_2   0.282039 0.716865 0.701771 -0.491701
O25   O     O_R   0.115723 0.616527 0.769368 -0.671209
O26   O     O_R   0.606310 0.499910 0.613620 -0.479759
O27   O     O_R   0.379740 0.317810 0.499980 -0.488797
O28   O     O_R   0.620260 0.317570 0.500040 -0.470309
O29   O     O_R   0.393690 0.500090 0.386380 -0.498060
O30   O     O_R   0.634200 0.499850 0.386440 -0.461048
O31   O     O_2   0.408198 0.957077 0.296791 -0.465026

loop_
_geom_bond_atom_site_label_1
_geom_bond_atom_site_label_2
_ccdc_geom_bond_type
C19   H10   S    
H19   O8    S    
C24   H15   S    
C7    C29   S    
Cu2   O28   S    
H17   O4    S    
C15   C18   S    
C1    C8    S    
C41   C42   A    
C13   C32   S    
Cu1   O1    S    
H18   O6    S    
C25   C43   S    
C29   O5    D    
C18   H6    S    
C7    C8    S    
Cu1   Cu2   S    
C23   H13   S    
H16   O2    S    
C23   C42   A    
C6    H2    S    
C3    H23   S    
C9    C16   S    
C41   H12   S    
C20   O29   A    
C32   O13   S    
C36   O18   S    
C33   O14   S    
C11   C30   S    
H30   O25   S    
C28   O4    S    
C18   N2    S    
C34   H35   S    
C14   N2    S    
C9    C10   S    
H20   O10   S    
C2    C34   A    
C22   H1    S    
C21   C22   A    
C15   H11   S    
C42   C44   S    
C35   O15   D    
C29   O6    S    
C14   O14   S    
C11   H36   S    
C1    O1    A    
C39   O24   D    
C4    O23   A    
Cu2   O30   S    
C2    C20   S    
C24   C25   A    
C30   O8    S    
C3    C8    S    
C37   O19   D    
C10   H34   S    
C26   C38   S    
C6    C8    S    
C25   C26   A    
C31   O9    D    
C12   C21   A    
C12   C39   S    
C7    C28   S    
C12   C26   A    
C36   O17   D    
C17   N1    S    
C38   O22   S    
C27   O2    S    
C7    C11   S    
C43   C44   D    
C5    C9    S    
C2    C40   A    
C23   C34   A    
C28   O3    D    
C9    C11   S    
C43   H14   S    
C33   H24   S    
C40   C41   A    
C15   H5    S    
Cu2   O26   S    
C22   C24   A    
Cu1   N2    S    
C5    H31   S    
C19   N2    S    
C16   O28   A    
H28   O20   S    
H26   O16   S    
C19   H9    S    
C4    O26   A    
H27   O18   S    
C13   C31   S    
C30   O7    D    
C3    C5    S    
C6    C10   S    
C37   O20   S    
C15   N1    S    
Cu1   O27   S    
C31   O10   S    
C13   N1    S    
C37   C44   S    
C3    C27   S    
C20   O30   A    
C4    C21   S    
C6    H33   S    
C14   H4    S    
C38   O21   D    
C1    O12   A    
C17   C19   S    
H21   O13   S    
C33   H25   S    
Cu1   O23   S    
Cu2   N1    S    
Cu1   O29   S    
C39   O25   S    
C32   O11   D    
Cu2   O12   S    
C33   H22   S    
H29   O22   S    
C40   H7    S    
C17   C35   S    
C5    H32   S    
C13   C14   S    
C10   H3    S    
C18   C36   S    
C17   H8    S    
C35   O16   S    
C16   O27   A    
C27   O31   D    
