data_mof_unit_16525.cif
_audit_creation_date              2012-12-11T15:54:53-0500
_audit_creation_method            fapswitch 2.2
_symmetry_space_group_name_H-M    P1
_symmetry_Int_Tables_number       1
_space_group_crystal_system       triclinic
_cell_length_a                    17.749852
_cell_length_b                    24.462783
_cell_length_c                    15.131989
_cell_angle_alpha                 89.454509
_cell_angle_beta                  125.572495
_cell_angle_gamma                 90.073671
_cell_volume                      5343.97661125

loop_
_atom_site_label
_atom_site_type_symbol
_atom_type_description
_atom_site_fract_x
_atom_site_fract_y
_atom_site_fract_z
_atom_type_partial_charge
C1    C     C_R   0.947384 0.847874 0.095343 -0.307760
C2    C     C_R   0.184867 0.869997 0.095130 0.605166
C3    C     C_R   0.397942 0.687598 0.003238 -0.044912
C4    C     C_R   0.672128 0.995598 0.700447 -0.142209
C5    C     C_R   0.172115 0.495607 0.700428 -0.142062
C6    C     C_R   0.956431 0.999668 0.279888 0.127281
C7    C     C_R   0.456424 0.499668 0.279879 0.127239
C8    C     C_R   0.246694 0.953913 0.305866 -0.173710
C9    C     C_R   0.242881 0.042695 0.310629 -0.154511
C10   C     C_R   0.746676 0.453905 0.305868 -0.173671
C11   C     C_R   0.742793 0.542676 0.310674 -0.154227
C12   C     C_R   0.957651 0.045579 0.698877 -0.205895
C13   C     C_R   0.665565 0.644995 0.089805 0.554015
C14   C     C_R   0.957469 0.954117 0.700739 -0.153155
C15   C     C_R   0.457658 0.545580 0.698882 -0.205884
C16   C     C_R   0.457471 0.454118 0.700740 -0.153227
C17   C     C_3   0.694638 0.035044 0.202003 -0.206276
C18   C     C_3   0.853616 0.856478 0.326889 -0.166744
C19   C     C_3   0.194628 0.535021 0.202001 -0.206321
C20   C     C_3   0.353654 0.356470 0.326919 -0.166451
C21   C     C_3   0.663663 0.235341 0.758280 -0.056033
C22   C     C_3   0.964646 0.678049 0.024657 -0.208045
C23   C     C_3   0.163667 0.735332 0.758303 -0.055999
C24   C     C_R   0.684872 0.370005 0.095129 0.605193
C25   C     C_3   0.464968 0.178082 0.024973 -0.208234
C26   C     C_3   0.047293 0.725548 0.882091 -0.258990
C27   C     C_3   0.256945 0.097223 0.847491 -0.188780
C28   C     C_3   0.547251 0.225582 0.882003 -0.258759
C29   C     C_3   0.756495 0.597336 0.847234 -0.188953
C30   C     C_3   0.816879 0.153914 0.730865 -0.322298
C31   C     C_3   0.889310 0.827393 0.785686 -0.221302
C32   C     C_3   0.316868 0.653914 0.730855 -0.322319
C33   C     C_3   0.389266 0.327416 0.785640 -0.221620
C34   C     C_3   0.638130 0.040256 0.475853 -0.148964
C35   C     C_R   0.285668 0.997153 0.375198 0.193119
C36   C     C_3   0.533497 0.145205 0.530501 -0.332421
C37   C     C_3   0.138115 0.540259 0.475884 -0.149615
C38   C     C_3   0.033433 0.645206 0.530462 -0.332560
C39   C     C_3   0.675633 0.862909 0.655162 0.113898
C40   C     C_3   0.724847 0.063820 0.897980 -0.087076
C41   C     C_3   0.175618 0.362918 0.655154 0.113893
C42   C     C_3   0.224836 0.563832 0.897953 -0.087010
C43   C     C_3   0.556846 0.925456 0.386406 -0.270417
C44   C     C_3   0.500281 0.119836 0.711574 -0.065209
C45   C     C_3   0.056809 0.425476 0.386388 -0.270369
C46   C     C_R   0.785607 0.497133 0.375227 0.192769
C47   C     C_3   0.000247 0.619843 0.711567 -0.065264
C48   C     C_3   0.316176 0.884476 0.503862 -0.402177
C49   C     C_3   0.297679 0.020522 0.601123 -0.148340
C50   C     C_3   0.816191 0.384466 0.503895 -0.402168
C51   C     C_3   0.797674 0.520508 0.601179 -0.148294
C52   C     C_3   0.508520 0.860600 0.694480 -0.259424
C53   C     C_3   0.626495 0.939253 0.853437 -0.148529
C54   C     C_3   0.008543 0.360608 0.694533 -0.259382
C55   C     C_3   0.126503 0.439273 0.853456 -0.148512
C56   C     C_3   0.193496 0.175498 0.249764 -0.356676
C57   C     C_R   0.948257 0.999549 0.641035 0.136487
C58   C     C_3   0.185662 0.818417 0.222234 -0.405542
C59   C     C_3   0.694745 0.675540 0.250339 -0.356887
C60   C     C_3   0.685688 0.318415 0.222234 -0.405658
C61   C     C_3   0.842734 0.129813 0.348670 -0.425990
C62   C     C_3   0.109927 0.914848 0.503318 -0.363743
C63   C     C_3   0.342696 0.629805 0.348638 -0.425975
C64   C     C_3   0.609947 0.414863 0.503329 -0.363717
C65   C     C_R   0.448264 0.499551 0.641039 0.136488
C66   C     C_R   0.188336 0.858368 0.008214 -0.090178
C67   C     C_R   0.165402 0.157173 0.000426 -0.029414
C68   C     C_R   0.688342 0.358380 0.008212 -0.090267
C69   C     C_R   0.948744 0.152950 0.091529 -0.267495
C70   C     C_R   0.665167 0.657330 0.000356 -0.029482
C71   C     C_3   0.855882 0.031152 0.340057 1.166950
C72   C     C_3   0.944744 0.936691 0.407727 1.089550
C73   C     C_3   0.355873 0.531145 0.340051 1.166952
C74   C     C_3   0.444760 0.436692 0.407736 1.089499
C75   C     C_3   0.853493 0.026260 0.443582 -0.685525
C76   C     C_3   0.945564 0.939105 0.509605 -0.623680
C77   C     C_3   0.353491 0.526255 0.443581 -0.685537
C78   C     C_3   0.445581 0.439107 0.509615 -0.623671
C79   C     C_3   0.030136 0.031259 0.466272 -0.564968
C80   C     C_R   0.447387 0.347873 0.095345 -0.307723
C81   C     C_3   0.530126 0.531267 0.466260 -0.564956
C82   C     C_3   0.946287 0.998576 0.370827 -0.049714
C83   C     C_3   0.446285 0.498577 0.370823 -0.049667
C84   C     C_3   0.943416 0.998883 0.540892 0.250260
C85   C     C_3   0.443421 0.498885 0.540893 0.250278
C86   C     C_R   0.868484 0.156946 0.912179 0.761520
C87   C     C_R   0.866057 0.843936 0.917643 0.530963
C88   C     C_R   0.368494 0.656947 0.912178 0.761410
C89   C     C_R   0.366058 0.343933 0.917644 0.531042
C90   C     C_3   0.029374 0.029850 0.565766 -0.422586
C91   C     C_R   0.448801 0.652960 0.091535 -0.266726
C92   C     C_3   0.529369 0.529859 0.565757 -0.422616
C93   C     C_3   0.747157 0.218967 0.953081 0.386079
C94   C     C_3   0.816383 0.722387 0.924771 0.443598
C95   C     C_3   0.247185 0.718960 0.953106 0.386078
C96   C     C_3   0.316610 0.222309 0.924888 0.443439
C97   C     C_3   0.194884 0.761383 0.972161 0.413015
C98   C     C_3   0.250287 0.179168 0.920375 0.388579
C99   C     C_3   0.694858 0.261398 0.972123 0.412965
C100  C     C_3   0.750016 0.679283 0.920253 0.388612
C101  C     C_3   0.347974 0.788686 0.940769 -0.341986
C102  C     C_R   0.103117 0.876561 0.913885 -0.193100
C103  C     C_3   0.383591 0.244169 0.125000 -0.443556
C104  C     C_3   0.847975 0.288684 0.940775 -0.342048
C105  C     C_3   0.883530 0.744172 0.124950 -0.443460
C106  C     C_3   0.894349 0.256601 0.121705 -0.552477
C107  C     C_3   0.746393 0.795243 0.974743 -0.566766
C108  C     C_3   0.394377 0.756607 0.121711 -0.552291
C109  C     C_3   0.246391 0.295128 0.974611 -0.567065
C110  C     C_3   0.848455 0.237426 0.002638 0.172358
C111  C     C_3   0.839742 0.768473 0.009569 0.211983
C112  C     C_3   0.348477 0.737429 0.002645 0.172231
C113  C     C_R   0.087550 0.135283 0.907822 -0.142823
C114  C     C_3   0.339822 0.268425 0.009585 0.212114
C115  C     C_3   0.250291 0.816145 0.009692 0.222915
C116  C     C_3   0.229128 0.196013 0.002922 0.217272
C117  C     C_3   0.750286 0.316153 0.009683 0.222943
C118  C     C_3   0.728937 0.696137 0.002867 0.217160
C119  C     C_3   0.286325 0.834425 0.940964 -0.457127
C120  C     C_3   0.322596 0.198226 0.119145 -0.415608
C121  C     C_3   0.786338 0.334431 0.940973 -0.457100
C122  C     C_3   0.822433 0.698293 0.119071 -0.415927
C123  C     C_3   0.340854 0.804539 0.125504 -0.459488
C124  C     C_R   0.603121 0.376572 0.913885 -0.193041
C125  C     C_3   0.181972 0.252826 0.971773 -0.452563
C126  C     C_3   0.840837 0.304537 0.125499 -0.459370
C127  C     C_3   0.681888 0.752976 0.971824 -0.452786
C128  C     C_3   0.437196 0.969015 0.433565 -0.697180
C129  C     C_3   0.419955 0.056814 0.501666 -0.722057
C130  C     C_3   0.937153 0.469026 0.433561 -0.697189
C131  C     C_3   0.919899 0.556816 0.501655 -0.722013
C132  C     C_R   0.733444 0.951016 0.725635 0.474978
C133  C     C_R   0.730484 0.041267 0.755132 0.523433
C134  C     C_R   0.233434 0.451023 0.725621 0.474854
C135  C     C_R   0.587375 0.635398 0.907780 -0.142544
C136  C     C_R   0.230478 0.541273 0.755113 0.523349
C137  C     C_3   0.538681 0.984578 0.498569 1.110609
C138  C     C_3   0.523556 0.058892 0.605309 1.175318
C139  C     C_3   0.038641 0.484583 0.498565 1.110586
C140  C     C_3   0.023514 0.558898 0.605298 1.175346
C141  C     C_3   0.404479 0.970620 0.583670 0.954768
C142  C     C_3   0.904467 0.470618 0.583695 0.954747
C143  C     C_3   0.383189 0.996912 0.473554 -0.147636
C144  C     C_3   0.883148 0.496910 0.473566 -0.147505
C145  C     C_3   0.565596 0.998015 0.618634 -0.391964
C146  C     C_R   0.165667 0.144943 0.089831 0.553773
C147  C     C_3   0.065571 0.498023 0.618631 -0.391953
C148  C     C_3   0.514165 0.957329 0.657978 0.861379
C149  C     C_3   0.014157 0.457334 0.657993 0.861323
C150  C     C_R   0.983270 0.045913 0.250607 -0.139887
C151  C     C_R   0.977616 0.954286 0.243744 -0.099200
C152  C     C_R   0.483262 0.545914 0.250597 -0.139907
C153  C     C_R   0.477613 0.454286 0.243741 -0.099192
C154  C     C_R   0.894410 0.813865 0.009454 -0.007255
C155  C     C_R   0.897906 0.187591 0.003235 -0.044720
C156  C     C_R   0.394421 0.313861 0.009457 -0.007314
H1    H     H_    0.794148 0.000113 0.423266 0.184542
H2    H     H_    0.097926 0.018152 0.486812 0.175825
H3    H     H_    0.365584 0.300505 0.715527 0.150451
H4    H     H_    0.967641 0.268631 0.160057 0.211890
H5    H     H_    0.758452 0.828668 0.031147 0.211714
H6    H     H_    0.467663 0.768647 0.160048 0.212075
H7    H     H_    0.258331 0.328593 0.030888 0.211664
H8    H     H_    0.827464 0.290720 0.184638 0.231268
H9    H     H_    0.615447 0.752278 0.889111 0.158460
H10   H     H_    0.327497 0.790727 0.184659 0.231279
H11   H     H_    0.115532 0.252080 0.889061 0.158459
H12   H     H_    0.385040 0.841629 0.158551 0.193100
H13   H     H_    0.527047 0.574946 0.443548 0.214476
H14   H     H_    0.165408 0.265130 0.029280 0.241100
H15   H     H_    0.885035 0.341622 0.158564 0.193091
H16   H     H_    0.665349 0.765270 0.029360 0.240876
H17   H     H_    0.420055 0.803949 0.982444 0.177785
H18   H     H_    0.386808 0.276318 0.178393 0.176403
H19   H     H_    0.920063 0.303937 0.982460 0.177779
H20   H     H_    0.886901 0.776313 0.178449 0.176307
H21   H     H_    0.431782 0.924161 0.435660 0.193561
H22   H     H_    0.373537 0.081957 0.510881 0.192424
H23   H     H_    0.931737 0.424171 0.435634 0.193574
H24   H     H_    0.597918 0.518165 0.486799 0.175821
H25   H     H_    0.873480 0.581955 0.510872 0.192440
H26   H     H_    0.638893 0.029769 0.405235 0.123550
H27   H     H_    0.693796 0.016694 0.547472 0.152741
H28   H     H_    0.655835 0.084180 0.492546 0.144663
H29   H     H_    0.584931 0.178206 0.557132 0.153332
H30   H     H_    0.476718 0.160868 0.533859 0.114929
H31   H     H_    0.507530 0.136949 0.445245 0.179504
H32   H     H_    0.193753 0.516582 0.547334 0.152997
H33   H     H_    0.155930 0.584160 0.492875 0.144887
H34   H     H_    0.138814 0.529912 0.405162 0.123587
H35   H     H_    0.229791 0.848252 0.858052 0.151227
H36   H     H_    0.084860 0.678210 0.557073 0.153354
H37   H     H_    0.976657 0.660872 0.533821 0.114961
H38   H     H_    0.007462 0.636938 0.445208 0.179518
H39   H     H_    0.603606 0.861001 0.582484 0.179601
H40   H     H_    0.681038 0.856712 0.731001 0.104844
H41   H     H_    0.703934 0.826740 0.640253 0.119010
H42   H     H_    0.774763 0.029011 0.938324 0.069177
H43   H     H_    0.658443 0.053747 0.884713 0.202162
H44   H     H_    0.753671 0.097325 0.957148 0.131929
H45   H     H_    0.103587 0.361006 0.582487 0.179620
H46   H     H_    0.359546 0.158349 0.140875 0.174430
H47   H     H_    0.181035 0.356725 0.731002 0.104896
H48   H     H_    0.203913 0.326748 0.640237 0.118980
H49   H     H_    0.274745 0.529019 0.938297 0.069135
H50   H     H_    0.158432 0.553767 0.884689 0.202163
H51   H     H_    0.253669 0.597334 0.957124 0.131892
H52   H     H_    0.523780 0.959228 0.325474 0.156071
H53   H     H_    0.507837 0.890745 0.357944 0.141395
H54   H     H_    0.617887 0.911299 0.389910 0.174911
H55   H     H_    0.494842 0.117374 0.780790 0.140269
H56   H     H_    0.431605 0.133688 0.641468 0.057011
H57   H     H_    0.729813 0.348266 0.858062 0.151237
H58   H     H_    0.553233 0.149922 0.731500 0.209253
H59   H     H_    0.023770 0.459261 0.325480 0.156115
H60   H     H_    0.007783 0.390773 0.357881 0.141380
H61   H     H_    0.117857 0.411317 0.389908 0.174898
H62   H     H_    0.994771 0.617375 0.780755 0.140245
H63   H     H_    0.931588 0.633706 0.641443 0.057017
H64   H     H_    0.053218 0.649923 0.731538 0.209261
H65   H     H_    0.360705 0.874452 0.477692 0.179646
H66   H     H_    0.242710 0.893190 0.438466 0.170574
H67   H     H_    0.312350 0.846394 0.541379 0.173945
H68   H     H_    0.859291 0.658386 0.140770 0.174439
H69   H     H_    0.278588 0.990771 0.640809 0.164108
H70   H     H_    0.248289 0.017883 0.511703 0.103764
H71   H     H_    0.290886 0.062057 0.624606 0.120966
H72   H     H_    0.860723 0.374450 0.477727 0.179649
H73   H     H_    0.742724 0.393174 0.438494 0.170572
H74   H     H_    0.812375 0.346383 0.541415 0.173950
H75   H     H_    0.778598 0.490748 0.640867 0.164117
H76   H     H_    0.748274 0.517876 0.511760 0.103692
H77   H     H_    0.790880 0.562037 0.624680 0.120999
H78   H     H_    0.469745 0.826872 0.637105 0.148294
H79   H     H_    0.894545 0.222698 0.171518 0.169793
H80   H     H_    0.471354 0.875024 0.728757 0.215082
H81   H     H_    0.573195 0.840932 0.760590 0.115039
H82   H     H_    0.669607 0.921169 0.830749 0.104441
H83   H     H_    0.604324 0.907171 0.885876 0.135102
H84   H     H_    0.670747 0.965875 0.923817 0.128739
H85   H     H_    0.969782 0.326871 0.637177 0.148291
H86   H     H_    0.971367 0.375031 0.728797 0.215081
H87   H     H_    0.073229 0.340956 0.760660 0.115059
H88   H     H_    0.169617 0.421191 0.830768 0.104459
H89   H     H_    0.104343 0.407191 0.885907 0.135070
H90   H     H_    0.711556 0.814114 0.893128 0.153064
H91   H     H_    0.170748 0.465899 0.923830 0.128733
H92   H     H_    0.979527 0.088211 0.267379 0.147808
H93   H     H_    0.961675 0.912171 0.245905 0.169810
H94   H     H_    0.479508 0.588213 0.267356 0.147798
H95   H     H_    0.461673 0.412171 0.245904 0.169815
H96   H     H_    0.271157 0.913160 0.321628 0.180250
H97   H     H_    0.247400 0.082139 0.342274 0.084015
H98   H     H_    0.771144 0.413153 0.321633 0.180282
H99   H     H_    0.746950 0.582028 0.342442 0.084018
H100  H     H_    0.080383 0.871185 0.831026 0.152895
H101  H     H_    0.394597 0.722702 0.171536 0.169756
H102  H     H_    0.059588 0.143152 0.823635 0.108658
H103  H     H_    0.580389 0.371199 0.831025 0.152935
H104  H     H_    0.559346 0.643296 0.823582 0.108666
H105  H     H_    0.190899 0.212780 0.289029 0.175089
H106  H     H_    0.267296 0.162451 0.297443 0.131442
H107  H     H_    0.146929 0.145385 0.249932 0.160790
H108  H     H_    0.138662 0.789169 0.156611 0.154789
H109  H     H_    0.145586 0.846605 0.237567 0.172556
H110  H     H_    0.232412 0.794202 0.297741 0.174514
H111  H     H_    0.694054 0.713036 0.290546 0.174779
H112  H     H_    0.883653 0.917790 0.494488 0.174574
H113  H     H_    0.211539 0.313928 0.892934 0.153194
H114  H     H_    0.768158 0.661755 0.296617 0.130723
H115  H     H_    0.647846 0.646030 0.251399 0.161097
H116  H     H_    0.638713 0.289159 0.156616 0.154787
H117  H     H_    0.645589 0.346589 0.237552 0.172574
H118  H     H_    0.732449 0.294207 0.297748 0.174526
H119  H     H_    0.899703 0.135574 0.435836 0.164951
H120  H     H_    0.774232 0.126175 0.334637 0.148967
H121  H     H_    0.839871 0.167424 0.305235 0.188502
H122  H     H_    0.123302 0.936027 0.575063 0.149903
H123  H     H_    0.136191 0.938190 0.463502 0.179967
H124  H     H_    0.329482 0.871651 0.978113 0.177421
H125  H     H_    0.151310 0.876563 0.534577 0.192096
H126  H     H_    0.399666 0.635574 0.435800 0.164951
H127  H     H_    0.274199 0.626159 0.334613 0.148968
H128  H     H_    0.339817 0.667413 0.305189 0.188512
H129  H     H_    0.623316 0.436045 0.575069 0.149891
H130  H     H_    0.636208 0.438204 0.463510 0.179971
H131  H     H_    0.651337 0.376580 0.534599 0.192112
H132  H     H_    0.311826 0.206377 0.182945 0.198959
H133  H     H_    0.829509 0.371651 0.978137 0.177415
H134  H     H_    0.811681 0.706493 0.182863 0.198856
H135  H     H_    0.406564 0.980062 0.347053 0.222319
H136  H     H_    0.413093 0.074139 0.429393 0.225610
H137  H     H_    0.906517 0.480086 0.347055 0.222329
H138  H     H_    0.913010 0.574140 0.429365 0.225536
H139  H     H_    0.946403 0.087635 0.671165 0.088396
H140  H     H_    0.294151 0.500106 0.423274 0.184551
H141  H     H_    0.945388 0.911850 0.676508 0.088344
H142  H     H_    0.446415 0.587637 0.671174 0.088379
H143  H     H_    0.445388 0.411851 0.676507 0.088365
H144  H     H_    0.988573 0.836563 0.180423 0.134594
H145  H     H_    0.991063 0.164171 0.176087 0.140639
H146  H     H_    0.488576 0.336562 0.180425 0.134594
H147  H     H_    0.491195 0.664192 0.176092 0.140839
H148  H     H_    0.694696 0.071247 0.157137 0.163489
H149  H     H_    0.681386 0.047311 0.262300 0.098756
H150  H     H_    0.635962 0.008914 0.141652 0.161931
H151  H     H_    0.383675 0.417788 0.494501 0.174566
H152  H     H_    0.883493 0.840654 0.410259 0.119156
H153  H     H_    0.889539 0.837321 0.294795 0.150161
H154  H     H_    0.779953 0.843921 0.274186 0.151417
H155  H     H_    0.194675 0.571223 0.157127 0.163499
H156  H     H_    0.181373 0.547287 0.262297 0.098757
H157  H     H_    0.135958 0.508885 0.141657 0.161919
H158  H     H_    0.383530 0.340650 0.410291 0.119164
H159  H     H_    0.389589 0.337316 0.294837 0.150122
H160  H     H_    0.279996 0.343905 0.274213 0.151477
H161  H     H_    0.028992 0.072684 0.589756 0.165666
H162  H     H_    0.841194 0.064819 0.470728 0.155483
H163  H     H_    0.094074 0.010580 0.635537 0.162142
H164  H     H_    0.528976 0.572693 0.589737 0.165647
H165  H     H_    0.594075 0.510595 0.635531 0.162142
H166  H     H_    0.660619 0.277824 0.776688 0.136840
H167  H     H_    0.703665 0.232507 0.723600 0.124137
H168  H     H_    0.591028 0.225716 0.692736 0.113924
H169  H     H_    0.942976 0.654626 0.068993 0.183670
H170  H     H_    0.014524 0.710527 0.076189 0.102616
H171  H     H_    0.002462 0.648747 0.007947 0.142705
H172  H     H_    0.160582 0.777811 0.776700 0.136834
H173  H     H_    0.006176 0.916513 0.578206 0.165310
H174  H     H_    0.203679 0.732515 0.723634 0.124117
H175  H     H_    0.091044 0.725691 0.692748 0.113920
H176  H     H_    0.443309 0.154650 0.069309 0.183667
H177  H     H_    0.514746 0.210609 0.076446 0.102698
H178  H     H_    0.502895 0.148808 0.008381 0.142706
H179  H     H_    0.754126 0.183563 0.004136 -0.011249
H180  H     H_    0.771520 0.742235 0.843772 0.065566
H181  H     H_    0.254173 0.683555 0.004169 -0.011300
H182  H     H_    0.271759 0.242116 0.843846 0.065677
H183  H     H_    0.695597 0.247499 0.043586 -0.019560
H184  H     H_    0.341189 0.564814 0.470724 0.155489
H185  H     H_    0.682839 0.681891 0.837504 -0.062662
H186  H     H_    0.195648 0.747484 0.043639 -0.019490
H187  H     H_    0.183126 0.181735 0.837607 -0.062641
H188  H     H_    0.032575 0.737197 0.940906 0.187628
H189  H     H_    0.081437 0.684727 0.905281 0.133820
H190  H     H_    0.980952 0.722451 0.800393 0.170291
H191  H     H_    0.294709 0.057722 0.869301 0.159733
H192  H     H_    0.271234 0.120617 0.795343 0.148970
H193  H     H_    0.181783 0.088057 0.801635 0.119716
H194  H     H_    0.532517 0.237238 0.940801 0.187831
H195  H     H_    0.506198 0.416519 0.578220 0.165317
H196  H     H_    0.581387 0.184757 0.905207 0.133823
H197  H     H_    0.480922 0.222490 0.800289 0.170214
H198  H     H_    0.794192 0.557813 0.868978 0.159713
H199  H     H_    0.770791 0.620725 0.795088 0.149001
H200  H     H_    0.681319 0.588213 0.801399 0.119768
H201  H     H_    0.325030 0.779717 0.857230 0.182322
H202  H     H_    0.456099 0.230367 0.166688 0.146968
H203  H     H_    0.825032 0.279716 0.857235 0.182341
H204  H     H_    0.955989 0.730299 0.166539 0.146986
H205  H     H_    0.854279 0.117156 0.734707 0.153894
H206  H     H_    0.027067 0.074939 0.443569 0.214471
H207  H     H_    0.809923 0.180526 0.666725 0.147604
H208  H     H_    0.745683 0.144958 0.704382 0.228918
H209  H     H_    0.960607 0.815505 0.850001 0.191971
H210  H     H_    0.883946 0.869751 0.757323 0.182097
H211  H     H_    0.865633 0.800474 0.715588 0.150450
H212  H     H_    0.354245 0.617147 0.734687 0.153881
H213  H     H_    0.309924 0.680522 0.666718 0.147591
H214  H     H_    0.245666 0.644975 0.704373 0.228916
H215  H     H_    0.460576 0.315535 0.849933 0.191966
H216  H     H_    0.383877 0.369780 0.757282 0.182204
N1    N     N_R   0.950530 0.896220 0.057200 -0.065266
N2    N     N_R   0.818150 0.028600 0.792440 -0.155031
N3    N     N_R   0.318150 0.471400 0.792440 -0.132942
N4    N     N_R   0.318150 0.528600 0.792440 -0.155021
N5    N     N_R   0.025710 0.028600 0.207560 -0.054155
N6    N     N_R   0.025710 0.971400 0.207560 -0.055139
N7    N     N_R   0.525710 0.528600 0.207560 -0.054086
N8    N     N_R   0.525710 0.471400 0.207560 -0.055163
N9    N     N_R   0.181850 0.971400 0.207560 -0.044071
N10   N     N_R   0.181850 0.028600 0.207560 -0.054068
N11   N     N_R   0.681850 0.471400 0.207560 -0.044105
N12   N     N_R   0.950530 0.103780 0.057200 -0.075271
N13   N     N_R   0.681850 0.528600 0.207560 -0.053956
N14   N     N_R   0.974290 0.028600 0.792440 -0.037025
N15   N     N_R   0.974290 0.971400 0.792440 -0.037696
N16   N     N_R   0.474290 0.528600 0.792440 -0.037024
N17   N     N_R   0.474290 0.471400 0.792440 -0.037702
N18   N     N_R   0.049470 0.896220 0.942800 -0.088199
N19   N     N_R   0.049470 0.103780 0.942800 -0.058637
N20   N     N_R   0.549470 0.396220 0.942800 -0.088205
N21   N     N_R   0.549470 0.603780 0.942800 -0.058771
N22   N     N_R   0.106670 0.103780 0.057200 -0.091449
N23   N     N_R   0.450530 0.396220 0.057200 -0.065275
N24   N     N_R   0.106670 0.896220 0.057200 -0.095094
N25   N     N_R   0.606670 0.603780 0.057200 -0.091268
N26   N     N_R   0.606670 0.396220 0.057200 -0.095098
N27   N     N_R   0.450530 0.603780 0.057200 -0.075278
N28   N     N_R   0.893330 0.103780 0.942800 -0.106592
N29   N     N_R   0.893330 0.896220 0.942800 -0.109729
N30   N     N_R   0.393330 0.603780 0.942800 -0.106653
N31   N     N_R   0.393330 0.396220 0.942800 -0.109728
N32   N     N_R   0.818150 0.971400 0.792440 -0.132935
Ni1   Ni    Ni4+2 0.065600 0.934400 0.131190 0.186911
Ni2   Ni    Ni4+2 0.065600 0.065600 0.131190 0.189086
Ni3   Ni    Ni4+2 0.565600 0.434400 0.131190 0.186914
Ni4   Ni    Ni4+2 0.565600 0.565600 0.131190 0.189461
Ni5   Ni    Ni4+2 0.934400 0.065600 0.868810 0.206672
Ni6   Ni    Ni4+2 0.934400 0.934400 0.868810 0.197552
Ni7   Ni    Ni4+2 0.434400 0.565600 0.868810 0.206654
Ni8   Ni    Ni4+2 0.434400 0.434400 0.868810 0.197505
O1    O     O_3   0.777400 0.004494 0.249728 -0.614503
O2    O     O_3   0.287915 0.125382 0.944010 -0.612309
O3    O     O_3   0.601881 0.266777 0.879878 -0.642938
O4    O     O_3   0.787552 0.625475 0.943802 -0.612338
O5    O     O_3   0.866965 0.182713 0.828829 -0.652642
O6    O     O_3   0.832230 0.819097 0.820154 -0.681717
O7    O     O_3   0.366975 0.682709 0.828823 -0.652620
O8    O     O_3   0.332214 0.319095 0.820149 -0.681789
O9    O     O_3   0.547657 0.031992 0.448741 -0.657206
O10   O     O_3   0.579369 0.098485 0.597196 -0.599303
O11   O     O_3   0.047631 0.531995 0.448744 -0.657144
O12   O     O_3   0.857825 0.914190 0.322098 -0.628754
O13   O     O_3   0.079318 0.598494 0.597181 -0.599265
O14   O     O_3   0.722867 0.909758 0.656512 -0.598356
O15   O     O_3   0.710147 0.082602 0.800022 -0.572475
O16   O     O_3   0.222842 0.409768 0.656485 -0.598411
O17   O     O_3   0.210138 0.582611 0.799995 -0.572457
O18   O     O_3   0.586964 0.940276 0.492955 -0.605305
O19   O     O_3   0.528440 0.068015 0.701264 -0.586221
O20   O     O_3   0.086906 0.440274 0.492939 -0.605341
O21   O     O_3   0.028407 0.568022 0.701258 -0.586236
O22   O     O_3   0.351567 0.925436 0.582291 -0.639554
O23   O     O_3   0.277397 0.504479 0.249731 -0.614498
O24   O     O_3   0.391034 0.012325 0.639185 -0.585668
O25   O     O_3   0.851565 0.425428 0.582319 -0.639565
O26   O     O_3   0.891024 0.512320 0.639215 -0.585669
O27   O     O_3   0.527344 0.901689 0.642371 -0.706032
O28   O     O_3   0.548101 0.968959 0.768845 -0.580735
O29   O     O_3   0.027345 0.401694 0.642398 -0.706021
O30   O     O_3   0.048100 0.468971 0.768860 -0.580736
O31   O     O_3   0.161513 0.189194 0.143598 -0.626233
O32   O     O_3   0.240283 0.848077 0.198531 -0.668295
O33   O     O_3   0.661342 0.689161 0.143658 -0.625912
O34   O     O_3   0.357846 0.414183 0.322114 -0.628812
O35   O     O_3   0.740297 0.348092 0.198534 -0.668290
O36   O     O_3   0.861961 0.085248 0.306148 -0.654126
O37   O     O_3   0.016706 0.900517 0.425555 -0.669145
O38   O     O_3   0.361936 0.585241 0.306127 -0.654133
O39   O     O_3   0.516730 0.400525 0.425567 -0.669152
O40   O     O_3   0.697698 0.197340 0.845380 -0.607803
O41   O     O_3   0.890659 0.700513 0.924550 -0.613474
O42   O     O_3   0.197715 0.697331 0.845405 -0.607780
O43   O     O_3   0.390966 0.200466 0.924790 -0.613610
O44   O     O_3   0.101896 0.766751 0.879936 -0.642894

loop_
_geom_bond_atom_site_label_1
_geom_bond_atom_site_label_2
_ccdc_geom_bond_type
N19   N22   A    
C32   O7    S    
N3    Ni8   S    
C5    C136  A    
N17   Ni8   S    
C50   H72   S    
C56   O31   S    
C74   C83   S    
C140  O21   S    
C63   O38   S    
C52   H78   S    
C153  H95   S    
C16   H143  S    
C135  H104  S    
C14   H141  S    
C44   H58   S    
C54   H86   S    
C30   H205  S    
N18   N24   A    
N20   Ni8   S    
C153  N8    A    
C13   C70   A    
C23   H174  S    
C20   H158  S    
C94   C111  S    
N5    Ni2   S    
C50   H73   S    
N1    N29   A    
C19   H155  S    
N28   Ni5   S    
C89   N31   A    
C74   O39   S    
C79   C90   S    
C109  H113  S    
C131  C140  S    
C128  H135  S    
C105  H20   S    
C81   H13   S    
C97   C115  S    
C117  C126  S    
C78   H195  S    
C93   C110  S    
C71   C82   S    
C75   H1    S    
C133  O15   S    
C122  H68   S    
C96   C114  S    
N32   Ni6   S    
C95   O42   S    
C53   H84   S    
C114  C156  S    
C2    O32   S    
C115  C123  S    
C66   C115  S    
C8    N9    A    
C87   O6    S    
C26   H188  S    
C109  H7    S    
C31   H211  S    
C142  O25   S    
C39   H39   S    
C22   H170  S    
C8    C35   A    
C121  H57   S    
C52   O27   S    
C3    C112  S    
C127  H9    S    
C51   O26   S    
C103  C114  S    
C137  O9    S    
C42   H51   S    
C37   O11   S    
C26   H189  S    
N31   Ni8   S    
C23   O42   S    
C29   H198  S    
C25   H177  S    
C6    C151  A    
C151  N6    A    
C20   O34   S    
N9    N10   A    
C71   O36   S    
C43   O18   S    
C142  C144  S    
C100  H185  S    
C96   H182  S    
C113  H102  S    
C105  H204  S    
C145  C148  S    
C26   O44   S    
C52   H80   S    
C92   H165  S    
C55   O30   S    
C14   C57   A    
C104  H203  S    
C147  C149  S    
C43   H52   S    
C9    H97   S    
C98   O2    S    
C81   H24   S    
C61   O36   S    
N3    N4    A    
C95   C97   S    
C40   H43   S    
C13   N25   A    
C32   H213  S    
C20   H160  S    
C129  H22   S    
N19   Ni5   S    
C38   H37   S    
C59   H111  S    
C51   H77   S    
N2    N32   A    
C56   H105  S    
C31   O6    S    
C107  C127  S    
C21   H168  S    
C77   H140  S    
C104  C110  S    
C48   H66   S    
C5    C147  S    
C16   N17   A    
C45   H59   S    
C14   N15   A    
C1    C154  A    
C43   H53   S    
C27   H193  S    
C124  N20   A    
C58   O32   S    
C7    C152  A    
C132  N32   A    
C33   O8    S    
C45   O20   S    
C72   O37   S    
C73   C77   S    
C11   C46   A    
C16   C65   A    
C138  C145  S    
C73   C83   S    
C28   O3    S    
C7    C83   S    
C102  N18   A    
C106  H79   S    
C120  H46   S    
C100  O4    S    
C1    H144  S    
C101  H17   S    
C122  H134  S    
C62   H125  S    
C133  N2    A    
C148  O28   S    
C103  H202  S    
C36   O10   S    
C31   H209  S    
C27   H192  S    
C4    C132  A    
N22   Ni2   S    
C101  C112  S    
C150  H92   S    
N23   N31   A    
C60   H118  S    
C142  C149  S    
C90   H163  S    
C21   H166  S    
C75   C84   S    
C50   O25   S    
C78   H151  S    
C94   H180  S    
C42   H49   S    
C118  C122  S    
C136  O17   S    
C101  H201  S    
C110  C155  S    
C87   N29   A    
C29   H200  S    
C30   H208  S    
C81   C92   S    
C92   H164  S    
C124  H103  S    
C23   H175  S    
N16   N17   A    
C42   O17   S    
C96   C98   S    
C17   H150  S    
C17   H148  S    
C130  C144  S    
C9    N10   A    
C2    N24   A    
C12   H139  S    
C37   H34   S    
C91   H147  S    
C137  O18   S    
C108  H101  S    
C84   C90   S    
C60   O35   S    
C47   H63   S    
C140  C147  S    
C81   C83   S    
C85   C92   S    
C63   H128  S    
C24   O35   S    
C18   H154  S    
C51   H75   S    
N6    Ni1   S    
C56   H107  S    
N13   Ni4   S    
C24   C68   A    
C46   C144  S    
C30   O5    S    
C103  H18   S    
C19   H157  S    
C116  C120  S    
C41   H48   S    
N26   Ni3   S    
C67   C116  S    
C99   C117  S    
C69   H145  S    
C44   O19   S    
C94   C100  S    
C34   H27   S    
C27   O2    S    
C109  C114  S    
C12   C57   A    
C78   C85   S    
C39   O14   S    
C115  C119  S    
C116  C125  S    
C76   H112  S    
C49   H71   S    
C118  C127  S    
C123  H12   S    
C49   H69   S    
C13   O33   S    
C28   H194  S    
C120  H132  S    
N7    Ni4   S    
C8    H96   S    
C18   O12   S    
C58   H108  S    
C3    C88   A    
C61   H121  S    
C152  N7    A    
C2    C66   A    
C90   H161  S    
C79   C82   S    
C47   H64   S    
C49   O24   S    
C54   H87   S    
C149  O30   S    
C21   H167  S    
C132  O14   S    
C70   C118  S    
C4    C145  S    
C11   N13   A    
C58   H109  S    
C61   H120  S    
C105  C122  S    
C50   H74   S    
N14   Ni5   S    
C102  H100  S    
C105  C111  S    
C41   O16   S    
C141  O22   S    
C93   H179  S    
C33   H3    S    
C134  N3    A    
C62   H123  S    
C128  H21   S    
C63   H126  S    
C64   H129  S    
C25   O43   S    
C107  H90   S    
C103  C120  S    
C76   C84   S    
C80   H146  S    
N7    N8    A    
C139  O11   S    
C137  C145  S    
C125  H11   S    
C95   C112  S    
C141  C143  S    
C59   O33   S    
C15   C65   A    
C19   O23   S    
C22   H171  S    
N16   Ni7   S    
N21   Ni7   S    
N2    Ni5   S    
C3    C91   A    
C36   H29   S    
C68   C117  S    
C33   H216  S    
C123  H10   S    
C107  H5    S    
C129  H136  S    
C11   H99   S    
C26   H190  S    
C88   O7    S    
C93   C99   S    
C28   H196  S    
C25   H176  S    
C93   O40   S    
C39   H41   S    
C47   O21   S    
C107  C111  S    
C79   H2    S    
C130  C139  S    
C152  H94   S    
C47   H62   S    
C73   O23   S    
C54   H85   S    
C18   H152  S    
C55   H88   S    
C119  H124  S    
C88   N30   A    
C89   C156  A    
C40   H44   S    
C32   H214  S    
N4    Ni7   S    
C108  C112  S    
C59   H114  S    
C28   H197  S    
C96   O43   S    
C56   H106  S    
C86   C155  A    
C140  O13   S    
N10   Ni2   S    
C141  O24   S    
C87   C154  A    
C125  H14   S    
N12   N28   A    
N9    Ni1   S    
N29   Ni6   S    
C64   H131  S    
N12   Ni2   S    
N8    Ni3   S    
C70   C135  A    
C100  C118  S    
C108  C123  S    
C41   H45   S    
C64   O39   S    
C75   H162  S    
C10   H98   S    
C15   N16   A    
C69   N12   A    
C27   H191  S    
C129  C143  S    
C53   H83   S    
C34   O9    S    
C17   O1    S    
C39   H40   S    
C106  C126  S    
C22   H169  S    
C36   H31   S    
C44   H55   S    
N14   N15   A    
C99   H183  S    
C73   O38   S    
C131  H25   S    
C97   O44   S    
C139  O20   S    
C106  H4    S    
C42   H50   S    
C71   O1    S    
C128  C143  S    
C29   H199  S    
C25   H178  S    
C6    C150  A    
C38   H38   S    
C146  O31   S    
C131  H138  S    
C150  N5    A    
C74   C78   S    
C17   H149  S    
C9    C35   A    
N1    Ni1   S    
C77   H184  S    
C131  C144  S    
C10   N11   A    
C35   C143  S    
C19   H156  S    
N27   N30   A    
C37   H33   S    
C6    C82   S    
C45   H61   S    
C66   C102  A    
C72   C76   S    
C68   C124  A    
C63   H127  S    
C151  H93   S    
C86   O5    S    
C1    N1    A    
C20   H159  S    
C130  H137  S    
C139  C147  S    
C69   C155  A    
C40   H42   S    
C142  O26   S    
C119  H35   S    
C37   H32   S    
C48   H65   S    
C95   H181  S    
C45   H60   S    
C38   O13   S    
C135  N21   A    
C43   H54   S    
C117  C121  S    
N20   N26   A    
C126  H15   S    
C141  C148  S    
N11   Ni3   S    
C23   H172  S    
C129  C138  S    
C15   H142  S    
C10   C46   A    
C34   H28   S    
C41   H47   S    
C80   N23   A    
C32   H212  S    
C91   N27   A    
C138  O10   S    
C94   O41   S    
C55   H91   S    
C148  O27   S    
C126  H8    S    
C31   H210  S    
C80   C156  A    
C104  H19   S    
C21   O40   S    
C5    C134  A    
C57   C84   S    
C60   H117  S    
N30   Ni7   S    
C101  C119  S    
C86   N28   A    
C113  N19   A    
C138  O19   S    
C104  C121  S    
C127  H16   S    
C108  H6    S    
C40   O15   S    
C44   H56   S    
C128  C137  S    
N11   N13   A    
C149  O29   S    
C99   O3    S    
C30   H207  S    
C22   O41   S    
C98   C116  S    
C7    C153  A    
C58   H110  S    
C67   C146  A    
C48   O22   S    
C61   H119  S    
C59   H115  S    
C60   H116  S    
N5    N6    A    
C12   N14   A    
C52   H81   S    
C109  C125  S    
N27   Ni4   S    
C38   H36   S    
C62   O37   S    
C79   H206  S    
C106  C110  S    
C64   H130  S    
N21   N25   A    
C76   H173  S    
C18   H153  S    
C74   O34   S    
C51   H76   S    
N15   Ni6   S    
C24   N26   A    
C54   O29   S    
C53   H82   S    
C98   H187  S    
C65   C85   S    
C48   H67   S    
C89   O8    S    
C121  H133  S    
C67   C113  A    
C134  O16   S    
C71   C75   S    
C72   O12   S    
N18   Ni6   S    
N23   Ni3   S    
C34   H26   S    
C29   O4    S    
C36   H30   S    
C97   H186  S    
C111  C154  S    
C33   H215  S    
C130  H23   S    
C77   C85   S    
C136  N4    A    
C55   H89   S    
C53   O28   S    
C146  N22   A    
C62   H122  S    
C49   H70   S    
N24   Ni1   S    
C72   C82   S    
N25   Ni4   S    
C4    C133  A    
