data_mof_unit_32921.cif
_audit_creation_date              2012-10-26T18:59:37-0400
_audit_creation_method            fapswitch 2.2
_symmetry_space_group_name_H-M    P1
_symmetry_Int_Tables_number       1
_space_group_crystal_system       triclinic
_cell_length_a                    23.516497
_cell_length_b                    10.814461
_cell_length_c                    9.584882
_cell_angle_alpha                 89.803444
_cell_angle_beta                  89.198211
_cell_angle_gamma                 90.553398
_cell_volume                      2437.24245788

loop_
_atom_site_label
_atom_site_type_symbol
_atom_type_description
_atom_site_fract_x
_atom_site_fract_y
_atom_site_fract_z
_atom_type_partial_charge
C1    C     C_R   0.497913 0.262296 0.499710 0.549233
C2    C     C_R   0.121461 0.592677 0.506049 0.410155
C3    C     C_R   0.240272 0.555458 0.389929 -0.081053
C4    C     C_R   0.391170 0.497927 0.499762 0.583877
C5    C     C_R   0.299732 0.565498 0.397027 0.187980
C6    C     C_R   0.328782 0.492128 0.494781 0.009979
C7    C     C_R   0.298237 0.406326 0.578236 0.170831
C8    C     C_R   0.238879 0.405946 0.578193 -0.077421
C9    C     C_R   0.209669 0.480547 0.484229 0.144987
C10   C     C_R   0.759981 0.446674 0.376286 -0.063528
C11   C     C_R   0.700677 0.446953 0.380412 -0.159568
C12   C     C_R   0.968320 0.266804 0.452641 -0.125234
C13   C     C_R   0.671479 0.496777 0.495632 -0.000371
C14   C     C_R   0.702588 0.545283 0.606829 -0.136429
C15   C     C_R   0.761772 0.542976 0.604021 -0.067903
C16   C     C_R   0.498641 0.737324 0.499963 0.564189
C17   C     C_R   0.790914 0.494227 0.488469 0.231875
C18   C     C_R   0.496280 0.063340 0.623357 -0.087712
C19   C     C_R   0.490633 0.128707 0.498812 -0.004693
C20   C     C_R   0.476277 0.063047 0.375947 0.227149
C21   C     C_R   0.478129 0.933149 0.378180 -0.168171
C22   C     C_R   0.491880 0.869791 0.500632 -0.031011
C23   C     C_R   0.027546 0.265212 0.450086 -0.131115
C24   C     C_R   0.497419 0.936037 0.623914 -0.001225
C25   C     C_3   0.543002 0.933967 0.732004 0.159906
C26   C     C_3   0.540774 0.075245 0.732487 -0.247921
C27   C     C_R   0.536176 0.576345 0.072513 0.077222
C28   C     C_R   0.608955 0.499013 0.498921 0.536859
C29   C     C_R   0.459606 0.438589 0.077552 0.016588
C30   C     C_R   0.456645 0.445980 0.929130 0.339783
C31   C     C_R   0.537653 0.571774 0.925719 0.108655
C32   C     C_3   0.601493 0.571281 0.924657 0.131525
C33   C     C_3   0.599456 0.583388 0.082854 -0.232446
C34   C     C_R   0.059014 0.374996 0.467613 0.031021
C35   C     C_R   0.881801 0.601812 0.498201 0.399231
C36   C     C_R   0.879637 0.382178 0.472467 0.400262
C37   C     C_R   0.939254 0.378570 0.470287 0.038854
C38   C     C_R   0.970351 0.489543 0.486325 -0.043806
C39   C     C_R   0.941466 0.602086 0.501139 -0.015147
C40   C     C_3   0.418103 0.089718 0.184304 0.011440
C41   C     C_3   0.431418 0.009937 0.055443 -0.269730
C42   C     C_3   0.395957 0.046051 0.929748 -0.479667
C43   C     C_3   0.624564 0.936161 0.577170 0.012665
C44   C     C_3   0.659425 0.840432 0.497612 -0.252294
C45   C     C_R   0.030392 0.487843 0.486591 -0.073173
C46   C     C_3   0.689377 0.897136 0.370111 -0.466395
C47   C     C_3   0.359108 0.458919 0.915362 0.044494
C48   C     C_3   0.318796 0.364500 0.985890 -0.253206
C49   C     C_3   0.259558 0.417555 0.008855 -0.464977
C50   C     C_3   0.607002 0.347959 0.924282 0.032896
C51   C     C_3   0.656505 0.267423 0.970238 -0.273491
C52   C     C_3   0.635870 0.148418 0.041629 -0.485247
C53   C     C_3   0.061739 0.861424 0.671428 0.029415
C54   C     C_3   0.103236 0.970387 0.684889 -0.233099
C55   C     C_3   0.107080 0.014676 0.835465 -0.485164
C56   C     C_R   0.061624 0.598707 0.504829 0.031351
C57   C     C_3   0.311376 0.760536 0.295886 -0.000084
C58   C     C_3   0.289340 0.789535 0.149911 -0.268209
C59   C     C_3   0.262252 0.917124 0.144026 -0.477172
C60   C     C_3   0.339054 0.215020 0.587724 0.030544
C61   C     C_3   0.295968 0.113076 0.625769 -0.272926
C62   C     C_3   0.312647 0.990446 0.560018 -0.487970
C63   C     C_R   0.032139 0.711488 0.521988 0.249068
C64   C     C_R   0.972634 0.712239 0.517455 -0.114279
C65   C     C_R   0.118595 0.374740 0.465561 0.395098
Cu1   Cu    Cu3+1 0.500000 0.499980 0.640670 1.017413
Cu2   Cu    Cu3+1 0.500000 0.500020 0.359330 0.958382
H1    H     H_    0.945438 0.180304 0.439569 0.168428
H2    H     H_    0.404675 0.981654 0.842278 0.143362
H3    H     H_    0.407158 0.141394 0.895083 0.197168
H4    H     H_    0.472325 0.882308 0.282610 0.141699
H5    H     H_    0.526730 0.892907 0.831448 0.118637
H6    H     H_    0.654189 0.006430 0.620575 0.142543
H7    H     H_    0.596127 0.981948 0.501716 0.140170
H8    H     H_    0.691822 0.801418 0.568053 0.180581
H9    H     H_    0.630886 0.764486 0.462735 0.176788
H10   H     H_    0.657653 0.933565 0.296031 0.139101
H11   H     H_    0.714827 0.825193 0.316226 0.170365
H12   H     H_    0.677753 0.406756 0.294459 0.111462
H13   H     H_    0.718329 0.973379 0.402072 0.174871
H14   H     H_    0.522532 0.113303 0.830551 0.108720
H15   H     H_    0.579348 0.125369 0.694573 0.119567
H16   H     H_    0.427999 0.386883 0.136409 0.136161
H17   H     H_    0.048538 0.177601 0.434368 0.163083
H18   H     H_    0.337538 0.502307 0.825844 0.187849
H19   H     H_    0.366853 0.537242 0.988731 0.102581
H20   H     H_    0.315292 0.279879 0.921346 0.204382
H21   H     H_    0.335706 0.337296 0.088715 0.126656
H22   H     H_    0.261843 0.500106 0.076944 0.162531
H23   H     H_    0.681360 0.588350 0.694085 0.167658
H24   H     H_    0.231682 0.347138 0.060473 0.158585
H25   H     H_    0.240578 0.443588 0.907562 0.151461
H26   H     H_    0.584607 0.301991 0.837608 0.166095
H27   H     H_    0.576150 0.354793 0.012188 0.135147
H28   H     H_    0.683305 0.243895 0.877807 0.178825
H29   H     H_    0.683185 0.320232 0.044535 0.167800
H30   H     H_    0.609221 0.169927 0.134922 0.170243
H31   H     H_    0.673076 0.094190 0.075707 0.154480
H32   H     H_    0.610851 0.091104 0.968539 0.155637
H33   H     H_    0.619127 0.655991 0.873623 0.143764
H34   H     H_    0.785047 0.580017 0.691409 0.141156
H35   H     H_    0.618500 0.504907 0.139009 0.159802
H36   H     H_    0.613950 0.675656 0.119751 0.093972
H37   H     H_    0.076021 0.785484 0.741547 0.145559
H38   H     H_    0.018519 0.891616 0.704831 0.120612
H39   H     H_    0.146220 0.942134 0.648081 0.205555
H40   H     H_    0.089006 0.048096 0.618311 0.183738
H41   H     H_    0.064748 0.045285 0.874002 0.159549
H42   H     H_    0.137344 0.093938 0.840952 0.151276
H43   H     H_    0.122627 0.939261 0.903614 0.152808
H44   H     H_    0.951071 0.799976 0.526639 0.169763
H45   H     H_    0.396661 0.175659 0.151818 0.143640
H46   H     H_    0.217380 0.607504 0.312587 0.139559
H47   H     H_    0.348451 0.822006 0.315951 0.140049
H48   H     H_    0.278453 0.783243 0.376518 0.141949
H49   H     H_    0.325143 0.785567 0.073132 0.160195
H50   H     H_    0.257008 0.719550 0.119800 0.158806
H51   H     H_    0.224640 0.920606 0.215285 0.178087
H52   H     H_    0.248165 0.936462 0.036082 0.143403
H53   H     H_    0.293213 0.989750 0.174656 0.133641
H54   H     H_    0.381770 0.184794 0.620768 0.169412
H55   H     H_    0.341604 0.228045 0.472008 0.110661
H56   H     H_    0.386900 0.041077 0.254457 0.089651
H57   H     H_    0.293612 0.101797 0.740963 0.158641
H58   H     H_    0.253190 0.138951 0.588384 0.185867
H59   H     H_    0.313138 0.999791 0.444739 0.134788
H60   H     H_    0.281156 0.917896 0.590929 0.159380
H61   H     H_    0.355383 0.961873 0.595280 0.144472
H62   H     H_    0.215513 0.346168 0.649973 0.145214
H63   H     H_    0.781899 0.409014 0.286114 0.138261
H64   H     H_    0.477157 0.018811 0.026475 0.176845
H65   H     H_    0.422609 0.911130 0.080223 0.130350
H66   H     H_    0.349945 0.040978 0.956534 0.137555
N1    N     N_R   0.852077 0.492758 0.485607 -0.392116
N2    N     N_R   0.148525 0.482310 0.485484 -0.396899
N3    N     N_R   0.500360 0.500930 0.147930 -0.265663
N4    N     N_R   0.500360 0.500890 0.852020 -0.231660
O1    O     O_R   0.500000 0.319640 0.618810 -0.497157
O2    O     O_R   0.582120 0.500020 0.618760 -0.460262
O3    O     O_R   0.582120 0.500060 0.381180 -0.524662
O4    O     O_2   0.853710 0.709827 0.506877 -0.512361
O5    O     O_3   0.469008 0.125926 0.250998 -0.556410
O6    O     O_3   0.594762 0.876377 0.688561 -0.570830
O7    O     O_3   0.409051 0.399313 0.863863 -0.525706
O8    O     O_3   0.629025 0.462735 0.874163 -0.565182
O9    O     O_3   0.061202 0.822981 0.530736 -0.526776
O10   O     O_3   0.330677 0.636938 0.301185 -0.565017
O11   O     O_3   0.326252 0.323879 0.662523 -0.563187
O12   O     O_2   0.849453 0.275814 0.463165 -0.508737
O13   O     O_2   0.146433 0.268041 0.442304 -0.533463
O14   O     O_2   0.152636 0.695772 0.529172 -0.489129
O15   O     O_R   0.500010 0.319680 0.381230 -0.459151
O16   O     O_R   0.417880 0.499940 0.618820 -0.448909
O17   O     O_R   0.417880 0.499980 0.381240 -0.479106
O18   O     O_R   0.499990 0.680320 0.618770 -0.491193
O19   O     O_R   0.500000 0.680360 0.381190 -0.508133

loop_
_geom_bond_atom_site_label_1
_geom_bond_atom_site_label_2
_ccdc_geom_bond_type
C43   H6    S    
C4    O17   A    
C59   H53   S    
C5    O10   S    
C40   O5    S    
C41   C42   S    
C43   O6    S    
C19   C20   A    
C28   O3    A    
C7    C8    A    
C57   H48   S    
C53   C54   S    
C27   C33   S    
C39   C64   A    
C12   H1    S    
C12   C23   A    
C29   C30   A    
C54   H40   S    
C21   H4    S    
C42   H66   S    
C18   C24   A    
C27   N3    A    
C47   H18   S    
C36   C37   A    
C29   H16   S    
C5    C6    A    
C36   O12   S    
C10   C17   A    
C52   H30   S    
C42   H3    S    
C30   O7    S    
C34   C65   A    
C1    O15   A    
C18   C19   A    
C62   H59   S    
C65   O13   S    
C44   H9    S    
C14   H23   S    
C38   C45   A    
Cu1   O2    S    
Cu1   O18   S    
C45   C56   A    
C8    C9    A    
C18   C26   S    
C16   O19   A    
C16   C22   S    
C48   H21   S    
C13   C28   S    
C48   H20   S    
C31   N4    A    
C63   O9    S    
C61   C62   S    
C51   H29   S    
C43   H7    S    
Cu1   Cu2   S    
C26   H15   S    
C30   N4    A    
C13   C14   A    
C55   H42   S    
C58   H49   S    
C25   O6    S    
C28   O2    A    
C49   H24   S    
C35   N1    A    
C44   C46   S    
C38   C39   A    
C1    C19   S    
C23   H17   S    
C54   H39   S    
C27   C31   A    
C51   C52   S    
C47   H19   S    
C20   O5    S    
C24   C25   S    
C4    C6    S    
C3    H46   S    
C41   H64   S    
C50   H27   S    
C64   H44   S    
C32   O8    S    
C25   C26   S    
C47   O7    S    
C58   H50   S    
C33   H35   S    
Cu2   O19   S    
C44   H8    S    
C35   C39   A    
C43   C44   S    
C10   H63   S    
C37   C38   A    
C3    C9    A    
C53   H38   S    
Cu1   O16   S    
Cu2   O17   S    
C47   C48   S    
Cu1   O1    S    
C23   C34   A    
C16   O18   A    
C50   C51   S    
C56   C63   A    
C34   C45   A    
C15   H34   S    
C60   H55   S    
Cu2   O3    S    
C65   N2    A    
C11   H12   S    
C35   O4    S    
C9    N2    S    
C50   O8    S    
C48   C49   S    
C26   H14   S    
C61   H57   S    
C55   H43   S    
C22   C24   A    
C62   H61   S    
C49   H25   S    
C17   N1    S    
C46   H11   S    
C7    O11   S    
C2    O14   S    
C15   C17   A    
C40   H56   S    
C54   C55   S    
C40   C41   S    
C59   H52   S    
Cu2   O15   S    
C33   H36   S    
C31   C32   S    
C49   H22   S    
C40   H45   S    
C3    C5    A    
C36   N1    A    
C41   H65   S    
C50   H26   S    
C6    C7    A    
C59   H51   S    
C46   H10   S    
C60   O11   S    
C52   H32   S    
C2    N2    A    
C55   H41   S    
C32   C33   S    
C57   O10   S    
Cu2   N3    S    
C58   C59   S    
C2    C56   A    
C46   H13   S    
C11   C13   A    
C57   C58   S    
C62   H60   S    
C57   H47   S    
C25   H5    S    
C52   H31   S    
C53   O9    S    
C4    O16   A    
C42   H2    S    
C60   H54   S    
C10   C11   A    
C63   C64   A    
C32   H33   S    
C29   N3    A    
C20   C21   A    
C12   C37   A    
C8    H62   S    
C14   C15   A    
C60   C61   S    
Cu1   N4    S    
C61   H58   S    
C53   H37   S    
C21   C22   A    
C1    O1    A    
C51   H28   S    
