data_mof_unit_55881.cif
_audit_creation_date              2013-03-05T15:57:42-0500
_audit_creation_method            fapswitch 2.2
_symmetry_space_group_name_H-M    P1
_symmetry_Int_Tables_number       1
_space_group_crystal_system       triclinic
_cell_length_a                    19.315593
_cell_length_b                    17.376518
_cell_length_c                    12.578116
_cell_angle_alpha                 91.852667
_cell_angle_beta                  99.340585
_cell_angle_gamma                 89.821724
_cell_volume                      4163.52781586

loop_
_atom_site_label
_atom_site_type_symbol
_atom_site_description
_atom_site_fract_x
_atom_site_fract_y
_atom_site_fract_z
_atom_type_partial_charge
O1    O     O_R   0.448200 0.076800 0.373930 -0.593693
O2    O     O_R   0.448200 0.923200 0.373930 -0.605623
O3    O     O_R   0.948200 0.576800 0.373930 -0.606756
O4    O     O_R   0.948200 0.423200 0.373930 -0.598457
O5    O     O_R   0.414750 0.076790 0.542400 -0.620097
O6    O     O_R   0.414750 0.923210 0.542400 -0.638624
O7    O     O_R   0.914750 0.576790 0.542400 -0.613703
O8    O     O_R   0.914750 0.423210 0.542400 -0.616899
C1    C     C_R   0.406855 0.099011 0.441746 0.866150
C2    C     C_R   0.411187 0.895709 0.442260 0.834947
C3    C     C_R   0.907845 0.600179 0.442347 0.863498
C4    C     C_R   0.911867 0.394627 0.443711 0.836230
Zn1   Zn    Zn3+2 0.522330 0.000000 0.387520 0.916220
Zn2   Zn    Zn3+2 0.022330 0.500000 0.387520 0.918463
Zn3   Zn    Zn3+2 0.477660 0.000000 0.612480 0.922806
Zn4   Zn    Zn3+2 0.977660 0.500000 0.612480 0.921503
O9    O     O_R   0.585240 0.923200 0.457600 -0.615467
O10   O     O_R   0.585240 0.076800 0.457600 -0.608690
O11   O     O_R   0.085240 0.423200 0.457600 -0.610521
O12   O     O_R   0.085240 0.576800 0.457600 -0.596562
O13   O     O_R   0.551780 0.923190 0.626070 -0.611619
O14   O     O_R   0.551780 0.076810 0.626070 -0.602695
O15   O     O_R   0.051780 0.423190 0.626070 -0.621506
O16   O     O_R   0.051780 0.576810 0.626070 -0.614315
C5    C     C_R   0.583884 0.892181 0.550556 0.876540
C6    C     C_R   0.595369 0.095855 0.560654 0.893849
C7    C     C_R   0.085767 0.393801 0.552503 0.873961
C8    C     C_R   0.090169 0.603039 0.557945 0.890352
C9    C     C_R   0.738404 0.211797 0.741487 0.228220
C10   C     C_R   0.650770 0.701155 0.665913 0.222563
C11   C     C_R   0.246593 0.694620 0.734241 0.231031
C12   C     C_R   0.172739 0.220777 0.692792 0.219251
C13   C     C_R   0.662026 0.135682 0.603194 -0.124272
C14   C     C_R   0.615168 0.815375 0.562983 -0.129940
C15   C     C_R   0.147208 0.658047 0.596561 -0.124295
C16   C     C_R   0.121233 0.320197 0.572083 -0.124570
C17   C     C_R   0.336039 0.813790 0.295823 0.221718
C18   C     C_R   0.351309 0.201708 0.318030 0.194186
C19   C     C_R   0.834093 0.311147 0.304290 0.204706
C20   C     C_R   0.862706 0.713604 0.332256 0.193898
C21   C     C_R   0.285841 0.755487 0.269610 -0.153445
C22   C     C_R   0.298278 0.255968 0.293098 -0.156972
C23   C     C_R   0.781488 0.255049 0.282015 -0.152596
C24   C     C_R   0.813507 0.772388 0.312042 -0.152964
C25   C     C_R   0.258414 0.719681 0.350390 -0.231785
C26   C     C_R   0.243807 0.261649 0.351982 -0.223464
C27   C     C_R   0.758765 0.216144 0.364703 -0.236804
C28   C     C_R   0.755384 0.775109 0.363378 -0.224292
C29   C     C_R   0.282357 0.739966 0.459344 0.102786
C30   C     C_R   0.237421 0.209268 0.433223 0.100477
C31   C     C_R   0.791589 0.227753 0.472504 0.106039
C32   C     C_R   0.741444 0.715638 0.430719 0.101289
C33   C     C_R   0.343878 0.782819 0.485340 -0.011966
C34   C     C_R   0.286831 0.149925 0.453608 -0.010930
C35   C     C_R   0.848174 0.279414 0.495894 -0.009546
C36   C     C_R   0.788011 0.653396 0.447194 -0.002534
C37   C     C_R   0.764812 0.194840 0.558939 -0.010763
C38   C     C_R   0.686413 0.721105 0.491723 -0.012540
C39   C     C_R   0.247467 0.717892 0.543285 -0.018810
C40   C     C_R   0.188330 0.220420 0.504043 -0.010540
C41   C     C_R   0.785415 0.223825 0.666284 0.074327
C42   C     C_R   0.684634 0.672603 0.579364 0.092599
C43   C     C_R   0.284548 0.717082 0.651841 0.064654
C44   C     C_R   0.197581 0.182802 0.603737 0.083253
C45   C     C_R   0.356526 0.740220 0.670683 0.182448
C46   C     C_R   0.232902 0.111121 0.606935 0.188699
C47   C     C_R   0.851789 0.261445 0.689515 0.182446
C48   C     C_R   0.718029 0.600080 0.573807 0.180112
C49   C     C_R   0.383594 0.776179 0.588422 -0.203214
C50   C     C_R   0.274803 0.094165 0.528034 -0.201606
C51   C     C_R   0.884108 0.283663 0.603067 -0.188748
C52   C     C_R   0.769086 0.591300 0.506337 -0.226684
C53   C     C_R   0.715544 0.135601 0.540479 0.144742
C54   C     C_R   0.636085 0.778131 0.472998 0.129098
C55   C     C_R   0.175476 0.699480 0.521679 0.159506
C56   C     C_R   0.135687 0.275146 0.484369 0.126639
C57   C     C_R   0.675417 0.170980 0.705906 -0.261214
C58   C     C_R   0.621562 0.775889 0.659505 -0.268983
C59   C     C_R   0.179541 0.663008 0.703893 -0.276250
C60   C     C_R   0.139108 0.292430 0.676300 -0.271346
C61   C     C_R   0.364882 0.829139 0.406284 -0.136598
C62   C     C_R   0.347073 0.149258 0.401789 -0.132688
C63   C     C_R   0.866398 0.326050 0.412998 -0.137859
C64   C     C_R   0.851535 0.654887 0.404240 -0.128162
H1    H     H_    0.713257 0.179314 0.343495 0.154642
H2    H     H_    0.723655 0.826345 0.353222 0.161937
H3    H     H_    0.218600 0.676036 0.327180 0.165890
H4    H     H_    0.209494 0.310474 0.336645 0.157344
H5    H     H_    0.265281 0.739985 0.186364 0.145766
H6    H     H_    0.300986 0.297532 0.231488 0.137771
H7    H     H_    0.754972 0.243947 0.200242 0.139339
H8    H     H_    0.821782 0.818960 0.260213 0.145231
C65   C     C_R   0.626043 0.068303 0.137758 -0.294714
C66   C     C_R   0.129996 0.435267 0.136892 -0.309860
H9    H     H_    0.650386 0.047827 0.305349 0.145694
H10   H     H_    0.154078 0.463720 0.305455 0.137938
H11   H     H_    0.672380 0.103284 0.137552 0.137621
H12   H     H_    0.180960 0.409774 0.133869 0.138447
N1    N     N_R   0.552340 0.000000 0.237260 -0.105133
N2    N     N_R   0.052340 0.500000 0.237260 -0.103822
C67   C     C_R   0.388219 0.957829 0.758210 0.040630
C68   C     C_R   0.880132 0.519944 0.762663 0.027741
C69   C     C_R   0.368442 0.930759 0.850940 -0.270771
C70   C     C_R   0.852071 0.521323 0.857802 -0.256134
C71   C     C_R   0.411520 0.945230 0.948276 -0.193576
C72   C     C_R   0.894149 0.502981 0.953675 -0.191818
C73   C     C_R   0.469908 0.994574 0.953542 -0.011871
C74   C     C_R   0.964646 0.482464 0.954455 -0.016456
C75   C     C_R   0.483102 0.027545 0.857621 0.206076
C76   C     C_R   0.990503 0.478153 0.855076 0.192453
C77   C     C_R   0.516141 0.011422 0.049171 -0.011070
C78   C     C_R   0.012704 0.472865 0.050718 -0.011685
C79   C     C_R   0.575458 0.058630 0.045892 0.139425
C80   C     C_R   0.078898 0.439027 0.044924 0.160421
C81   C     C_R   0.578816 0.101738 0.954695 -0.269065
C82   C     C_R   0.096709 0.419363 0.945098 -0.305035
C83   C     C_R   0.527600 0.091478 0.863220 0.177961
C84   C     C_R   0.062033 0.458506 0.857381 0.179391
C85   C     C_R   0.504294 0.986095 0.149118 -0.060263
C86   C     C_R   0.000355 0.501344 0.151328 -0.044683
C87   C     C_R   0.613967 0.036344 0.232798 0.006800
C88   C     C_R   0.115997 0.468155 0.232737 -0.004841
N3    N     N_R   0.448170 0.000000 0.762060 -0.127577
N4    N     N_R   0.948170 0.500000 0.762060 -0.122889
H13   H     H_    0.321766 0.895801 0.846452 0.152262
H14   H     H_    0.798100 0.537513 0.858145 0.145031
H15   H     H_    0.638254 0.164082 0.759691 0.177811
H16   H     H_    0.601593 0.801984 0.727828 0.173140
H17   H     H_    0.152222 0.644423 0.765251 0.172162
H18   H     H_    0.125394 0.325729 0.744110 0.175555
H19   H     H_    0.616278 0.148504 0.959177 0.148706
H20   H     H_    0.149295 0.398103 0.941843 0.155729
H21   H     H_    0.455105 0.962512 0.160968 0.128509
H22   H     H_    0.950301 0.524381 0.163788 0.122396
H23   H     H_    0.355461 0.943014 0.682972 0.153180
H24   H     H_    0.847314 0.534467 0.688674 0.158917
H25   H     H_    0.397629 0.917699 0.017200 0.146594
H26   H     H_    0.870503 0.504373 0.025846 0.141707
C89   C     C_3   0.500109 0.162039 0.803379 -0.866071
H27   H     H_    0.473589 0.147938 0.720461 0.283324
H28   H     H_    0.459975 0.189230 0.846339 0.222004
H29   H     H_    0.541202 0.206016 0.801984 0.219669
C90   C     C_3   0.108787 0.516876 0.821047 -0.810511
H30   H     H_    0.078884 0.571274 0.811778 0.239380
H31   H     H_    0.155076 0.531136 0.883698 0.202586
H32   H     H_    0.130535 0.496980 0.749057 0.258222
C91   C     C_3   0.407746 0.724561 0.771830 -0.896774
H33   H     H_    0.462832 0.735587 0.761255 0.234514
H34   H     H_    0.398077 0.762743 0.839937 0.251431
H35   H     H_    0.405462 0.662914 0.791255 0.242046
C92   C     C_3   0.222159 0.049196 0.683895 -0.916162
H36   H     H_    0.236319 0.991635 0.653111 0.225821
H37   H     H_    0.255489 0.059959 0.763352 0.252819
H38   H     H_    0.165923 0.045561 0.692030 0.247476
C93   C     C_3   0.892738 0.273732 0.801682 -0.888374
H39   H     H_    0.947756 0.291512 0.799994 0.233272
H40   H     H_    0.869458 0.320519 0.846126 0.252771
H41   H     H_    0.895735 0.219135 0.845493 0.241069
C94   C     C_3   0.694555 0.529348 0.624670 -0.930478
H42   H     H_    0.715665 0.475922 0.591084 0.241025
H43   H     H_    0.713008 0.530442 0.712312 0.237648
H44   H     H_    0.636465 0.524858 0.607720 0.251431
C95   C     C_3   0.747393 0.248644 0.853186 -0.928828
H45   H     H_    0.754019 0.311790 0.848791 0.247563
H46   H     H_    0.700481 0.240052 0.892148 0.224231
H47   H     H_    0.792007 0.222674 0.906500 0.247659
C96   C     C_3   0.652674 0.660191 0.770071 -0.918474
H48   H     H_    0.619783 0.607541 0.756721 0.248259
H49   H     H_    0.707671 0.646220 0.804540 0.240620
H50   H     H_    0.631358 0.696585 0.831387 0.236036
C97   C     C_3   0.272205 0.705485 0.853870 -0.926271
H51   H     H_    0.288369 0.766054 0.873423 0.236418
H52   H     H_    0.230167 0.693999 0.902038 0.230349
H53   H     H_    0.315022 0.664795 0.881625 0.248006
C98   C     C_3   0.189745 0.194374 0.807159 -0.907956
H54   H     H_    0.247024 0.184545 0.828900 0.244826
H55   H     H_    0.175324 0.238358 0.865819 0.230898
H56   H     H_    0.159739 0.141678 0.817467 0.248510
C99   C     C_3   0.739403 0.060122 0.494493 -0.899869
H57   H     H_    0.785891 0.039295 0.549976 0.241461
H58   H     H_    0.699433 0.013932 0.487937 0.253963
H59   H     H_    0.755804 0.066712 0.414924 0.226167
C100  C     C_3   0.593415 0.782874 0.360497 -0.839863
H60   H     H_    0.536516 0.783998 0.365502 0.238231
H61   H     H_    0.606758 0.834406 0.318190 0.250376
H62   H     H_    0.602457 0.731478 0.309667 0.228214
C101  C     C_3   0.124862 0.737560 0.433732 -0.903892
H63   H     H_    0.077342 0.756858 0.466290 0.227039
H64   H     H_    0.147727 0.790303 0.405815 0.248918
H65   H     H_    0.108450 0.697295 0.364059 0.253015
C102  C     C_3   0.086118 0.272154 0.377255 -0.854119
H66   H     H_    0.030930 0.271037 0.391841 0.233909
H67   H     H_    0.093059 0.321847 0.327118 0.254088
H68   H     H_    0.094422 0.218929 0.329611 0.233759
C103  C     C_3   0.357294 0.856828 0.204579 -0.925912
H69   H     H_    0.326521 0.838424 0.125444 0.223834
H70   H     H_    0.348021 0.919412 0.216043 0.245930
H71   H     H_    0.413300 0.844854 0.200747 0.249032
C104  C     C_3   0.412566 0.204431 0.257122 -0.858447
H72   H     H_    0.407788 0.252388 0.200078 0.218244
H73   H     H_    0.462289 0.213508 0.314249 0.246407
H74   H     H_    0.415017 0.150248 0.208619 0.257664
C105  C     C_3   0.851734 0.355855 0.211157 -0.890388
H75   H     H_    0.819493 0.337167 0.133313 0.225614
H76   H     H_    0.841591 0.418137 0.223933 0.239288
H77   H     H_    0.907548 0.346593 0.202960 0.259732
C106  C     C_3   0.927476 0.717671 0.279688 -0.878101
H78   H     H_    0.928747 0.770652 0.232909 0.225326
H79   H     H_    0.975061 0.718202 0.342069 0.244322
H80   H     H_    0.928782 0.667798 0.222675 0.250722
H81   H     H_    0.437496 0.796094 0.603679 0.173388
H82   H     H_    0.299488 0.038244 0.527548 0.171964
H83   H     H_    0.936844 0.306683 0.620558 0.179060
H84   H     H_    0.794490 0.536010 0.501149 0.164383

loop_
_geom_bond_atom_site_label_1
_geom_bond_atom_site_label_2
_geom_bond_distance
_ccdc_geom_bond_type
C38   C42   1.413943 A    
C90   H32   1.103736 S    
C21   H5    1.083560 S    
C105  H75   1.111189 S    
C43   C45   1.428664 A    
C103  H70   1.110189 S    
C19   C105  1.510622 S    
C93   H40   1.107065 S    
C50   H82   1.081338 S    
C9    C95   1.509091 S    
C52   H84   1.082344 S    
C91   H33   1.111489 S    
O10   C6    1.310893 A    
C19   C63   1.423795 A    
C97   H51   1.107275 S    
C58   H16   1.083619 S    
C76   C84   1.418110 A    
C70   C72   1.386168 A    
C66   C80   1.396591 A    
C75   C83   1.399685 A    
C96   H49   1.109545 S    
C81   H19   1.083797 S    
O7    C3    1.320979 A    
C97   H52   1.111189 S    
C15   C55   1.384493 A    
C67   N3    1.365658 A    
Zn3   N3    2.052350 S    
Zn1   O10   1.902852 S    
C85   H21   1.070134 S    
C17   C103  1.501795 S    
C77   C85   1.398666 A    
C25   H3    1.080869 S    
C65   C87   1.387841 A    
C10   C96   1.506295 S    
C18   C22   1.394781 A    
C100  H61   1.108242 S    
C89   H29   1.106096 S    
C45   C49   1.397790 A    
C72   H26   1.079977 S    
C12   C60   1.408250 A    
C66   H12   1.084009 S    
C90   H30   1.105713 S    
C59   H17   1.061947 S    
C5    C14   1.465812 S    
C33   C61   1.409248 A    
C22   C26   1.383062 A    
C92   H38   1.109624 S    
C37   C53   1.392130 A    
C37   C41   1.420541 A    
O2    Zn1   1.943730 S    
C20   C64   1.425446 A    
C101  H65   1.108881 S    
C16   C56   1.396696 A    
C76   N4    1.377599 A    
O6    Zn3   1.902734 S    
C69   C71   1.380296 A    
Zn3   O14   1.943707 S    
C27   C31   1.409001 A    
C94   H42   1.111213 S    
C8    C15   1.471810 S    
C82   C84   1.390820 A    
C81   C83   1.397364 A    
C82   H20   1.086295 S    
C106  H80   1.109718 S    
C92   H36   1.110319 S    
C94   H43   1.101712 S    
C31   C37   1.414627 A    
O15   C7    1.308641 A    
O4    C4    1.318969 A    
C48   C94   1.507977 S    
O11   C7    1.312042 A    
C20   C24   1.394053 A    
C86   H22   1.078083 S    
C24   H8    1.083589 S    
O8    C4    1.314741 A    
C1    C62   1.477180 S    
N1    C87   1.359258 A    
C99   H59   1.107103 S    
H9    C87   1.071522 S    
C20   C106  1.509794 S    
C33   C49   1.403277 A    
C104  H72   1.111048 S    
O8    Zn4   1.902734 S    
C18   C62   1.427510 A    
C93   H41   1.109139 S    
O4    Zn2   1.943730 S    
C73   C75   1.412172 A    
C17   C61   1.427453 A    
C83   C89   1.509217 S    
C39   C55   1.408677 A    
C68   N4    1.359234 A    
C11   C59   1.398293 A    
C78   C80   1.417251 A    
C12   C98   1.508671 S    
C36   C64   1.419300 A    
C96   H50   1.110930 S    
C26   H4    1.077904 S    
C67   H23   1.073822 S    
C97   H53   1.106527 S    
C9    C41   1.433791 A    
C60   H18   1.083004 S    
C106  H78   1.110949 S    
Zn2   O12   1.902852 S    
C105  H77   1.110278 S    
C95   H47   1.107023 S    
O1    C1    1.308520 A    
C12   C44   1.430069 A    
N2    C88   1.355629 A    
C98   H55   1.111337 S    
C84   C90   1.490905 S    
C16   C60   1.401187 A    
C100  H62   1.111394 S    
C96   H48   1.108095 S    
C78   C86   1.400002 A    
C98   H56   1.107501 S    
C75   N3    1.353020 A    
C19   C23   1.399018 A    
C54   C100  1.522165 S    
O12   C8    1.316825 A    
C31   C35   1.404148 A    
C36   C52   1.412057 A    
C51   H83   1.081716 S    
N1    C85   1.341212 A    
C40   C56   1.388167 A    
C23   H7    1.083628 S    
C74   C78   1.415202 A    
C4    C63   1.485652 S    
C22   H6    1.083744 S    
C10   C58   1.413727 A    
Zn1   N1    2.064870 S    
O1    Zn1   1.945201 S    
Zn4   O16   1.943707 S    
C100  H60   1.111081 S    
C102  H67   1.106632 S    
O5    C1    1.320522 A    
C11   C43   1.427793 A    
C71   C73   1.410536 A    
C104  H74   1.110338 S    
C105  H76   1.110456 S    
C41   C47   1.423942 A    
C6    C13   1.476790 S    
C98   H54   1.109811 S    
C34   C50   1.414131 A    
C25   C29   1.407222 A    
C48   C52   1.406563 A    
C91   H35   1.108974 S    
C94   H44   1.110109 S    
C70   H14   1.079582 S    
C77   C79   1.417990 A    
C65   C79   1.392873 A    
C68   C70   1.391018 A    
O3    Zn2   1.945201 S    
C32   C38   1.409627 A    
C14   C54   1.400921 A    
C49   H81   1.083360 S    
C66   C88   1.383242 A    
C13   C53   1.398387 A    
O7    Zn4   1.937089 S    
Zn4   O15   1.945179 S    
C10   C42   1.432942 A    
C7    C16   1.458035 S    
C28   H2    1.078480 S    
C45   C91   1.511146 S    
C35   C63   1.429463 A    
C101  H64   1.109937 S    
O2    C2    1.306178 A    
C65   H11   1.083874 S    
C34   C62   1.422869 A    
C38   C54   1.384635 A    
C72   C74   1.405073 A    
C104  H73   1.110506 S    
C102  H66   1.110956 S    
C90   H31   1.114384 S    
O13   C5    1.316451 A    
C91   H34   1.106064 S    
C73   C77   1.400060 A    
Zn2   O11   1.937210 S    
C55   C101  1.519725 S    
O16   C8    1.313544 A    
C27   H1    1.081545 S    
O6    C2    1.323919 A    
C80   C82   1.386883 A    
C89   H27   1.105002 S    
Zn2   N2    2.064870 S    
C47   C93   1.510312 S    
Zn1   O9    1.937210 S    
C3    C64   1.473165 S    
C103  H69   1.111263 S    
C26   C30   1.410530 A    
C2    C61   1.477852 S    
C39   C43   1.435732 A    
C29   C39   1.405272 A    
H10   C88   1.081382 S    
C40   C44   1.418145 A    
C30   C40   1.411405 A    
C103  H71   1.109400 S    
Zn4   N4    2.052350 S    
C102  H68   1.111164 S    
O9    C5    1.307304 A    
C46   C92   1.507285 S    
C30   C34   1.404089 A    
C56   C102  1.520419 S    
C14   C58   1.401650 A    
C89   H28   1.110564 S    
C13   C57   1.397654 A    
C46   C50   1.402531 A    
Zn3   O13   1.945179 S    
C11   C97   1.511654 S    
C29   C33   1.391803 A    
C15   C59   1.392548 A    
C74   C76   1.419134 A    
C47   C51   1.403593 A    
C42   C48   1.418786 A    
C92   H37   1.108190 S    
C17   C21   1.398545 A    
N2    C86   1.351398 A    
C69   H13   1.081535 S    
C68   H24   1.074384 S    
O5    Zn3   1.937089 S    
C95   H45   1.109279 S    
O3    C3    1.306280 A    
C57   H15   1.072723 S    
C71   H25   1.074954 S    
C99   H57   1.111394 S    
C53   C99   1.516866 S    
C32   C36   1.403457 A    
C28   C32   1.410749 A    
C9    C57   1.411261 A    
C67   C69   1.381598 A    
O14   C6    1.318956 A    
C93   H39   1.111320 S    
C106  H79   1.107264 S    
C21   C25   1.384840 A    
C18   C104  1.511984 S    
C95   H46   1.110507 S    
C101  H63   1.110796 S    
C79   C81   1.400407 A    
C23   C27   1.388121 A    
C35   C51   1.412289 A    
C24   C28   1.382982 A    
C44   C46   1.416884 A    
C99   H58   1.107226 S    
