data_mof_unit_16738.cif
_audit_creation_date              2012-10-26T19:08:20-0400
_audit_creation_method            fapswitch 2.2
_symmetry_space_group_name_H-M    P1
_symmetry_Int_Tables_number       1
_space_group_crystal_system       triclinic
_cell_length_a                    14.666971
_cell_length_b                    14.606133
_cell_length_c                    19.301214
_cell_angle_alpha                 76.991968
_cell_angle_beta                  102.488861
_cell_angle_gamma                 114.670841
_cell_volume                      3625.91536635

loop_
_atom_site_label
_atom_site_type_symbol
_atom_type_description
_atom_site_fract_x
_atom_site_fract_y
_atom_site_fract_z
_atom_type_partial_charge
Br1   Br    Br    0.511342 0.692412 0.287779 -0.344255
Br2   Br    Br    0.435697 0.216340 0.654314 -0.403255
Br3   Br    Br    0.748933 0.810665 0.333242 -0.341699
Br4   Br    Br    0.295415 0.274838 0.727428 -0.415380
Br5   Br    Br    0.853125 0.598702 0.820989 -0.409707
Br6   Br    Br    0.095893 0.344206 0.182291 -0.470888
Br7   Br    Br    0.650420 0.783431 0.542044 -0.417510
Br8   Br    Br    0.349420 0.217915 0.448141 -0.514001
C1    C     C_R   0.880297 0.311843 0.514984 0.554794
C2    C     C_R   0.290541 0.823571 0.494602 -0.183801
C3    C     C_R   0.639534 0.075754 0.515858 -0.047959
C4    C     C_R   0.360158 0.924507 0.482480 -0.045728
C5    C     C_R   0.677299 0.997049 0.540129 0.014525
C6    C     C_R   0.322395 0.002936 0.456444 0.020114
C7    C     C_R   0.533457 0.051578 0.499052 0.016445
C8    C     C_R   0.466175 0.948814 0.499025 0.015297
C9    C     C_R   0.506841 0.873391 0.511919 -0.089475
C10   C     C_R   0.492531 0.127018 0.484957 -0.084741
C11   C     C_R   0.609779 0.895681 0.533112 0.188158
C12   C     C_R   0.119703 0.688127 0.484832 0.565020
C13   C     C_R   0.389839 0.104654 0.462170 0.200119
C14   C     C_R   0.718951 0.675429 0.386197 0.174454
C15   C     C_R   0.290691 0.343992 0.630001 0.175382
C16   C     C_R   0.998742 0.498957 0.632536 0.539396
C17   C     C_R   0.999914 0.499001 0.367652 0.546862
C18   C     C_R   0.801402 0.646558 0.406461 0.082271
C19   C     C_R   0.207181 0.370606 0.606365 0.097671
C20   C     C_R   0.711489 0.504554 0.485997 0.081160
C21   C     C_R   0.283830 0.484928 0.508329 0.052658
C22   C     C_R   0.626655 0.532390 0.471609 -0.026065
C23   C     C_R   0.812512 0.203310 0.528814 -0.046378
C24   C     C_R   0.367979 0.455117 0.525008 -0.039217
C25   C     C_R   0.626332 0.612035 0.413631 0.012828
C26   C     C_R   0.370866 0.382385 0.587500 0.044914
C27   C     C_R   0.541228 0.480702 0.510640 -0.000648
C28   C     C_R   0.450179 0.497858 0.483094 -0.031110
C29   C     C_R   0.444623 0.556861 0.413976 0.269280
C30   C     C_R   0.545248 0.413791 0.576424 0.279282
C31   C     C_R   0.532533 0.619145 0.382533 0.225824
C32   C     C_R   0.454804 0.353453 0.606766 0.232545
C33   C     C_R   0.052865 0.451731 0.761985 -0.134843
C34   C     C_R   0.187465 0.796557 0.470247 -0.039999
C35   C     C_R   0.949185 0.546898 0.237818 -0.127970
C36   C     C_R   0.052675 0.450333 0.834821 0.247864
C37   C     C_R   0.943301 0.540326 0.165545 0.249113
C38   C     C_R   0.990906 0.490323 0.854364 0.052928
C39   C     C_R   0.990726 0.484134 0.147625 0.063437
C40   C     C_R   0.932799 0.534353 0.800376 0.128260
C41   C     C_R   0.038627 0.430568 0.202361 0.120220
C42   C     C_R   0.935623 0.536709 0.728244 -0.107028
C43   C     C_R   0.041427 0.435844 0.274091 -0.106816
C44   C     C_R   0.995768 0.496018 0.708589 -0.072342
C45   C     C_R   0.781291 0.023601 0.569406 0.319858
C46   C     C_R   0.997840 0.494663 0.292158 -0.050051
C47   C     C_R   0.990174 0.482712 0.071869 0.405324
C48   C     C_R   0.990240 0.487876 0.930878 0.397695
C49   C     C_3   0.310623 0.459183 0.342766 -0.064116
C50   C     C_3   0.662578 0.347522 0.645433 -0.085537
C51   C     C_3   0.209413 0.450606 0.884360 -0.057925
C52   C     C_3   0.795420 0.558763 0.113634 -0.064492
C53   C     C_3   0.049484 0.812546 0.330251 -0.107153
C54   C     C_3   0.955121 0.183599 0.666059 -0.096810
C55   C     C_3   0.803937 0.916219 0.671546 -0.033831
C56   C     C_R   0.218615 0.975692 0.426483 0.323155
C57   C     C_3   0.194951 0.079258 0.322311 -0.035692
C58   C     C_R   0.847279 0.126861 0.566772 0.293265
C59   C     C_R   0.153002 0.872251 0.430098 0.294592
C60   C     C_R   0.709301 0.176848 0.505269 -0.200012
Cu1   Cu    Cu3+1 0.081740 0.475680 0.518680 0.980407
Cu2   Cu    Cu3+1 0.918260 0.524320 0.481320 0.972439
H1    H     H_    0.096305 0.416427 0.747204 0.137251
H2    H     H_    0.684656 0.236356 0.475720 0.145492
H3    H     H_    0.459981 0.795859 0.503572 0.143512
H4    H     H_    0.538802 0.204852 0.492639 0.126742
H5    H     H_    0.367381 0.445320 0.320863 0.157543
H6    H     H_    0.252391 0.466059 0.297061 0.186166
H7    H     H_    0.273156 0.393005 0.382648 0.166967
H8    H     H_    0.629602 0.290337 0.607846 0.114134
H9    H     H_    0.640571 0.313427 0.699794 0.203131
H10   H     H_    0.746048 0.372245 0.651451 0.129816
H11   H     H_    0.250064 0.422976 0.934501 0.182161
H12   H     H_    0.917176 0.594251 0.251388 0.128692
H13   H     H_    0.236136 0.534803 0.880896 0.132976
H14   H     H_    0.230141 0.431561 0.838940 0.135026
H15   H     H_    0.759288 0.474714 0.114103 0.137799
H16   H     H_    0.760290 0.594437 0.064366 0.181669
H17   H     H_    0.778996 0.579227 0.160326 0.118309
H18   H     H_    0.981074 0.816457 0.293745 0.167737
H19   H     H_    0.041739 0.731943 0.341044 0.119688
H20   H     H_    0.115937 0.859461 0.301139 0.095191
H21   H     H_    0.962412 0.263940 0.657243 0.112961
H22   H     H_    0.024821 0.179301 0.700405 0.177867
H23   H     H_    0.280931 0.546742 0.466595 0.197821
H24   H     H_    0.890368 0.135513 0.696543 0.083526
H25   H     H_    0.864274 0.967916 0.706704 0.134746
H26   H     H_    0.808498 0.840259 0.688178 0.205414
H27   H     H_    0.727838 0.907180 0.680509 0.101130
H28   H     H_    0.190975 0.155332 0.304084 0.196800
H29   H     H_    0.133804 0.026326 0.288331 0.144271
H30   H     H_    0.270566 0.086757 0.313443 0.100578
H31   H     H_    0.710676 0.436128 0.521021 0.156338
H32   H     H_    0.146042 0.340935 0.638238 0.144912
H33   H     H_    0.871377 0.693388 0.385228 0.173436
H34   H     H_    0.891442 0.571620 0.687476 0.200302
H35   H     H_    0.076144 0.392437 0.315847 0.164579
H36   H     H_    0.315455 0.764836 0.525632 0.151196
N1    N     N_R   0.902202 0.461249 0.956750 -0.157572
N2    N     N_R   0.078144 0.508768 0.046193 -0.158346
N3    N     N_R   0.902211 0.459235 0.025995 -0.173242
N4    N     N_R   0.078120 0.511140 0.976923 -0.167682
N5    N     N_R   0.795420 0.560800 0.453240 -0.268754
N6    N     N_R   0.204580 0.439200 0.546760 -0.268943
O1    O     O_R   0.977910 0.338110 0.524620 -0.448402
O2    O     O_3   0.638695 0.434467 0.619950 -0.551106
O3    O     O_3   0.104334 0.400899 0.887544 -0.534658
O4    O     O_3   0.900635 0.596936 0.111688 -0.537657
O5    O     O_3   0.055224 0.847264 0.394504 -0.506116
O6    O     O_3   0.946079 0.150933 0.600298 -0.497248
O7    O     O_3   0.820871 0.950210 0.599132 -0.469245
O8    O     O_3   0.178918 0.048555 0.395005 -0.468630
O9    O     O_R   0.022090 0.661890 0.475380 -0.455853
O10   O     O_R   0.839850 0.379180 0.493080 -0.531663
O11   O     O_R   0.160150 0.620820 0.506920 -0.516542
O12   O     O_R   0.069040 0.479450 0.615630 -0.518837
O13   O     O_R   0.930960 0.520550 0.384370 -0.515592
O14   O     O_R   0.930990 0.520520 0.584090 -0.490041
O15   O     O_R   0.069010 0.479480 0.415910 -0.490606
O16   O     O_3   0.352737 0.549978 0.373080 -0.570273

loop_
_geom_bond_atom_site_label_1
_geom_bond_atom_site_label_2
_ccdc_geom_bond_type
C16   C44   S    
C23   C58   A    
C16   O14   A    
C42   H34   S    
C2    C34   A    
C10   C13   A    
C7    C10   A    
C27   C28   A    
Cu2   O9    S    
C49   O16   S    
C39   C41   A    
C3    C60   A    
Cu1   O1    S    
C25   C31   A    
C22   C27   A    
C26   C32   A    
C24   C28   A    
C6    C13   A    
C28   C29   A    
C51   H13   S    
C57   H28   S    
C21   C24   A    
C30   O2    S    
Cu1   N6    S    
Cu1   O11   S    
C7    C8    A    
C55   H25   S    
C16   O12   A    
C17   O13   A    
C12   O11   A    
C21   N6    A    
C3    C7    A    
C20   H31   S    
C4    C8    A    
C36   O3    S    
C36   C38   A    
C8    C9    A    
C41   C43   A    
C54   H22   S    
C42   C44   A    
C15   C19   A    
C33   C44   A    
C50   H10   S    
C33   H1    S    
C29   O16   S    
Cu2   O14   S    
C40   C42   A    
C10   H4    S    
C47   N3    A    
C9    H3    S    
N1    N3    A    
C48   N4    A    
C21   H23   S    
C52   H17   S    
C53   H19   S    
C1    O10   A    
C5    C45   A    
C37   C39   A    
C20   N5    A    
C23   C60   A    
C29   C31   A    
Br5   C40   S    
C38   C40   A    
C5    C11   A    
C53   O5    S    
C56   C59   A    
C49   H7    S    
C27   C30   A    
C51   H14   S    
C57   H29   S    
Br4   C15   S    
C50   H8    S    
Cu1   O12   S    
C55   H26   S    
C60   H2    S    
C24   C26   A    
C48   N1    A    
C53   H18   S    
C18   H33   S    
C55   O7    S    
Cu2   O10   S    
C35   C46   A    
C43   H35   S    
C15   C26   A    
C6    C56   A    
C54   H21   S    
Br8   C13   S    
C17   C46   S    
C45   C58   A    
C59   O5    S    
C12   O9    A    
C2    C4    A    
C50   H9    S    
Cu2   O13   S    
C55   H27   S    
C4    C6    A    
C19   N6    A    
Br7   C11   S    
C54   H24   S    
C14   C18   A    
C34   C59   A    
C33   C36   A    
C52   O4    S    
Br1   C31   S    
C53   H20   S    
C49   H6    S    
C39   C47   S    
C14   C25   A    
C52   H16   S    
C22   C25   A    
C51   H11   S    
C57   H30   S    
C12   C34   S    
C52   H15   S    
C45   O7    S    
C19   H32   S    
C56   O8    S    
C47   N2    A    
C43   C46   A    
C1    O1    A    
C49   H5    S    
C20   C22   A    
C17   O15   A    
C35   C37   A    
C30   C32   A    
C3    C5    A    
C37   O4    S    
C9    C11   A    
C57   O8    S    
N2    N4    A    
Br6   C41   S    
Cu1   Cu2   S    
C54   O6    S    
C2    H36   S    
Cu2   N5    S    
C1    C23   S    
Br2   C32   S    
Cu1   O15   S    
C51   O3    S    
C58   O6    S    
C38   C48   S    
C50   O2    S    
C35   H12   S    
Br3   C14   S    
C18   N5    A    
