data_mof_unit_63074.cif
_audit_creation_date              2012-12-10T17:14:22-0500
_audit_creation_method            fapswitch 2.2
_symmetry_space_group_name_H-M    P1
_symmetry_Int_Tables_number       1
_space_group_crystal_system       triclinic
_cell_length_a                    25.941707
_cell_length_b                    25.905976
_cell_length_c                    22.19438
_cell_angle_alpha                 89.992371
_cell_angle_beta                  125.743988
_cell_angle_gamma                 90.03305
_cell_volume                      12106.0470687

loop_
_atom_site_label
_atom_site_type_symbol
_atom_type_description
_atom_site_fract_x
_atom_site_fract_y
_atom_site_fract_z
_atom_type_partial_charge
C1    C     C_R   0.650297 0.749960 0.300546 0.804041
C2    C     C_R   0.650254 0.249990 0.300557 0.804589
C3    C     C_R   0.150277 0.249981 0.300541 0.809867
C4    C     C_R   0.150237 0.749971 0.300553 0.810747
C5    C     C_R   0.750761 0.553898 0.494926 -0.074378
C6    C     C_R   0.750841 0.446110 0.494938 -0.076485
C7    C     C_R   0.249715 0.053882 0.503085 -0.054800
C8    C     C_R   0.249543 0.946094 0.502817 -0.057734
C9    C     C_R   0.781949 0.526699 0.561757 -0.191070
C10   C     C_R   0.781996 0.473332 0.561764 -0.187214
C11   C     C_R   0.277741 0.026778 0.474799 -0.186403
C12   C     C_R   0.277822 0.973276 0.474866 -0.186856
C13   C     C_3   0.498281 0.202788 0.025271 -0.199330
C14   C     C_3   0.515550 0.798952 0.025308 -0.193529
C15   C     C_3   0.002459 0.701577 0.025298 -0.200296
C16   C     C_3   0.008399 0.299010 0.025347 -0.196676
C17   C     C_3   0.941618 0.734400 0.975829 0.269796
C18   C     C_3   0.944044 0.270486 0.975847 0.251806
C19   C     C_3   0.440499 0.238700 0.975823 0.270512
C20   C     C_3   0.447552 0.776361 0.975832 0.251848
C21   C     C_1   0.889219 0.749853 0.778799 -0.058874
C22   C     C_1   0.889381 0.250060 0.778807 -0.059180
C23   C     C_1   0.389267 0.249934 0.778809 -0.056951
C24   C     C_1   0.389463 0.749959 0.778816 -0.057183
C25   C     C_1   0.610519 0.249938 0.221208 -0.136118
C26   C     C_1   0.610708 0.749894 0.221199 -0.136203
C27   C     C_1   0.110480 0.749883 0.221194 -0.132240
C28   C     C_1   0.110646 0.249964 0.221186 -0.132256
C29   C     C_3   0.023764 0.717523 0.975733 0.255023
C30   C     C_3   0.027589 0.277973 0.975769 0.273145
C31   C     C_3   0.520832 0.214622 0.975740 0.255332
C32   C     C_3   0.531306 0.771805 0.975770 0.273753
C33   C     C_3   0.962979 0.749638 0.926665 -0.061871
C34   C     C_3   0.963368 0.250169 0.926666 -0.062612
C35   C     C_3   0.463044 0.249846 0.926684 -0.062837
C36   C     C_3   0.463542 0.749932 0.926684 -0.062657
C37   C     C_3   0.560211 0.261244 0.025248 -0.223647
C38   C     C_3   0.554003 0.722983 0.025248 -0.279008
C39   C     C_3   0.058957 0.765278 0.025189 -0.222158
C40   C     C_3   0.057255 0.229335 0.025179 -0.275432
C41   C     C_3   0.536489 0.249923 0.073439 0.014347
C42   C     C_3   0.536924 0.749816 0.073436 0.014635
C43   C     C_3   0.036439 0.749798 0.073415 0.014464
C44   C     C_3   0.036797 0.249969 0.073413 0.014633
C45   C     C_R   0.849677 0.749970 0.699450 0.820140
C46   C     C_R   0.849709 0.250020 0.699461 0.820517
C47   C     C_R   0.349683 0.249979 0.699453 0.819562
C48   C     C_R   0.349717 0.750009 0.699464 0.817982
C49   C     C_3   0.997308 0.796860 0.975890 0.353094
C50   C     C_3   0.992224 0.202142 0.975834 0.353800
C51   C     C_3   0.501516 0.296006 0.975967 0.356920
C52   C     C_3   0.485526 0.701813 0.975923 0.356682
C53   C     C_3   0.478680 0.285680 0.025344 -0.270468
C54   C     C_3   0.468989 0.727604 0.025301 -0.221196
C55   C     C_3   0.975586 0.782405 0.025296 -0.269054
C56   C     C_3   0.972455 0.221734 0.025253 -0.219044
C57   C     C_1   0.922474 0.749727 0.845527 0.130792
C58   C     C_1   0.922766 0.250130 0.845533 0.130600
C59   C     C_1   0.422538 0.249885 0.845541 0.131372
C60   C     C_1   0.422905 0.749942 0.845545 0.130942
C61   C     C_1   0.577076 0.249920 0.154474 0.025089
C62   C     C_1   0.577404 0.749847 0.154467 0.024710
C63   C     C_1   0.077031 0.749831 0.154456 0.028213
C64   C     C_1   0.077309 0.249958 0.154450 0.028170
C65   C     C_R   0.565332 0.651764 0.523297 -0.158870
C66   C     C_R   0.483076 0.234731 0.358555 -0.171886
C67   C     C_R   0.057180 0.149742 0.508039 -0.162286
C68   C     C_R   0.983134 0.734452 0.358674 -0.171587
C69   C     C_R   0.542765 0.605669 0.532206 -0.118702
C70   C     C_R   0.422911 0.229000 0.292159 -0.118797
C71   C     C_R   0.030181 0.103380 0.508561 -0.138513
C72   C     C_R   0.922984 0.728533 0.292313 -0.118819
C73   C     C_R   0.489205 0.605681 0.532238 -0.115872
C74   C     C_R   0.369324 0.229041 0.292141 -0.117792
C75   C     C_R   0.977824 0.103634 0.510779 -0.119695
C76   C     C_R   0.869398 0.728552 0.292300 -0.118372
C77   C     C_R   0.457817 0.651788 0.523360 -0.157465
C78   C     C_R   0.375510 0.234806 0.358519 -0.171492
C79   C     C_R   0.951397 0.150259 0.511200 -0.151927
C80   C     C_R   0.875570 0.734488 0.358648 -0.171755
C81   C     C_R   0.478957 0.698994 0.512701 0.097032
C82   C     C_R   0.435931 0.241722 0.426529 0.097048
C83   C     C_R   0.975811 0.197932 0.506823 0.097340
C84   C     C_R   0.935973 0.741587 0.426615 0.097162
C85   C     C_R   0.533624 0.698982 0.512671 0.098005
C86   C     C_R   0.490620 0.241693 0.426545 0.098262
C87   C     C_R   0.030070 0.197748 0.505976 0.101017
C88   C     C_R   0.990661 0.741571 0.426629 0.098802
C89   C     C_R   0.889492 0.749214 0.498786 0.789197
C90   C     C_R   0.890822 0.248951 0.501478 0.790598
C91   C     C_R   0.389480 0.249199 0.498763 0.790004
C92   C     C_R   0.390695 0.749157 0.501189 0.788760
C93   C     C_R   0.556307 0.746513 0.504888 -0.068909
C94   C     C_R   0.551364 0.246627 0.494987 -0.078098
C95   C     C_R   0.056576 0.245640 0.505529 -0.073854
C96   C     C_R   0.051392 0.746682 0.495042 -0.075589
C97   C     C_R   0.527263 0.792957 0.501163 -0.184534
C98   C     C_R   0.557537 0.248785 0.561801 -0.182402
C99   C     C_R   0.031192 0.292130 0.509042 -0.184638
C100  C     C_R   0.057560 0.749049 0.561842 -0.187822
C101  C     C_R   0.473949 0.792969 0.501189 -0.184684
C102  C     C_R   0.504202 0.248802 0.561788 -0.181087
C103  C     C_R   0.977901 0.292254 0.508997 -0.186165
C104  C     C_R   0.004223 0.749055 0.561830 -0.182678
C105  C     C_R   0.448573 0.746535 0.504939 -0.069366
C106  C     C_R   0.443590 0.246667 0.494962 -0.079611
C107  C     C_R   0.948974 0.245872 0.505871 -0.074813
C108  C     C_R   0.943617 0.746706 0.495016 -0.078211
C109  C     C_R   0.663807 0.946141 0.358633 -0.169286
C110  C     C_R   0.663776 0.053832 0.358665 -0.169529
C111  C     C_R   0.163772 0.446141 0.358647 -0.168557
C112  C     C_R   0.163738 0.553832 0.358680 -0.168844
C113  C     C_R   0.624718 0.973153 0.292284 -0.118987
C114  C     C_R   0.624700 0.026807 0.292301 -0.121347
C115  C     C_R   0.124663 0.473153 0.292302 -0.118774
C116  C     C_R   0.124642 0.526806 0.292319 -0.121416
C117  C     C_R   0.704858 0.027360 0.426610 0.097871
C118  C     C_R   0.704865 0.972630 0.426596 0.095485
C119  C     C_R   0.204839 0.527359 0.426619 0.098321
C120  C     C_R   0.204848 0.472630 0.426604 0.095635
C121  C     C_R   0.744187 0.946102 0.495010 -0.083708
C122  C     C_R   0.744189 0.053903 0.495032 -0.081991
C123  C     C_R   0.244190 0.446102 0.495015 -0.083380
C124  C     C_R   0.244191 0.553903 0.495037 -0.081204
C125  C     C_R   0.779969 0.973324 0.561835 -0.178007
C126  C     C_R   0.779977 0.026699 0.561846 -0.182058
C127  C     C_R   0.279991 0.473324 0.561839 -0.177591
C128  C     C_R   0.279999 0.526699 0.561849 -0.181826
C129  C     C_R   0.610459 0.749126 0.501171 0.786547
C130  C     C_R   0.609269 0.249209 0.498783 0.787797
C131  C     C_R   0.110664 0.248719 0.501609 0.785166
C132  C     C_R   0.109285 0.749234 0.498815 0.780494
C133  C     C_R   0.748599 0.890087 0.498786 0.790973
C134  C     C_R   0.748622 0.109915 0.498814 0.782632
C135  C     C_R   0.248602 0.390087 0.498789 0.791679
C136  C     C_R   0.248623 0.609915 0.498816 0.782457
C137  C     C_R   0.750148 0.609899 0.498758 0.779363
C138  C     C_R   0.750184 0.390103 0.498756 0.788273
C139  C     C_R   0.249978 0.109899 0.500242 0.780043
C140  C     C_R   0.249979 0.890095 0.500139 0.784259
C141  C     C_R   0.694495 0.553838 0.358481 -0.173273
C142  C     C_R   0.694546 0.446149 0.358485 -0.173171
C143  C     C_R   0.198918 0.053810 0.568634 -0.172531
C144  C     C_R   0.196605 0.945948 0.565955 -0.159803
C145  C     C_R   0.667063 0.526814 0.292087 -0.115631
C146  C     C_R   0.667086 0.473161 0.292089 -0.114347
C147  C     C_R   0.174539 0.026675 0.601110 -0.142237
C148  C     C_R   0.172862 0.972965 0.599202 -0.113055
C149  C     C_R   0.721578 0.472634 0.426480 0.095787
C150  C     C_R   0.721544 0.527362 0.426476 0.098170
C151  C     C_R   0.222490 0.972585 0.533780 0.095312
C152  C     C_R   0.223081 0.027293 0.534493 0.103328
H1    H     H_    0.805155 0.546960 0.614234 0.170269
H2    H     H_    0.805228 0.453086 0.614244 0.170708
H3    H     H_    0.299067 0.047215 0.451838 0.148323
H4    H     H_    0.299279 0.952900 0.452039 0.147821
H5    H     H_    0.545127 0.829421 0.496398 0.162066
H6    H     H_    0.603990 0.251734 0.614294 0.174262
H7    H     H_    0.051705 0.328763 0.509637 0.167759
H8    H     H_    0.104007 0.752155 0.614314 0.172613
H9    H     H_    0.608496 0.649861 0.526552 0.149261
H10   H     H_    0.523250 0.232452 0.355827 0.146603
H11   H     H_    0.099882 0.147052 0.510585 0.151878
H12   H     H_    0.023317 0.732200 0.355957 0.146795
H13   H     H_    0.567546 0.569865 0.540257 0.149023
H14   H     H_    0.417929 0.223720 0.240602 0.155508
H15   H     H_    0.050553 0.067011 0.508452 0.152082
H16   H     H_    0.918013 0.723130 0.240781 0.155492
H17   H     H_    0.958099 0.067514 0.513228 0.149037
H18   H     H_    0.822855 0.723164 0.240759 0.153096
H19   H     H_    0.472431 0.569886 0.540315 0.150553
H20   H     H_    0.322767 0.223795 0.240568 0.153003
H21   H     H_    0.417932 0.649905 0.526667 0.150124
H22   H     H_    0.332588 0.232591 0.355759 0.147295
H23   H     H_    0.912669 0.148108 0.516530 0.154506
H24   H     H_    0.832658 0.732268 0.355912 0.146092
H25   H     H_    0.451381 0.829439 0.496433 0.160826
H26   H     H_    0.510213 0.251753 0.614275 0.174938
H27   H     H_    0.958075 0.328961 0.509423 0.167271
H28   H     H_    0.010219 0.752154 0.614296 0.173966
H29   H     H_    0.809310 0.953074 0.614295 0.181955
H30   H     H_    0.809329 0.046964 0.614310 0.181636
H31   H     H_    0.309348 0.453074 0.614296 0.181707
H32   H     H_    0.309366 0.546965 0.614311 0.181317
H33   H     H_    0.660227 0.904539 0.355900 0.148118
H34   H     H_    0.660167 0.095430 0.355959 0.146981
H35   H     H_    0.160197 0.404539 0.355915 0.147640
H36   H     H_    0.160132 0.595430 0.355976 0.146413
H37   H     H_    0.593584 0.952333 0.240744 0.151970
H38   H     H_    0.593549 0.047614 0.240776 0.150515
H39   H     H_    0.093515 0.452333 0.240765 0.151107
H40   H     H_    0.093476 0.547614 0.240798 0.149915
H41   H     H_    0.695351 0.595438 0.355746 0.147386
H42   H     H_    0.695442 0.404553 0.355756 0.148948
H43   H     H_    0.199791 0.095509 0.571755 0.118856
H44   H     H_    0.195428 0.904207 0.566788 0.130159
H45   H     H_    0.646530 0.547624 0.240520 0.153614
H46   H     H_    0.646571 0.452343 0.240522 0.156540
H47   H     H_    0.156936 0.047419 0.627988 0.152006
H48   H     H_    0.153665 0.952128 0.624262 0.151098
H49   H     H_    0.497221 0.164176 0.046232 0.183935
H50   H     H_    0.528256 0.839178 0.046309 0.186242
H51   H     H_    0.004868 0.662115 0.046306 0.184045
H52   H     H_    0.015371 0.339127 0.046397 0.185239
H53   H     H_    0.461618 0.315176 0.046155 0.187256
H54   H     H_    0.443547 0.709140 0.046077 0.200428
H55   H     H_    0.956021 0.809362 0.046086 0.188065
H56   H     H_    0.950008 0.198315 0.046009 0.201236
H57   H     H_    0.609739 0.270782 0.045981 0.198889
H58   H     H_    0.597983 0.700758 0.045985 0.181489
H59   H     H_    0.107475 0.778257 0.045888 0.199101
H60   H     H_    0.104053 0.212139 0.045878 0.182618
O1    O     O_3   0.749980 0.749980 0.500000 -0.493710
O2    O     O_3   0.749980 0.250020 0.500000 -0.493297
O3    O     O_3   0.249980 0.249980 0.500000 -0.495262
O4    O     O_3   0.249980 0.750020 0.500000 -0.495127
O5    O     O_R   0.887340 0.719630 0.543100 -0.628211
O6    O     O_R   0.887340 0.280370 0.543100 -0.628479
O7    O     O_R   0.387340 0.219630 0.543100 -0.629004
O8    O     O_R   0.387340 0.780370 0.543100 -0.627037
O9    O     O_R   0.612630 0.719610 0.456900 -0.641417
O10   O     O_R   0.612630 0.280390 0.456900 -0.640139
O11   O     O_R   0.112630 0.219610 0.456900 -0.646882
O12   O     O_R   0.112630 0.780390 0.456900 -0.645831
O13   O     O_R   0.698160 0.780350 0.335610 -0.642780
O14   O     O_R   0.698160 0.219650 0.335610 -0.630743
O15   O     O_R   0.198160 0.280350 0.335610 -0.644701
O16   O     O_R   0.198160 0.719650 0.335610 -0.632540
O17   O     O_R   0.801810 0.780340 0.664400 -0.616977
O18   O     O_R   0.801810 0.219660 0.664400 -0.618717
O19   O     O_R   0.301810 0.280340 0.664400 -0.618791
O20   O     O_R   0.301810 0.719660 0.664400 -0.619222
O21   O     O_R   0.637430 0.719620 0.335600 -0.631268
O22   O     O_R   0.637430 0.280380 0.335600 -0.643720
O23   O     O_R   0.137430 0.219620 0.335600 -0.622886
O24   O     O_R   0.137430 0.780380 0.335600 -0.634983
O25   O     O_R   0.862530 0.719620 0.664390 -0.626645
O26   O     O_R   0.862530 0.280380 0.664390 -0.624934
O27   O     O_R   0.362530 0.219620 0.664390 -0.624387
O28   O     O_R   0.362530 0.780380 0.664390 -0.623507
O29   O     O_R   0.844250 0.780360 0.456900 -0.640296
O30   O     O_R   0.844250 0.219640 0.456900 -0.643469
O31   O     O_R   0.344250 0.280360 0.456900 -0.639357
O32   O     O_R   0.344250 0.719640 0.456900 -0.640791
O33   O     O_R   0.655730 0.780340 0.543100 -0.627592
O34   O     O_R   0.655730 0.219660 0.543100 -0.629317
O35   O     O_R   0.155730 0.280340 0.543100 -0.629187
O36   O     O_R   0.155730 0.719660 0.543100 -0.628216
O37   O     O_R   0.758810 0.865800 0.456900 -0.639967
O38   O     O_R   0.758810 0.134200 0.456900 -0.650602
O39   O     O_R   0.258810 0.365800 0.456900 -0.639608
O40   O     O_R   0.258810 0.634200 0.456900 -0.649456
O41   O     O_R   0.698070 0.634180 0.456900 -0.648998
O42   O     O_R   0.698070 0.365820 0.456900 -0.639611
O43   O     O_R   0.198070 0.134180 0.456900 -0.642075
O44   O     O_R   0.198070 0.865820 0.456900 -0.634151
O45   O     O_R   0.741180 0.865790 0.543100 -0.627611
O46   O     O_R   0.741180 0.134210 0.543100 -0.625169
O47   O     O_R   0.241180 0.365790 0.543100 -0.627798
O48   O     O_R   0.241180 0.634210 0.543100 -0.624818
O49   O     O_R   0.801890 0.634180 0.543100 -0.628699
O50   O     O_R   0.801890 0.365820 0.543100 -0.631170
O51   O     O_R   0.301890 0.134180 0.543100 -0.626108
O52   O     O_R   0.301890 0.865820 0.543100 -0.627452
Zn1   Zn    Zn3+2 0.824150 0.706610 0.561580 0.999307
Zn2   Zn    Zn3+2 0.824150 0.293390 0.561580 1.003417
Zn3   Zn    Zn3+2 0.324150 0.206610 0.561580 1.002743
Zn4   Zn    Zn3+2 0.324150 0.793390 0.561580 1.005868
Zn5   Zn    Zn3+2 0.762580 0.793370 0.438420 0.972929
Zn6   Zn    Zn3+2 0.762580 0.206630 0.438420 0.970054
Zn7   Zn    Zn3+2 0.262580 0.293370 0.438420 0.975938
Zn8   Zn    Zn3+2 0.262580 0.706630 0.438420 0.973591
Zn9   Zn    Zn3+2 0.737390 0.793360 0.561580 1.010456
Zn10  Zn    Zn3+2 0.737390 0.206640 0.561580 1.006261
Zn11  Zn    Zn3+2 0.237390 0.293360 0.561580 1.006689
Zn12  Zn    Zn3+2 0.237390 0.706640 0.561580 1.002889
Zn13  Zn    Zn3+2 0.675820 0.706600 0.438420 0.969550
Zn14  Zn    Zn3+2 0.675820 0.293400 0.438420 0.971360
Zn15  Zn    Zn3+2 0.175820 0.206600 0.438420 0.975672
Zn16  Zn    Zn3+2 0.175820 0.793400 0.438420 0.974772
Br1   Br    Br    0.857030 0.712107 0.940220 -0.434164
Br2   Br    Br    0.862434 0.300195 0.940236 -0.431299
Br3   Br    Br    0.354186 0.222417 0.940161 -0.433311
Br4   Br    Br    0.370830 0.814891 0.940174 -0.436058
S1    S     S_3+6 0.993933 0.860365 0.943046 0.082404
O53   O     O_2   0.017783 0.859386 0.895548 -0.231420
O54   O     O_2   0.926537 0.879399 0.897707 -0.248495
O55   O     O_3   0.039811 0.900128 0.015465 -0.479957
H61   H     H_    0.023078 0.897394 0.045632 0.351981
S2    S     S_3+6 0.981446 0.137577 0.942905 0.081967
O56   O     O_2   0.911806 0.124924 0.895216 -0.217632
O57   O     O_2   0.007265 0.132161 0.897739 -0.263050
O58   O     O_3   0.019538 0.096673 0.015263 -0.478632
H62   H     H_    0.064271 0.108534 0.045756 0.347156
S3    S     S_3+6 0.503800 0.358175 0.943338 0.078520
O59   O     O_2   0.527524 0.353096 0.895979 -0.231061
O60   O     O_2   0.438280 0.381124 0.897918 -0.248700
O61   O     O_3   0.553086 0.396841 0.015918 -0.493999
H63   H     H_    0.535750 0.397315 0.045563 0.347583
S4    S     S_3+6 0.465610 0.637045 0.943219 0.079697
O62   O     O_2   0.394648 0.631005 0.895464 -0.218694
O63   O     O_2   0.490266 0.624674 0.898186 -0.260441
O64   O     O_3   0.497840 0.596414 0.015725 -0.489918
H64   H     H_    0.543948 0.603997 0.046272 0.342996
Br5   Br    Br    0.058421 0.670702 0.939952 -0.417179
Br6   Br    Br    0.067284 0.318547 0.940054 -0.416334
Br7   Br    Br    0.551151 0.163342 0.939946 -0.414421
Br8   Br    Br    0.576199 0.803694 0.940035 -0.413259

loop_
_geom_bond_atom_site_label_1
_geom_bond_atom_site_label_2
_ccdc_geom_bond_type
C99   C103  A    
C114  H38   S    
S2    O58   S    
C72   H16   S    
C142  C146  A    
C41   C61   S    
C10   H2    S    
C145  C146  A    
C43   C63   S    
C129  O33   A    
C44   C64   S    
O51   Zn3   S    
C3    C28   S    
C90   C107  S    
C144  C151  A    
C95   C99   A    
C29   C33   S    
C100  C104  A    
O25   Zn1   S    
C3    O23   A    
C1    O21   A    
C73   H19   S    
C70   C74   A    
C16   C44   S    
C141  C145  A    
C115  H39   S    
C116  H40   S    
C109  C118  A    
C68   H12   S    
O34   Zn10  S    
C20   C54   S    
O3    Zn3   S    
C148  H48   S    
C124  C136  S    
C109  H33   S    
C98   C102  A    
C31   C37   S    
C78   C82   A    
O64   H64   S    
C68   C72   A    
C142  H42   S    
C136  O48   A    
C76   H18   S    
C143  C147  A    
C35   C51   S    
O61   H63   S    
C134  O38   A    
O35   Zn11  S    
S4    O62   D    
C2    O14   A    
O32   Zn8   S    
C84   C88   A    
C22   C58   T    
C15   H51   S    
C5    C137  S    
C19   Br3   S    
C8    C140  S    
O23   Zn15  S    
C30   Br6   S    
S1    O54   D    
C19   C35   S    
O14   Zn6   S    
C66   C70   A    
O2    Zn10  S    
C89   C108  S    
O6    Zn2   S    
C45   O25   A    
C7    C152  A    
C65   H9    S    
C34   C58   S    
C73   C77   A    
C136  O40   A    
C103  C107  A    
C16   H52   S    
C75   C79   A    
C6    C138  S    
O22   Zn14  S    
C139  O51   A    
O46   Zn10  S    
O28   Zn4   S    
C147  C148  A    
S3    O60   D    
C23   C59   T    
C94   C130  S    
C32   C36   S    
C142  C149  A    
C40   C50   S    
O11   Zn15  S    
C16   C30   S    
C115  C116  A    
O12   Zn16  S    
O1    Zn1   S    
O2    Zn6   S    
O4    Zn4   S    
C6    C149  A    
C85   C93   A    
C87   C95   A    
C9    C10   A    
C110  C114  A    
C67   C71   A    
C36   C52   S    
S4    O64   S    
C24   C60   T    
C9    H1    S    
O19   Zn11  S    
C71   H15   S    
C75   H17   S    
C4    O24   A    
C12   H4    S    
C141  C150  A    
C21   C45   S    
C81   C105  A    
C23   C47   S    
C30   C34   S    
C30   C40   S    
C24   C48   S    
C138  O50   A    
O26   Zn2   S    
O16   Zn8   S    
C31   Br7   S    
C49   C55   S    
C50   C56   S    
C123  C135  S    
C51   C53   S    
C146  H46   S    
C117  C122  A    
C5    C9    A    
O58   H62   S    
C123  C127  A    
C8    C12   A    
C141  H41   S    
C38   H58   S    
O47   Zn11  S    
C41   C53   S    
O41   Zn13  S    
C47   O27   A    
C43   C55   S    
C39   C49   S    
C90   O30   A    
C1    C26   S    
C102  H26   S    
C11   H3    S    
C133  O37   A    
C112  C116  A    
C4    C27   S    
C110  H34   S    
O24   Zn16  S    
C76   C80   A    
C135  O39   A    
C66   C86   A    
C144  H44   S    
C55   H55   S    
C21   C57   T    
C135  O47   A    
C52   S4    S    
O50   Zn2   S    
C15   C43   S    
C117  C118  A    
C14   H50   S    
O29   Zn5   S    
C82   C106  A    
C37   C41   S    
C69   H13   S    
C90   O6    A    
O48   Zn12  S    
C67   H11   S    
C40   C44   S    
C140  O52   A    
C131  O11   A    
C81   C85   A    
C137  O49   A    
C83   C87   A    
C88   C96   A    
C93   C97   A    
O20   Zn12  S    
C147  H47   S    
C80   C84   A    
C13   C41   S    
O17   Zn9   S    
O3    Zn11  S    
O7    Zn3   S    
C99   H7    S    
C94   C98   A    
C33   C49   S    
C66   H10   S    
C35   C59   S    
S2    O56   D    
C2    O22   A    
C98   H6    S    
C54   H54   S    
O4    Zn16  S    
C151  C152  A    
C69   C73   A    
C120  C123  A    
C72   C76   A    
C124  C128  A    
C17   Br1   S    
C133  O45   A    
O18   Zn10  S    
C95   C131  S    
C46   O18   A    
C17   C33   S    
C93   C129  S    
C110  C117  A    
C48   O28   A    
S4    O63   D    
C15   C29   S    
O1    Zn13  S    
O2    Zn2   S    
C125  H29   S    
C14   C20   S    
C130  O10   A    
S3    O59   D    
C13   C19   S    
C132  O36   A    
C82   C86   A    
C5    C150  A    
C139  O43   A    
O49   Zn1   S    
S1    O53   D    
O37   Zn5   S    
C44   C56   S    
C56   H56   S    
C77   C81   A    
C143  H43   S    
O27   Zn3   S    
C25   C61   T    
O13   Zn5   S    
C27   C63   T    
C28   C64   T    
C143  C152  A    
C22   C46   S    
O5    Zn1   S    
C125  C126  A    
C31   C35   S    
C127  C128  A    
C3    O15   A    
C104  C108  A    
C113  C114  A    
C1    O13   A    
C15   C17   S    
C32   Br8   S    
C77   H21   S    
C132  O12   A    
O45   Zn9   S    
C13   C31   S    
C14   C32   S    
C6    C10   A    
C112  C119  A    
C119  C120  A    
C38   C42   S    
C113  H37   S    
C40   H60   S    
C111  H35   S    
O1    Zn9   S    
C149  C150  A    
C42   C54   S    
C79   C83   A    
O42   Zn14  S    
C65   C69   A    
C84   C108  A    
C2    C25   S    
C103  H27   S    
C4    O16   A    
O31   Zn7   S    
C101  H25   S    
C20   C36   S    
C92   C105  S    
C38   C52   S    
C74   C78   A    
C20   Br4   S    
C138  O42   A    
C71   C75   A    
C127  H31   S    
O9    Zn13  S    
C128  H32   S    
C144  C148  A    
C130  O34   A    
C119  C124  A    
C7    C11   A    
C49   S1    S    
O30   Zn6   S    
O36   Zn12  S    
S1    O55   S    
C70   H14   S    
C37   C51   S    
C47   O19   A    
C96   C100  A    
O33   Zn9   S    
C92   O8    A    
C86   C94   A    
C121  C125  A    
C122  C134  S    
C13   H49   S    
C53   H53   S    
C140  O44   A    
C32   C38   S    
O10   Zn14  S    
C17   C55   S    
C74   H20   S    
C109  C113  A    
C96   C132  S    
C19   C53   S    
O3    Zn15  S    
O4    Zn12  S    
C91   C106  S    
C45   O17   A    
C52   C54   S    
S3    O61   S    
C101  C105  A    
C34   C50   S    
C79   H23   S    
C8    C151  A    
C80   H24   S    
C129  O9    A    
O39   Zn7   S    
O40   Zn8   S    
C39   C43   S    
C111  C120  A    
C118  C121  A    
C97   H5    S    
C122  C126  A    
C145  H45   S    
C100  H8    S    
C18   Br2   S    
O52   Zn4   S    
C29   C39   S    
C39   H59   S    
C29   Br5   S    
C18   C34   S    
C37   H57   S    
C131  O35   A    
O15   Zn7   S    
C91   O31   A    
O2    Zn14  S    
C68   C88   A    
C89   O29   A    
C126  H30   S    
C50   S2    S    
O38   Zn6   S    
O8    Zn4   S    
C42   C62   S    
C33   C57   S    
O43   Zn15  S    
C51   S3    S    
O44   Zn16  S    
C36   C60   S    
C112  H36   S    
C11   C12   A    
C65   C85   A    
C18   C56   S    
O21   Zn13  S    
C67   C87   A    
C14   C42   S    
O3    Zn7   S    
O55   H61   S    
C26   C62   T    
C7    C139  S    
C92   O32   A    
C104  H28   S    
C134  O46   A    
C83   C107  A    
C102  C106  A    
S2    O57   D    
C46   O26   A    
C91   O7    A    
C137  O41   A    
C89   O5    A    
C48   O20   A    
C16   C18   S    
O1    Zn5   S    
C78   H22   S    
C111  C115  A    
C121  C133  S    
O4    Zn8   S    
C97   C101  A    
