data_mof_unit_46174.cif
_audit_creation_date              2012-12-11T14:01:09-0500
_audit_creation_method            fapswitch 2.2
_symmetry_space_group_name_H-M    P1
_symmetry_Int_Tables_number       1
_space_group_crystal_system       triclinic
_cell_length_a                    19.020311
_cell_length_b                    10.944994
_cell_length_c                    18.75504
_cell_angle_alpha                 90.42616
_cell_angle_beta                  90.234366
_cell_angle_gamma                 89.723033
_cell_volume                      3904.18581301

loop_
_atom_site_label
_atom_site_type_symbol
_atom_type_description
_atom_site_fract_x
_atom_site_fract_y
_atom_site_fract_z
_atom_type_partial_charge
C1    C     C_R   0.286913 0.006472 0.861541 0.572682
C2    C     C_R   0.706662 0.989324 0.140885 0.604347
C3    C     C_R   0.772554 0.542645 0.853490 0.573396
C4    C     C_R   0.206342 0.489534 0.140745 0.597448
C5    C     C_R   0.480928 0.051911 0.074892 -0.048699
C6    C     C_R   0.511875 0.051802 0.929918 -0.017764
C7    C     C_R   0.968561 0.539971 0.076646 -0.067003
C8    C     C_R   0.996196 0.561176 0.931721 -0.019660
C9    C     C_R   0.961627 0.652944 0.043531 -0.078310
C10   C     C_R   0.977337 0.664136 0.971604 -0.059460
C11   C     C_R   0.487437 0.162213 0.038819 -0.064577
C12   C     C_R   0.505231 0.161992 0.966977 -0.060963
C13   C     C_2   0.246497 0.585645 0.921435 -0.096125
C14   C     C_2   0.751873 0.575847 0.080734 -0.068104
C15   C     C_2   0.744165 0.081141 0.919476 -0.091763
C16   C     C_2   0.260264 0.058635 0.089230 -0.065816
C17   C     C_2   0.208119 0.493099 0.062630 0.337830
C18   C     C_2   0.749774 0.588180 0.922657 0.372945
C19   C     C_2   0.710453 0.990511 0.063070 0.349981
C20   C     C_2   0.267401 0.043729 0.933223 0.358131
C21   C     C_2   0.261592 0.448018 0.023335 -0.091184
C22   C     C_2   0.708018 0.518540 0.963207 -0.144986
C23   C     C_2   0.769836 0.962214 0.027208 -0.069820
C24   C     C_2   0.229521 0.968795 0.974636 -0.163628
C25   C     C_2   0.271259 0.479609 0.947009 -0.120064
C26   C     C_2   0.697569 0.544668 0.038808 -0.124799
C27   C     C_2   0.781200 0.992246 0.951063 -0.097456
C28   C     C_2   0.212718 0.001545 0.048665 -0.132134
C29   C     C_2   0.486582 0.828270 0.571747 -0.089541
C30   C     C_2   0.488080 0.840590 0.415683 -0.110904
C31   C     C_2   0.986597 0.328269 0.571756 -0.088659
C32   C     C_2   0.988094 0.340588 0.415693 -0.110772
C33   C     C_2   0.468068 0.742611 0.451780 -0.165175
C34   C     C_2   0.453781 0.749269 0.527490 -0.148375
C35   C     C_2   0.968090 0.242607 0.451791 -0.164917
C36   C     C_2   0.953799 0.249266 0.527499 -0.148482
C37   C     C_2   0.246509 0.564152 0.583194 -0.109081
C38   C     C_2   0.745518 0.612525 0.430555 -0.092362
C39   C     C_2   0.746506 0.064144 0.583197 -0.109408
C40   C     C_2   0.245520 0.112519 0.430554 -0.092161
C41   C     C_2   0.237733 0.569296 0.428198 -0.100895
C42   C     C_2   0.743155 0.603822 0.585963 -0.103793
C43   C     C_2   0.737727 0.069280 0.428203 -0.100806
C44   C     C_2   0.243154 0.103820 0.585965 -0.103811
C45   C     C_R   0.471933 0.821501 0.853380 0.542542
C46   C     C_R   0.526971 0.821678 0.147578 0.555342
C47   C     C_R   0.973334 0.323062 0.852033 0.557725
C48   C     C_R   0.029246 0.320588 0.145767 0.543548
C49   C     C_2   0.182279 0.556664 0.471925 -0.150453
C50   C     C_2   0.782420 0.681612 0.549601 -0.164235
C51   C     C_2   0.682272 0.056648 0.471930 -0.150719
C52   C     C_2   0.282420 0.181608 0.549601 -0.164667
C53   C     C_2   0.186686 0.581507 0.547661 -0.162828
C54   C     C_2   0.770560 0.700694 0.474221 -0.148836
C55   C     C_2   0.686681 0.081492 0.547666 -0.162919
C56   C     C_2   0.270560 0.200689 0.474221 -0.148654
C57   C     C_R   0.260300 0.634869 0.850877 0.521436
C58   C     C_R   0.739268 0.635106 0.149007 0.541815
C59   C     C_R   0.760330 0.135362 0.850906 0.531632
C60   C     C_R   0.240621 0.131760 0.150997 0.544754
C61   C     C_R   0.270953 0.048175 0.649676 0.567577
C62   C     C_R   0.726187 0.042869 0.353756 0.555439
C63   C     C_R   0.770957 0.548165 0.649669 0.558285
C64   C     C_R   0.226191 0.542880 0.353751 0.554339
C65   C     C_R   0.468219 0.822958 0.646294 0.554504
C66   C     C_R   0.527720 0.825041 0.350678 0.547808
C67   C     C_R   0.968226 0.322958 0.646300 0.554446
C68   C     C_R   0.027725 0.325041 0.350682 0.548928
C69   C     C_R   0.259980 0.633539 0.647436 0.558775
C70   C     C_R   0.738411 0.642209 0.356065 0.552735
C71   C     C_R   0.759979 0.133539 0.647436 0.557123
C72   C     C_R   0.238412 0.142206 0.356065 0.551121
C73   C     C_R   0.494718 0.827047 0.076119 -0.013176
C74   C     C_R   0.500239 0.826533 0.926576 -0.001489
C75   C     C_R   0.004013 0.322783 0.071282 -0.009168
C76   C     C_R   0.007739 0.335170 0.922057 0.004713
C77   C     C_R   0.491778 0.939193 0.039148 0.015437
C78   C     C_R   0.500975 0.939066 0.964442 0.019807
C79   C     C_R   0.990444 0.435450 0.037670 0.012422
C80   C     C_R   0.998178 0.443866 0.963043 0.018689
C81   C     C_R   0.502615 0.714897 0.964524 0.137633
C82   C     C_R   0.492365 0.715483 0.037761 0.129629
C83   C     C_R   0.025486 0.225467 0.955828 0.135535
C84   C     C_R   0.015877 0.215592 0.029234 0.135056
Cr1   Cr    Cr6+3 0.230530 0.836340 0.748870 1.016314
Cr2   Cr    Cr6+3 0.769470 0.836340 0.251130 1.004852
Cr3   Cr    Cr6+3 0.730530 0.336340 0.748870 1.018065
Cr4   Cr    Cr6+3 0.269470 0.336340 0.251130 0.997646
Cr5   Cr    Cr6+3 0.387420 0.989430 0.750820 1.019285
Cr6   Cr    Cr6+3 0.612580 0.989430 0.249180 1.025761
Cr7   Cr    Cr6+3 0.887420 0.489430 0.750820 1.021084
Cr8   Cr    Cr6+3 0.112580 0.489430 0.249180 1.030630
Cr9   Cr    Cr6+3 0.385640 0.677860 0.749230 1.009799
Cr10  Cr    Cr6+3 0.614360 0.677860 0.250770 1.023855
Cr11  Cr    Cr6+3 0.885640 0.177860 0.749230 1.013731
Cr12  Cr    Cr6+3 0.114360 0.177860 0.250770 1.031617
H1    H     H_    0.130221 0.536110 0.450974 0.152938
H2    H     H_    0.828575 0.724058 0.573258 0.152846
H3    H     H_    0.630215 0.036097 0.450977 0.153008
H4    H     H_    0.328574 0.224058 0.573258 0.152942
H5    H     H_    0.141703 0.626122 0.572373 0.153379
H6    H     H_    0.788373 0.787585 0.453313 0.157037
H7    H     H_    0.641699 0.126108 0.572378 0.153489
H8    H     H_    0.288369 0.287582 0.453313 0.157319
H9    H     H_    0.290398 0.589356 0.447348 0.083397
H10   H     H_    0.694741 0.567379 0.563548 0.111276
H11   H     H_    0.790392 0.089338 0.447354 0.083847
H12   H     H_    0.194742 0.067374 0.563549 0.110586
H13   H     H_    0.289752 0.512595 0.559801 0.094955
H14   H     H_    0.727146 0.524997 0.449685 0.095251
H15   H     H_    0.789748 0.012584 0.559804 0.094913
H16   H     H_    0.227151 0.024988 0.449683 0.094953
H17   H     H_    0.466467 0.055461 0.130606 0.111788
H18   H     H_    0.527684 0.055761 0.874665 0.124989
H19   H     H_    0.955114 0.534645 0.132525 0.115375
H20   H     H_    0.010692 0.575035 0.876703 0.128188
H21   H     H_    0.945006 0.732254 0.073997 0.106372
H22   H     H_    0.974129 0.752563 0.946404 0.097060
H23   H     H_    0.480103 0.247990 0.067006 0.095548
H24   H     H_    0.513590 0.247200 0.939566 0.089495
H25   H     H_    0.301685 0.391991 0.048332 0.120784
H26   H     H_    0.682062 0.438266 0.941378 0.098700
H27   H     H_    0.814483 0.924374 0.055809 0.100925
H28   H     H_    0.208089 0.884439 0.953007 0.098422
H29   H     H_    0.304382 0.421538 0.913938 0.163564
H30   H     H_    0.644290 0.541805 0.059209 0.141728
H31   H     H_    0.825831 0.951266 0.923805 0.150376
H32   H     H_    0.160137 0.985217 0.068131 0.142033
H33   H     H_    0.217230 0.647741 0.955448 0.179054
H34   H     H_    0.805186 0.575104 0.060063 0.151458
H35   H     H_    0.702942 0.129170 0.947757 0.188355
H36   H     H_    0.314335 0.065948 0.071165 0.158537
H37   H     H_    0.467751 0.652363 0.427217 0.153110
H38   H     H_    0.418696 0.679825 0.548047 0.151404
H39   H     H_    0.967777 0.152357 0.427231 0.153759
H40   H     H_    0.918713 0.179822 0.548053 0.151364
H41   H     H_    0.484327 0.931645 0.438923 0.103980
H42   H     H_    0.521632 0.899019 0.553011 0.086334
H43   H     H_    0.984339 0.431644 0.438932 0.103898
H44   H     H_    0.021649 0.399018 0.553021 0.086419
O1    O     O_R   0.215090 0.709860 0.828130 -0.520960
O2    O     O_R   0.784910 0.709860 0.171870 -0.528052
O3    O     O_R   0.715090 0.209860 0.828130 -0.521767
O4    O     O_R   0.284910 0.209860 0.171870 -0.531882
O5    O     O_R   0.445660 0.919250 0.676780 -0.495817
O6    O     O_R   0.554340 0.919250 0.323220 -0.511863
O7    O     O_R   0.945660 0.419250 0.676780 -0.496708
O8    O     O_R   0.054340 0.419250 0.323220 -0.511158
O9    O     O_R   0.456260 0.718170 0.670000 -0.513263
O10   O     O_R   0.543740 0.718170 0.330000 -0.513209
O11   O     O_R   0.956260 0.218170 0.670000 -0.515453
O12   O     O_R   0.043740 0.218170 0.330000 -0.511235
O13   O     O_R   0.320940 0.626760 0.674370 -0.505015
O14   O     O_R   0.679060 0.626760 0.325630 -0.491149
O15   O     O_R   0.820940 0.126760 0.674370 -0.507287
O16   O     O_R   0.179060 0.126760 0.325630 -0.492306
O17   O     O_3   0.334530 0.834540 0.749640 -0.266515
O18   O     O_3   0.665470 0.834540 0.250360 -0.275518
O19   O     O_3   0.834530 0.334540 0.749640 -0.249219
O20   O     O_3   0.165470 0.334540 0.250360 -0.276909
O21   O     O_R   0.236990 0.958390 0.823710 -0.526935
O22   O     O_R   0.763010 0.958390 0.176290 -0.548074
O23   O     O_R   0.736990 0.458390 0.823710 -0.540187
O24   O     O_R   0.263010 0.458390 0.176290 -0.550682
O25   O     O_R   0.332380 0.074750 0.830850 -0.468450
O26   O     O_R   0.667620 0.074750 0.169150 -0.479792
O27   O     O_R   0.832380 0.574750 0.830850 -0.483759
O28   O     O_R   0.167620 0.574750 0.169150 -0.467927
O29   O     O_R   0.445800 0.917770 0.825070 -0.535857
O30   O     O_R   0.554200 0.917770 0.174930 -0.513724
O31   O     O_R   0.945800 0.417770 0.825070 -0.525185
O32   O     O_R   0.054200 0.417770 0.174930 -0.512101
O33   O     O_R   0.456410 0.716580 0.829970 -0.479917
O34   O     O_R   0.543590 0.716580 0.170030 -0.484844
O35   O     O_R   0.956410 0.216580 0.829970 -0.493548
O36   O     O_R   0.043590 0.216580 0.170030 -0.477531
O37   O     O_R   0.321080 0.625290 0.822650 -0.511807
O38   O     O_R   0.678920 0.625290 0.177350 -0.495863
O39   O     O_R   0.821080 0.125290 0.822650 -0.501542
O40   O     O_R   0.178920 0.125290 0.177350 -0.489110
O41   O     O_R   0.214930 0.711450 0.668160 -0.509017
O42   O     O_R   0.785070 0.711450 0.331840 -0.516504
O43   O     O_R   0.714930 0.211450 0.668160 -0.509185
O44   O     O_R   0.285070 0.211450 0.331840 -0.517405
O45   O     O_R   0.236850 0.959870 0.675420 -0.492256
O46   O     O_R   0.763150 0.959870 0.324580 -0.498388
O47   O     O_R   0.736850 0.459870 0.675420 -0.496367
O48   O     O_R   0.263150 0.459870 0.324580 -0.499445
O49   O     O_R   0.332230 0.076350 0.670880 -0.511465
O50   O     O_R   0.667770 0.076350 0.329120 -0.511248
O51   O     O_R   0.832230 0.576350 0.670880 -0.514834
O52   O     O_R   0.167770 0.576350 0.329120 -0.511136
N1    N     N_2   0.515537 0.601129 0.928712 -0.485505
H45   H     H_    0.562254 0.559413 0.942465 0.237004
C85   C     C_3   0.456736 0.517473 0.922783 -0.245489
H46   H     H_    0.462677 0.441059 0.960794 0.100057
H47   H     H_    0.454929 0.478529 0.868021 0.163275
H48   H     H_    0.406227 0.565036 0.933649 0.172122
N2    N     N_2   0.484499 0.602066 0.074024 -0.492015
H49   H     H_    0.514396 0.527694 0.058829 0.245654
C86   C     C_3   0.417057 0.577556 0.106059 -0.273705
H50   H     H_    0.398623 0.486733 0.088036 0.122308
H51   H     H_    0.377016 0.647555 0.091471 0.138526
H52   H     H_    0.422920 0.575732 0.164919 0.173096
N3    N     N_2   0.058328 0.129304 0.915763 -0.492848
H53   H     H_    0.109865 0.112953 0.930084 0.266234
C87   C     C_3   0.018520 0.019265 0.900393 -0.259040
H54   H     H_    0.041903 0.940015 0.928659 0.100168
H55   H     H_    0.021053 0.999399 0.842359 0.167882
H56   H     H_    0.962443 0.029280 0.915701 0.159941
N4    N     N_2   0.017324 0.097444 0.061045 -0.474348
H57   H     H_    0.049036 0.032766 0.037538 0.249726
C88   C     C_3   0.948979 0.051116 0.080251 -0.284682
H58   H     H_    0.916509 0.037838 0.031664 0.113923
H59   H     H_    0.921637 0.115604 0.116943 0.164889
H60   H     H_    0.955146 0.962148 0.107677 0.135817
F1    F     F_    0.149891 0.540210 0.030260 -0.655173
F2    F     F_    0.779616 0.691989 0.949085 -0.658239
F3    F     F_    0.649507 0.016689 0.028282 -0.664861
F4    F     F_    0.289738 0.154784 0.957357 -0.660093

loop_
_geom_bond_atom_site_label_1
_geom_bond_atom_site_label_2
_ccdc_geom_bond_type
C16   C28   D    
Cr3   O23   S    
C38   C70   S    
Cr9   O33   S    
C72   O16   A    
C37   C69   S    
Cr8   O8    S    
C9    H21   S    
C86   H50   S    
Cr9   O9    S    
C35   C36   S    
C11   H23   S    
C2    O22   A    
Cr7   O7    S    
C81   C82   A    
C84   N4    S    
C3    O27   A    
C62   O50   A    
C77   C78   A    
C31   C67   S    
C29   H42   S    
Cr1   O1    S    
C50   C54   S    
C75   C79   A    
C41   H9    S    
C10   H22   S    
Cr5   O49   S    
Cr7   O27   S    
C47   C76   S    
C66   O10   A    
C16   C60   S    
C63   O51   A    
C75   C84   A    
Cr4   O44   S    
C13   C57   S    
C34   H38   S    
Cr12  O12   S    
C55   H7    S    
C24   H28   S    
Cr1   O21   S    
C3    C18   S    
C5    H17   S    
C26   H30   S    
C7    H19   S    
C25   H29   S    
C6    H18   S    
Cr11  O35   S    
C48   O32   A    
Cr11  O11   S    
C27   H31   S    
C70   O42   A    
C39   C55   D    
N4    H57   S    
C53   H5    S    
C40   C56   D    
C87   H56   S    
C76   C80   A    
C4    O24   A    
Cr2   O22   S    
C23   C27   S    
C38   H14   S    
C18   C22   D    
Cr12  O36   S    
C9    C10   A    
C2    O26   A    
Cr7   O19   S    
C68   O8    A    
C3    O23   A    
C32   C68   S    
C85   H48   S    
C37   C53   D    
C44   C52   D    
C39   H15   S    
C1    O21   A    
N2    H49   S    
Cr10  O18   S    
C30   H41   S    
C12   H24   S    
Cr6   O26   S    
C51   H3    S    
C47   O31   A    
C86   H51   S    
C48   C75   S    
C13   C25   D    
Cr1   O17   S    
C36   H40   S    
C76   C83   A    
C41   C49   D    
C64   O52   A    
C61   O45   A    
C22   H26   S    
C37   H13   S    
C44   H12   S    
Cr1   O45   S    
C14   C58   S    
C50   H2    S    
C67   O11   A    
C87   H54   S    
C32   C35   D    
C71   O43   A    
C79   C80   A    
C56   H8    S    
C32   H43   S    
C40   H16   S    
C35   H39   S    
Cr9   O37   S    
C19   C23   D    
Cr3   O47   S    
C51   C55   S    
N1    C85   S    
C88   H58   S    
C81   N1    S    
C29   C34   D    
C52   H4    S    
C69   O13   A    
C46   O30   A    
C45   C74   S    
Cr6   O18   S    
Cr5   O5    S    
C68   O12   A    
C45   O33   A    
Cr2   O18   S    
Cr8   O28   S    
C15   C27   D    
C83   C84   A    
C38   C54   D    
C1    O25   A    
C20   F4    S    
C71   O15   A    
Cr6   O30   S    
C46   O34   A    
C33   C34   S    
Cr5   O17   S    
C58   O38   A    
C43   H11   S    
C14   C26   D    
Cr9   O17   S    
C42   H10   S    
C72   O44   A    
C64   O48   A    
C22   C26   S    
C42   C50   D    
C29   C65   S    
C4    C17   S    
C30   C66   S    
N3    H53   S    
Cr11  O39   S    
Cr12  O20   S    
Cr10  O34   S    
Cr2   O46   S    
C63   O47   A    
Cr7   O31   S    
C8    C80   A    
C67   O7    A    
C86   H52   S    
Cr11  O19   S    
C19   F3    S    
C74   C81   A    
C5    C77   A    
C18   F2    S    
C6    C12   A    
C73   C82   A    
C17   F1    S    
Cr2   O2    S    
C7    C79   A    
Cr6   O50   S    
C88   H60   S    
C7    C9    A    
C14   H34   S    
C21   C25   S    
C1    C20   S    
Cr1   O41   S    
C58   O2    A    
C40   C72   S    
C30   C33   D    
N4    C88   S    
C2    C19   S    
C70   O14   A    
C4    O28   A    
C15   C59   S    
C54   H6    S    
C24   C28   S    
C87   H55   S    
Cr2   O42   S    
Cr10  O38   S    
C45   O29   A    
C23   H27   S    
C11   C12   A    
C5    C11   A    
C13   H33   S    
C57   O1    A    
C44   C61   S    
C60   O40   A    
C41   C64   S    
C62   O46   A    
Cr8   O20   S    
Cr3   O3    S    
Cr12  O40   S    
C59   O39   A    
C88   H59   S    
Cr5   O29   S    
C82   N2    S    
Cr6   O6    S    
Cr4   O24   S    
C28   H32   S    
C60   O4    A    
C20   C24   D    
C57   O37   A    
Cr10  O14   S    
C83   N3    S    
C43   C51   D    
Cr12  O16   S    
Cr7   O51   S    
Cr8   O32   S    
C49   C53   S    
C52   C56   S    
Cr9   O13   S    
Cr3   O19   S    
Cr11  O15   S    
Cr4   O20   S    
C21   H25   S    
C16   H36   S    
C17   C21   D    
C66   O6    A    
C49   H1    S    
C6    C78   A    
C8    H20   S    
C59   O3    A    
C85   H46   S    
C33   H37   S    
Cr10  O10   S    
Cr4   O48   S    
C15   H35   S    
C73   C77   A    
C8    C10   A    
N1    H45   S    
C74   C78   A    
N2    C86   S    
C65   O9    A    
C39   C71   S    
C31   C36   D    
C61   O49   A    
Cr3   O43   S    
C31   H44   S    
N3    C87   S    
C65   O5    A    
C42   C63   S    
Cr4   O4    S    
C46   C73   S    
C47   O35   A    
Cr8   O52   S    
C43   C62   S    
C69   O41   A    
C48   O36   A    
C85   H47   S    
Cr5   O25   S    
