data_mof_unit_55717.cif
_audit_creation_date              2012-10-26T21:10:15-0400
_audit_creation_method            fapswitch 2.2
_symmetry_space_group_name_H-M    P1
_symmetry_Int_Tables_number       1
_space_group_crystal_system       triclinic
_cell_length_a                    15.825812
_cell_length_b                    16.501886
_cell_length_c                    17.760041
_cell_angle_alpha                 88.503578
_cell_angle_beta                  90.076177
_cell_angle_gamma                 68.456744
_cell_volume                      4312.35068119

loop_
_atom_site_label
_atom_site_type_symbol
_atom_type_description
_atom_site_fract_x
_atom_site_fract_y
_atom_site_fract_z
_atom_type_partial_charge
C1    C     C_R   0.491147 0.502735 0.644863 0.560605
C2    C     C_R   0.426407 0.591763 0.763675 -0.011483
C3    C     C_R   0.511942 0.492616 0.270161 -0.020619
C4    C     C_R   0.474382 0.510005 0.728434 -0.003650
C5    C     C_R   0.497035 0.569115 0.226827 0.277097
C6    C     C_R   0.507811 0.434603 0.775433 0.259607
C7    C     C_R   0.454488 0.578052 0.156548 0.271395
C8    C     C_R   0.534128 0.445511 0.848118 0.245850
C9    C     C_R   0.463283 0.503538 0.116757 0.004157
C10   C     C_R   0.479569 0.519030 0.886603 0.001729
C11   C     C_1   0.465386 0.509251 0.035399 0.061345
C12   C     C_R   0.507236 0.497411 0.354797 0.573331
C13   C     C_1   0.472423 0.513654 0.967809 0.045887
C14   C     C_R   0.461693 0.186638 0.438385 -0.191099
C15   C     C_R   0.543054 0.810070 0.562672 -0.216563
C16   C     C_R   0.673877 0.446839 0.496242 0.607206
C17   C     C_R   0.325324 0.553461 0.504168 0.581874
C18   C     C_R   0.462587 0.272093 0.440444 -0.003102
C19   C     C_R   0.541357 0.724943 0.558717 0.003988
C20   C     C_R   0.532004 0.240198 0.562126 0.411028
C21   C     C_R   0.471993 0.759854 0.437660 0.402664
C22   C     C_R   0.510581 0.163023 0.567798 0.203961
C23   C     C_R   0.101415 0.392989 0.515998 -0.041082
C24   C     C_R   0.493455 0.837118 0.433901 0.237486
C25   C     C_R   0.487102 0.130597 0.502247 -0.028292
C26   C     C_R   0.515805 0.868341 0.500425 -0.036256
C27   C     C_1   0.495959 0.038268 0.500900 0.089331
C28   C     C_1   0.506286 0.960716 0.503467 0.091752
C29   C     C_R   0.775763 0.413286 0.495662 -0.024192
C30   C     C_R   0.223724 0.584772 0.520244 -0.046232
C31   C     C_R   0.920572 0.295555 0.520570 0.218367
C32   C     C_R   0.078127 0.692404 0.557939 0.234728
C33   C     C_R   0.828911 0.323555 0.497695 0.271994
C34   C     C_R   0.900969 0.594174 0.544759 -0.050028
C35   C     C_R   0.164239 0.673781 0.526436 0.169130
C36   C     C_R   0.821118 0.472402 0.490270 0.149700
C37   C     C_R   0.185991 0.521769 0.542770 0.132094
C38   C     C_R   0.912847 0.445721 0.514190 -0.028128
C39   C     C_R   0.090484 0.544124 0.538147 -0.033548
C40   C     C_R   0.966095 0.355411 0.517808 -0.014296
C41   C     C_R   0.034714 0.632736 0.547363 -0.010161
C42   C     C_R   0.954066 0.507133 0.529374 0.060630
C43   C     C_R   0.049617 0.480836 0.529424 0.047595
C44   C     C_3   0.124290 0.238390 0.489334 -0.217637
C45   C     C_R   0.062065 0.329650 0.510722 0.037354
C46   C     C_3   0.172803 0.237645 0.414128 -0.345132
C47   C     C_3   0.232268 0.144868 0.393611 -0.382549
C48   C     C_3   0.876005 0.754302 0.545581 -0.225412
C49   C     C_3   0.793507 0.776028 0.492486 -0.327176
C50   C     C_3   0.747884 0.874135 0.477680 -0.419391
C51   C     C_3   0.464330 0.349834 0.119574 -0.266160
C52   C     C_3   0.517923 0.310915 0.048435 -0.273420
C53   C     C_3   0.529800 0.215311 0.040757 -0.390412
C54   C     C_3   0.363640 0.673014 0.887332 -0.240553
C55   C     C_3   0.420582 0.717027 0.928509 -0.281049
C56   C     C_R   0.938741 0.658523 0.547768 0.022422
C57   C     C_3   0.363608 0.811288 0.946633 -0.372884
C58   C     C_3   0.570390 0.323970 0.267654 -0.230314
C59   C     C_3   0.654419 0.269201 0.223152 -0.275627
C60   C     C_3   0.695205 0.175897 0.254953 -0.403389
C61   C     C_3   0.372832 0.673968 0.717110 -0.221869
C62   C     C_3   0.414115 0.744799 0.723802 -0.323254
C63   C     C_3   0.361928 0.827559 0.677819 -0.421170
C64   C     C_R   0.489263 0.421886 0.154907 -0.018595
C65   C     C_R   0.423435 0.593482 0.844583 -0.006821
C66   C     C_R   0.520573 0.414541 0.231346 -0.033994
Cu1   Cu    Cu3+1 0.500000 0.419580 0.500020 1.146748
Cu2   Cu    Cu3+1 0.500000 0.580420 0.499980 1.122232
H1    H     H_    0.439159 0.165277 0.387606 0.146256
H2    H     H_    0.121399 0.266721 0.368631 0.199594
H3    H     H_    0.217230 0.276166 0.417185 0.162857
H4    H     H_    0.086132 0.195109 0.482210 0.222524
H5    H     H_    0.175588 0.210173 0.535054 0.208457
H6    H     H_    0.723301 0.907791 0.531184 0.158629
H7    H     H_    0.796025 0.900687 0.450905 0.195081
H8    H     H_    0.689180 0.887145 0.438902 0.202736
H9    H     H_    0.815216 0.744058 0.437781 0.230277
H10   H     H_    0.742532 0.752873 0.518586 0.190550
H11   H     H_    0.914272 0.794079 0.524028 0.215526
H12   H     H_    0.567518 0.829372 0.613546 0.146167
H13   H     H_    0.852095 0.774455 0.603383 0.204493
H14   H     H_    0.748579 0.123680 0.649443 0.396432
H15   H     H_    0.371359 0.812526 0.255626 0.400844
H16   H     H_    0.642905 0.999530 0.638873 0.329049
H17   H     H_    0.543674 0.857587 0.234032 0.381033
H18   H     H_    0.135572 0.475792 0.697097 0.363489
H19   H     H_    0.692965 0.686225 0.402625 0.384372
H20   H     H_    0.270852 0.765968 0.571587 0.336170
H21   H     H_    0.736471 0.162145 0.449672 0.360772
H22   H     H_    0.898187 0.153329 0.672915 0.378575
H23   H     H_    0.435792 0.315709 0.392520 0.133892
H24   H     H_    0.124346 0.805337 0.717775 0.375069
H25   H     H_    0.570807 0.175350 0.088625 0.148874
H26   H     H_    0.462442 0.208707 0.039540 0.174044
H27   H     H_    0.565342 0.190021 0.987612 0.231277
H28   H     H_    0.480217 0.347056 0.997725 0.210213
H29   H     H_    0.585670 0.316540 0.048839 0.223698
H30   H     H_    0.470266 0.296979 0.161247 0.151480
H31   H     H_    0.390823 0.377435 0.104431 0.165682
H32   H     H_    0.339551 0.850921 0.893918 0.145130
H33   H     H_    0.303897 0.814106 0.980760 0.222282
H34   H     H_    0.571432 0.678760 0.604280 0.149411
H35   H     H_    0.405476 0.839768 0.979034 0.194731
H36   H     H_    0.448974 0.680839 0.981790 0.231876
H37   H     H_    0.479419 0.716189 0.894080 0.164626
H38   H     H_    0.312313 0.721830 0.850957 0.148181
H39   H     H_    0.322464 0.652325 0.928577 0.210281
H40   H     H_    0.714481 0.175234 0.314993 0.208072
H41   H     H_    0.645428 0.143202 0.249868 0.154904
H42   H     H_    0.756914 0.138765 0.222932 0.182656
H43   H     H_    0.637788 0.265503 0.163589 0.174096
H44   H     H_    0.706306 0.299764 0.225017 0.239408
H45   H     H_    0.173534 0.372969 0.508104 0.165191
H46   H     H_    0.598279 0.327180 0.323863 0.224910
H47   H     H_    0.522801 0.289156 0.275388 0.119593
H48   H     H_    0.372862 0.816225 0.616963 0.185324
H49   H     H_    0.288186 0.850295 0.690119 0.190565
H50   H     H_    0.387170 0.879770 0.692457 0.190430
H51   H     H_    0.413225 0.764630 0.782432 0.174214
H52   H     H_    0.486153 0.718857 0.706916 0.168953
H53   H     H_    0.366456 0.660724 0.657276 0.181258
H54   H     H_    0.301289 0.698924 0.735330 0.183745
H55   H     H_    0.626994 0.700333 0.162664 0.374867
H56   H     H_    0.828539 0.612868 0.551611 0.154276
H57   H     H_    0.304993 0.386367 0.809183 0.397515
H58   H     H_    0.245688 0.758350 0.196547 0.383144
H59   H     H_    0.774770 0.315988 0.838890 0.389817
H60   H     H_    0.284920 0.114799 0.437951 0.184332
H61   H     H_    0.190230 0.104325 0.387168 0.214801
H62   H     H_    0.266832 0.146286 0.339495 0.177900
N1    N     N_R   0.500020 0.298780 0.500030 -0.235514
N2    N     N_R   0.499980 0.701220 0.499970 -0.242952
O1    O     O_R   0.500010 0.432060 0.608760 -0.412744
O2    O     O_2   0.604809 0.227277 0.704286 -0.158428
O3    O     O_3   0.712925 0.143332 0.602098 -0.490535
O4    O     O_2   0.354927 0.686808 0.376596 -0.177091
O5    O     O_2   0.306151 0.843854 0.382019 -0.208283
O6    O     O_3   0.421173 0.764776 0.281680 -0.393083
O7    O     O_2   0.474519 0.166983 0.717457 -0.109347
O8    O     O_2   0.461016 0.046317 0.651885 -0.306313
O9    O     O_3   0.622830 0.043242 0.678700 -0.457359
O10   O     O_2   0.399371 0.943348 0.318784 -0.266528
O11   O     O_2   0.541908 0.957898 0.353693 -0.335363
O12   O     O_R   0.499990 0.567940 0.391240 -0.409744
O13   O     O_3   0.552443 0.822837 0.281720 -0.442365
O14   O     O_2   0.309127 0.364334 0.583358 -0.238623
O15   O     O_2   0.294089 0.488758 0.662412 -0.253917
O16   O     O_3   0.170059 0.421260 0.671163 -0.475281
O17   O     O_2   0.861964 0.574598 0.385308 -0.280726
O18   O     O_2   0.748285 0.513505 0.353390 -0.164989
O19   O     O_3   0.701862 0.642847 0.444395 -0.549215
O20   O     O_2   0.186053 0.750149 0.399570 -0.182121
O21   O     O_2   0.103479 0.847186 0.496707 -0.174042
O22   O     O_3   0.276158 0.772399 0.516572 -0.466826
O23   O     O_R   0.500000 0.567880 0.608730 -0.563891
O24   O     O_2   0.763049 0.310531 0.362998 -0.308338
O25   O     O_2   0.883067 0.180028 0.413542 -0.240495
O26   O     O_3   0.720990 0.221801 0.468439 -0.457061
O27   O     O_2   0.991326 0.120020 0.539727 -0.202686
O28   O     O_2   0.034927 0.205617 0.632586 -0.271370
O29   O     O_3   0.872032 0.203782 0.637402 -0.451851
O30   O     O_2   0.988710 0.853490 0.613216 -0.232811
O31   O     O_2   0.001963 0.727099 0.694640 -0.274922
O32   O     O_3   0.144861 0.766130 0.674716 -0.550903
O33   O     O_2   0.593415 0.643070 0.305535 -0.176191
O34   O     O_R   0.500000 0.432120 0.391270 -0.559789
O35   O     O_2   0.672776 0.536640 0.211476 -0.243695
O36   O     O_3   0.568957 0.690433 0.164136 -0.456082
O37   O     O_2   0.430770 0.340179 0.699305 -0.155159
O38   O     O_2   0.485972 0.288490 0.827086 -0.197343
O39   O     O_3   0.339640 0.425492 0.811795 -0.509054
O40   O     O_2   0.395100 0.748647 0.116558 -0.265762
O41   O     O_2   0.306973 0.664799 0.070064 -0.325182
O42   O     O_3   0.294735 0.702337 0.210780 -0.458659
O43   O     O_2   0.667110 0.408463 0.953360 -0.284827
O44   O     O_2   0.635008 0.285434 0.903369 -0.252439
O45   O     O_R   0.629840 0.394000 0.500020 -0.416269
O46   O     O_3   0.718271 0.360115 0.817450 -0.472713
O47   O     O_R   0.370160 0.606000 0.499980 -0.444794
O48   O     O_R   0.629830 0.529820 0.499990 -0.456703
O49   O     O_R   0.370170 0.470180 0.500010 -0.466940
O50   O     O_2   0.659099 0.308945 0.616061 -0.210041
S1    S     S_3+6 0.625903 0.235385 0.622871 0.153256
S2    S     S_3+6 0.049343 0.762356 0.636434 0.035739
S3    S     S_3+6 0.585633 0.609987 0.229063 0.118597
S4    S     S_3+6 0.442375 0.367814 0.776968 0.123547
S5    S     S_3+6 0.362037 0.676147 0.135053 0.022719
S6    S     S_3+6 0.639703 0.372801 0.884363 0.038124
S7    S     S_3+6 0.386652 0.761256 0.370441 0.176222
S8    S     S_3+6 0.514738 0.104687 0.655687 0.088907
S9    S     S_3+6 0.494873 0.894219 0.346304 0.020068
S10   S     S_3+6 0.243470 0.446547 0.615714 0.047549
S11   S     S_3+6 0.784383 0.552006 0.415524 0.041773
S12   S     S_3+6 0.181362 0.763449 0.482912 0.120567
S13   S     S_3+6 0.800192 0.256985 0.433527 0.062603
S14   S     S_3+6 0.959110 0.202818 0.582892 0.065333

loop_
_geom_bond_atom_site_label_1
_geom_bond_atom_site_label_2
_ccdc_geom_bond_type
O16   S10   S    
C34   C56   A    
C23   C45   A    
C53   H27   S    
C9    C64   A    
O8    S8    D    
C14   C18   A    
C34   C42   A    
C5    S3    S    
O2    S1    D    
O29   S14   S    
C2    C65   A    
H21   O26   S    
C39   C41   A    
C54   C65   S    
C8    S6    S    
C15   C19   A    
C29   C36   A    
C54   H39   S    
C55   H37   S    
C18   H23   S    
C48   H11   S    
C7    S5    S    
Cu1   O1    S    
H17   O13   S    
O37   S4    D    
C38   C42   A    
C41   C56   A    
C50   H6    S    
C12   O34   A    
C31   S14   S    
C63   H49   S    
C19   H34   S    
O40   S5    D    
O35   S3    D    
C29   C33   A    
C52   H29   S    
C23   C43   A    
C31   C40   A    
Cu2   N2    S    
C46   C47   S    
H14   O3    S    
C1    O23   A    
C36   S11   S    
C60   H41   S    
Cu1   O49   S    
C35   S12   S    
O17   S11   D    
O43   S6    D    
O50   S1    D    
C58   C66   S    
O21   S12   D    
C22   C25   A    
C59   H43   S    
C32   C41   A    
C31   C33   A    
C44   H4    S    
C3    C12   S    
O3    S1    S    
C22   S8    S    
C62   H52   S    
C61   C62   S    
H58   O42   S    
C2    C61   S    
O28   S14   D    
H24   O32   S    
O46   S6    S    
O7    S8    D    
C51   H30   S    
C60   H40   S    
O31   S2    D    
C59   C60   S    
H19   O19   S    
O13   S9    S    
C17   C30   S    
O14   S10   D    
C18   N1    A    
O27   S14   D    
C1    O1    A    
C44   C46   S    
O44   S6    D    
C16   O45   A    
C51   H31   S    
C40   C45   A    
C57   H35   S    
C44   C45   S    
C49   H10   S    
C51   C64   S    
H22   O29   S    
C53   H25   S    
C51   C52   S    
C32   C35   A    
C47   H60   S    
O24   S13   D    
C4    C6    A    
Cu1   O45   S    
O18   S11   D    
C5    C7    A    
C63   H50   S    
C54   H38   S    
C15   C26   A    
C39   C43   A    
C47   H62   S    
C16   C29   S    
C57   H32   S    
C55   H36   S    
Cu2   O48   S    
O33   S3    D    
C12   O12   A    
C30   C37   A    
C61   H54   S    
H20   O22   S    
C2    C4    A    
Cu1   Cu2   S    
C21   N2    A    
O30   S2    D    
C62   C63   S    
O32   S2    S    
C50   H8    S    
O42   S5    S    
C23   H45   S    
C21   S7    S    
C15   H12   S    
C20   C22   A    
O15   S10   D    
O38   S4    D    
C59   H44   S    
C62   H51   S    
C9    C11   S    
C46   H3    S    
Cu2   O23   S    
C20   S1    S    
O5    S7    D    
H55   O36   S    
C30   C35   A    
Cu1   O34   S    
C48   C49   S    
C47   H61   S    
C55   C57   S    
C58   H47   S    
C14   H1    S    
C3    C66   A    
C42   C43   A    
C63   H48   S    
C20   N1    A    
C52   C53   S    
C10   C65   A    
C19   N2    A    
C7    C9    A    
C54   C55   S    
O41   S5    D    
C34   H56   S    
O36   S3    S    
O39   S4    S    
C53   H26   S    
O25   S13   D    
H59   O46   S    
C32   S2    S    
Cu1   N1    S    
O9    S8    S    
C61   H53   S    
C24   C26   A    
C3    C5    A    
C10   C13   S    
H18   O16   S    
Cu2   O12   S    
C6    C8    A    
C48   C56   S    
C25   C27   S    
C57   H33   S    
C6    S4    S    
Cu2   O47   S    
C26   C28   S    
O26   S13   S    
O20   S12   D    
O4    S7    D    
C1    C4    S    
O19   S11   S    
C36   C38   A    
C48   H13   S    
C58   C59   S    
C37   C39   A    
C50   H7    S    
C38   C40   A    
C11   C13   T    
C17   O47   A    
H16   O9    S    
O10   S9    D    
C49   H9    S    
C52   H28   S    
C24   S9    S    
C14   C25   A    
C44   H5    S    
H57   O39   S    
C46   H2    S    
C60   H42   S    
O6    S7    S    
C17   O49   A    
C37   S10   S    
C33   S13   S    
C8    C10   A    
C49   C50   S    
C21   C24   A    
C27   C28   T    
C58   H46   S    
O11   S9    D    
H15   O6    S    
C16   O48   A    
O22   S12   S    
C64   C66   A    
