data_mof_unit_57490.cif
_audit_creation_date              2012-12-10T17:16:38-0500
_audit_creation_method            fapswitch 2.2
_symmetry_space_group_name_H-M    P1
_symmetry_Int_Tables_number       1
_space_group_crystal_system       triclinic
_cell_length_a                    10.159507
_cell_length_b                    10.505231
_cell_length_c                    10.808822
_cell_angle_alpha                 90.654455
_cell_angle_beta                  96.33658
_cell_angle_gamma                 83.201877
_cell_volume                      1138.49332189

loop_
_atom_site_label
_atom_site_type_symbol
_atom_type_description
_atom_site_fract_x
_atom_site_fract_y
_atom_site_fract_z
_atom_type_partial_charge
C1    C     C_R   0.443213 0.512379 0.267778 0.966496
C2    C     C_R   0.556787 0.487621 0.732221 0.966495
C3    C     C_2   0.408884 0.508181 0.135383 -0.257876
C4    C     C_2   0.591116 0.491820 0.864617 -0.257877
C5    C     C_2   0.499961 0.531234 0.060825 0.339150
C6    C     C_2   0.500039 0.468767 0.939175 0.339150
C7    C     C_2   0.064176 0.509621 0.477293 0.372109
C8    C     C_2   0.935823 0.490380 0.522707 0.372110
C9    C     C_R   0.492089 0.260574 0.482747 0.913365
C10   C     C_R   0.507910 0.739426 0.517253 0.913361
C11   C     C_R   0.672297 0.082604 0.338148 0.380577
C12   C     C_R   0.327699 0.917396 0.661847 0.380579
C13   C     C_R   0.798983 0.015830 0.330824 0.406554
C14   C     C_R   0.201008 0.984162 0.669161 0.406558
C15   C     C_R   0.845496 0.913750 0.414744 0.157100
C16   C     C_R   0.154498 0.086244 0.585243 0.157111
C17   C     C_R   0.758017 0.872105 0.495383 0.412875
C18   C     C_R   0.241981 0.127893 0.504610 0.412890
C19   C     C_R   0.624006 0.928991 0.487305 -0.069199
C20   C     C_R   0.375992 0.071009 0.512692 -0.069204
C21   C     C_R   0.590037 0.046137 0.425798 -0.205969
C22   C     C_R   0.409962 0.953863 0.574199 -0.205971
C23   C     C_R   0.523157 0.874984 0.542574 0.027796
C24   C     C_R   0.476842 0.125017 0.457425 0.027796
H1    H     H_    0.678266 0.538379 0.897059 0.215768
H2    H     H_    0.321734 0.461622 0.102941 0.215768
H3    H     H_    0.858654 0.428883 0.358056 0.227628
H4    H     H_    0.141346 0.571117 0.641944 0.227627
N1    N     N_2   0.157300 0.551390 0.551120 -0.171729
N2    N     N_2   0.842700 0.448610 0.448880 -0.171725
O1    O     O_R   0.568940 0.489660 0.307530 -0.561921
O2    O     O_R   0.431060 0.510340 0.692470 -0.561921
O3    O     O_R   0.348880 0.522640 0.340350 -0.542265
O4    O     O_R   0.651120 0.477360 0.659650 -0.542265
O5    O     O_R   0.610030 0.300280 0.483580 -0.586192
O6    O     O_R   0.389970 0.699720 0.516420 -0.586195
O7    O     O_R   0.389970 0.333270 0.516400 -0.568194
O8    O     O_R   0.610030 0.666730 0.483600 -0.568194
Zn1   Zn    Zn3+2 0.646940 0.477980 0.478080 1.126186
Zn2   Zn    Zn3+2 0.353060 0.522020 0.521920 1.126186
Cl1   Cl    Cl    0.990307 0.164910 0.584089 -0.597592
Cl2   Cl    Cl    0.009689 0.835090 0.415898 -0.597601
Cl3   Cl    Cl    0.611168 0.200769 0.224312 -0.477008
Cl4   Cl    Cl    0.388827 0.799233 0.775686 -0.477005
O9    O     O_3   0.874523 0.056361 0.243223 -0.645458
H5    H     H_    0.958306 0.998466 0.242003 0.401149
O10   O     O_3   0.125464 0.943624 0.756755 -0.645465
H6    H     H_    0.041647 0.001476 0.757928 0.401142
O11   O     O_3   0.801983 0.784774 0.589789 -0.678100
H7    H     H_    0.900221 0.778132 0.605993 0.392074
O12   O     O_3   0.198018 0.215227 0.410206 -0.678090
H8    H     H_    0.099780 0.221866 0.393996 0.392083
Cl5   Cl    Cl    0.381807 0.359762 0.892112 -0.500689
Cl6   Cl    Cl    0.618193 0.640238 0.107889 -0.500703
Cl7   Cl    Cl    0.914843 0.514374 0.681501 -0.476638
Cl8   Cl    Cl    0.085157 0.485628 0.318499 -0.476638

loop_
_geom_bond_atom_site_label_1
_geom_bond_atom_site_label_2
_ccdc_geom_bond_type
N2    Zn1   S    
C19   C23   A    
C9    C24   S    
C11   Cl3   S    
C14   O10   S    
C7    N1    D    
C10   C23   S    
C2    C4    S    
O10   H6    S    
O6    Zn2   S    
C10   O8    A    
C8    N2    D    
C2    O4    A    
C9    O7    A    
C4    H1    S    
C12   C14   A    
C1    O3    A    
C7    C8    S    
C12   Cl4   S    
O9    H5    S    
H3    N2    S    
C13   O9    S    
C11   C13   A    
C5    C6    S    
C7    Cl8   S    
O5    Zn1   S    
N1    Zn2   S    
C16   C18   A    
H4    N1    S    
C19   C21   A    
O1    Zn1   S    
C18   O12   S    
O7    Zn2   S    
C18   C20   A    
C13   C15   A    
O8    Zn1   S    
C14   C16   A    
O3    Zn2   S    
C6    Cl5   S    
O4    Zn1   S    
C12   C22   A    
C5    Cl6   S    
C1    O1    A    
O2    Zn2   S    
C8    Cl7   S    
C4    C6    D    
O11   H7    S    
C21   C24   A    
C17   O11   S    
C1    C3    S    
C9    O5    A    
C20   C24   A    
C22   C23   A    
C10   O6    A    
C17   C19   A    
C15   C17   A    
C16   Cl1   S    
C11   C21   A    
C3    H2    S    
O12   H8    S    
C15   Cl2   S    
C20   C22   A    
C2    O2    A    
C3    C5    D    
