data_mof_unit_8791.cif
_audit_creation_date              2012-12-10T18:35:19-0500
_audit_creation_method            fapswitch 2.2
_symmetry_space_group_name_H-M    P1
_symmetry_Int_Tables_number       1
_space_group_crystal_system       triclinic
_cell_length_a                    14.932333
_cell_length_b                    15.476085
_cell_length_c                    17.216624
_cell_angle_alpha                 91.714584
_cell_angle_beta                  100.665303
_cell_angle_gamma                 97.633399
_cell_volume                      3869.20741826

loop_
_atom_site_label
_atom_site_type_symbol
_atom_type_description
_atom_site_fract_x
_atom_site_fract_y
_atom_site_fract_z
_atom_type_partial_charge
C1    C     C_R   0.557484 0.662349 0.510220 0.860124
C2    C     C_R   0.442650 0.337599 0.487154 0.862631
C3    C     C_R   0.592196 0.754081 0.504365 -0.058980
C4    C     C_R   0.408235 0.244963 0.470388 -0.053882
C5    C     C_R   0.710718 0.868495 0.483519 -0.214590
C6    C     C_R   0.284643 0.124988 0.435531 -0.218614
C7    C     C_R   0.683793 0.782074 0.499254 -0.219463
C8    C     C_R   0.314120 0.213861 0.452247 -0.221064
C9    C     C_R   0.528411 0.812320 0.493375 -0.254878
C10   C     C_R   0.472128 0.187570 0.468824 -0.258094
C11   C     C_R   0.551602 0.896627 0.470444 0.091200
C12   C     C_R   0.444599 0.098717 0.449459 0.088310
C13   C     C_R   0.645616 0.927468 0.470464 0.120591
C14   C     C_R   0.349170 0.065866 0.436985 0.123755
C15   C     C_R   0.483218 0.951594 0.451346 0.047956
C16   C     C_R   0.510951 0.041533 0.448619 0.046942
C17   C     C_R   0.604201 0.071603 0.446262 -0.281073
C18   C     C_R   0.388022 0.919149 0.434820 -0.279453
C19   C     C_R   0.671261 0.015767 0.456468 -0.027134
C20   C     C_R   0.321207 0.975040 0.427003 -0.025859
C21   C     C_R   0.163535 0.626443 0.374100 -0.302995
C22   C     C_R   0.832388 0.362468 0.616869 -0.331649
C23   C     C_R   0.509960 0.496538 0.350307 0.857578
C24   C     C_R   0.490456 0.504675 0.649605 0.860210
C25   C     C_R   0.253076 0.610100 0.398687 0.019946
C26   C     C_R   0.745511 0.387298 0.599064 0.036902
C27   C     C_R   0.206367 0.508876 0.489033 -0.047817
C28   C     C_R   0.792759 0.486549 0.507463 -0.048561
C29   C     C_R   0.113680 0.522279 0.466943 -0.033350
C30   C     C_R   0.882023 0.462624 0.520960 -0.016661
C31   C     C_R   0.092589 0.582141 0.407347 0.160226
C32   C     C_R   0.901942 0.399995 0.578254 0.131284
C33   C     C_R   0.042456 0.479102 0.502378 0.027513
C34   C     C_R   0.951551 0.499835 0.480573 0.050570
C35   C     C_R   0.932372 0.555861 0.418139 -0.273795
C36   C     C_R   0.059296 0.415751 0.558726 -0.228926
C37   C     C_R   0.001304 0.596392 0.381459 0.108319
C38   C     C_R   0.990808 0.376250 0.595773 0.097754
C39   C     C_R   0.514454 0.501464 0.267362 -0.074680
C40   C     C_R   0.488718 0.508482 0.733123 -0.073768
C41   C     C_R   0.432900 0.489156 0.208945 -0.020214
C42   C     C_R   0.570664 0.533315 0.789608 -0.022111
C43   C     C_R   0.438729 0.509830 0.132206 -0.205441
C44   C     C_R   0.567943 0.524863 0.869067 -0.201557
C45   C     C_R   0.524402 0.536828 0.112242 0.192129
C46   C     C_R   0.484606 0.495613 0.892296 0.190178
C47   C     C_R   0.604679 0.548193 0.169645 -0.177721
C48   C     C_R   0.403799 0.472682 0.836447 -0.176559
C49   C     C_R   0.599815 0.530391 0.247177 -0.218371
C50   C     C_R   0.405652 0.479589 0.756928 -0.218367
C51   C     C_2   0.531097 0.546450 0.030132 -0.236160
C52   C     C_2   0.480339 0.488538 0.975006 -0.231893
H1    H     H_    0.626454 0.138554 0.434881 0.155446
H2    H     H_    0.363774 0.849910 0.426423 0.152941
H3    H     H_    0.771960 0.535908 0.468085 0.121892
H4    H     H_    0.229624 0.464854 0.532977 0.124129
H5    H     H_    0.691301 0.358207 0.627928 0.132854
H6    H     H_    0.307869 0.642392 0.372184 0.132219
H7    H     H_    0.150424 0.672782 0.328926 0.163407
H8    H     H_    0.843996 0.314202 0.660407 0.140173
H9    H     H_    0.863446 0.567704 0.394673 0.128848
H10   H     H_    0.125287 0.393883 0.575249 0.147200
H11   H     H_    0.342851 0.459748 0.713920 0.155175
H12   H     H_    0.662417 0.541414 0.291678 0.151295
H13   H     H_    0.432006 0.435912 0.990404 0.151111
H14   H     H_    0.580289 0.598786 0.015633 0.149263
H15   H     H_    0.670963 0.569277 0.154152 0.126714
H16   H     H_    0.339395 0.449646 0.854499 0.130671
H17   H     H_    0.631007 0.540881 0.912529 0.129941
H18   H     H_    0.376363 0.502588 0.087418 0.132146
H19   H     H_    0.544102 0.212841 0.486449 0.162684
H20   H     H_    0.460031 0.790766 0.503589 0.159701
H21   H     H_    0.263409 0.257901 0.451831 0.154926
H22   H     H_    0.734105 0.737115 0.506174 0.153232
H23   H     H_    0.782101 0.887828 0.480031 0.148359
H24   H     H_    0.211295 0.103266 0.422503 0.149011
N1    N     N_R   0.271750 0.551950 0.454510 -0.096883
N2    N     N_R   0.728250 0.448050 0.545490 -0.097892
O1    O     O_R   0.615140 0.606020 0.522930 -0.615198
O2    O     O_R   0.384860 0.393980 0.477070 -0.616480
O3    O     O_R   0.468580 0.639400 0.493740 -0.623190
O4    O     O_R   0.531420 0.360600 0.506260 -0.625717
O5    O     O_R   0.581950 0.481350 0.400520 -0.625896
O6    O     O_R   0.418050 0.518650 0.599480 -0.624633
O7    O     O_R   0.435380 0.514730 0.371330 -0.606086
O8    O     O_R   0.564620 0.485270 0.628670 -0.606869
Zn1   Zn    Zn3+2 0.597860 0.477710 0.519490 0.947825
Zn2   Zn    Zn3+2 0.402140 0.522290 0.480510 0.949604
C53   C     C_R   0.341311 0.453660 0.225552 0.140045
C54   C     C_R   0.267463 0.502233 0.209900 -0.159678
C55   C     C_R   0.182063 0.469992 0.227801 -0.133691
C56   C     C_R   0.169600 0.389027 0.261024 -0.112094
C57   C     C_R   0.242291 0.339787 0.275784 -0.127919
C58   C     C_R   0.327915 0.371830 0.258230 -0.112777
H25   H     H_    0.276506 0.565604 0.185135 0.119428
H26   H     H_    0.125694 0.508065 0.216404 0.124582
H27   H     H_    0.103563 0.364365 0.275152 0.121677
H28   H     H_    0.232232 0.276737 0.300766 0.130031
H29   H     H_    0.383847 0.333243 0.270454 0.107602
C59   C     C_R   0.659405 0.568271 0.767455 0.136678
C60   C     C_R   0.666911 0.644877 0.725861 -0.115855
C61   C     C_R   0.748971 0.674741 0.700932 -0.120490
C62   C     C_R   0.823954 0.628503 0.717316 -0.110561
C63   C     C_R   0.817344 0.552809 0.759397 -0.134920
C64   C     C_R   0.735529 0.522861 0.784716 -0.155719
H30   H     H_    0.608869 0.680621 0.711858 0.102670
H31   H     H_    0.754211 0.733407 0.668449 0.126480
H32   H     H_    0.887146 0.651285 0.697371 0.123201
H33   H     H_    0.875374 0.516913 0.771810 0.128998
H34   H     H_    0.730766 0.463324 0.816120 0.120630
N3    N     N_3   0.978533 0.651943 0.317269 -0.483017
H35   H     H_    0.909985 0.662940 0.310369 0.172025
H36   H     H_    0.984817 0.618694 0.265213 0.167966
N4    N     N_3   0.014498 0.312654 0.652135 -0.478084
H37   H     H_    0.971916 0.253618 0.633905 0.188106
H38   H     H_    0.003391 0.334215 0.707240 0.177014
C65   C     C_R   0.767948 0.053426 0.456301 0.125853
C66   C     C_R   0.792152 0.088712 0.387591 -0.156562
C67   C     C_R   0.883085 0.125088 0.387609 -0.134264
C68   C     C_R   0.950268 0.126846 0.456193 -0.089839
C69   C     C_R   0.926519 0.092677 0.525017 -0.159852
C70   C     C_R   0.835600 0.056697 0.525394 -0.177514
H39   H     H_    0.740742 0.087591 0.334042 0.128989
H40   H     H_    0.901489 0.151851 0.334416 0.125062
H41   H     H_    0.020646 0.154835 0.456064 0.121071
H42   H     H_    0.978536 0.094261 0.578149 0.127256
H43   H     H_    0.817902 0.031095 0.579301 0.130433
C71   C     C_R   0.223149 0.935865 0.413565 0.126330
C72   C     C_R   0.181490 0.890928 0.341192 -0.177187
C73   C     C_R   0.088654 0.854850 0.328137 -0.133082
C74   C     C_R   0.037203 0.862605 0.387454 -0.070447
C75   C     C_R   0.078607 0.906168 0.460073 -0.139496
C76   C     C_R   0.171407 0.942383 0.473353 -0.171547
H44   H     H_    0.220633 0.884646 0.294774 0.128247
H45   H     H_    0.056592 0.820922 0.271981 0.133506
H46   H     H_    0.965320 0.834750 0.377213 0.125770
H47   H     H_    0.038753 0.912008 0.506002 0.129854
H48   H     H_    0.202836 0.976021 0.529849 0.132731

loop_
_geom_bond_atom_site_label_1
_geom_bond_atom_site_label_2
_ccdc_geom_bond_type
N2    Zn1   S    
C15   C18   A    
C41   C53   S    
C64   H34   S    
C57   C58   A    
C29   C33   A    
C27   C29   A    
O5    Zn1   S    
N3    H35   S    
C9    H20   S    
C4    C8    A    
C71   C72   A    
C27   H4    S    
O1    Zn1   S    
N4    H37   S    
C54   H25   S    
C39   C41   A    
C67   H40   S    
C21   C31   A    
C59   C64   A    
C26   N2    A    
C22   C32   A    
C25   N1    A    
C35   C37   A    
C20   C71   S    
C3    C7    A    
C22   H8    S    
C63   H33   S    
C38   N4    S    
C23   C39   S    
C45   C51   S    
C1    O3    A    
C15   C16   A    
C46   C52   S    
C70   H43   S    
C33   C36   A    
C34   C35   A    
C53   C58   A    
C66   C67   A    
C56   C57   A    
C17   C19   A    
C55   H26   S    
C11   C15   A    
C12   C16   A    
N1    Zn2   S    
C75   C76   A    
C62   H32   S    
C32   C38   A    
C28   N2    A    
C5    C13   A    
C10   H19   S    
C40   C42   A    
C76   H48   S    
C49   H12   S    
C50   H11   S    
C41   C43   A    
C42   C44   A    
C36   H10   S    
C10   C12   A    
C47   H15   S    
C63   C64   A    
C28   H3    S    
C44   C46   A    
C56   H27   S    
C7    H22   S    
C45   C47   A    
C46   C48   A    
C13   C19   A    
C51   C52   D    
C60   C61   A    
C14   C20   A    
C61   H31   S    
C47   C49   A    
C74   H46   S    
C55   C56   A    
C5    C7    A    
C30   C34   A    
C68   H41   S    
C16   C17   A    
C6    C8    A    
C75   H47   S    
C31   C37   A    
C1    C3    S    
C51   H14   S    
C5    H23   S    
C2    C4    S    
C65   C70   A    
C3    C9    A    
C42   C59   S    
C6    C14   A    
C43   C45   A    
C33   C34   A    
C44   H17   S    
N3    H36   S    
C48   H16   S    
C9    C11   A    
C69   C70   A    
C23   O5    A    
C39   C49   A    
C73   H45   S    
C12   C14   A    
C43   H18   S    
C23   O7    A    
C1    O1    A    
C2    O4    A    
C25   H6    S    
C4    C10   A    
C74   C75   A    
C17   H1    S    
C68   C69   A    
C72   C73   A    
O7    Zn2   S    
C60   H30   S    
C21   C25   A    
O8    Zn1   S    
O6    Zn2   S    
C27   N1    A    
N4    H38   S    
C67   C68   A    
C6    H24   S    
C36   C38   A    
C73   C74   A    
C24   O6    A    
C69   H42   S    
O2    Zn2   S    
C65   C66   A    
C30   C32   A    
C11   C13   A    
C54   C55   A    
C58   H29   S    
C35   H9    S    
C40   C50   A    
C48   C50   A    
C8    H21   S    
C24   C40   S    
C28   C30   A    
C18   C20   A    
C66   H39   S    
C61   C62   A    
C26   H5    S    
C37   N3    S    
O3    Zn2   S    
C2    O2    A    
C18   H2    S    
C72   H44   S    
C21   H7    S    
C19   C65   S    
C29   C31   A    
C22   C26   A    
C62   C63   A    
C59   C60   A    
C53   C54   A    
C71   C76   A    
C24   O8    A    
C57   H28   S    
C52   H13   S    
O4    Zn1   S    
