data_mof_unit_24698.cif
_audit_creation_date              2012-12-10T18:59:17-0500
_audit_creation_method            fapswitch 2.2
_symmetry_space_group_name_H-M    P1
_symmetry_Int_Tables_number       1
_space_group_crystal_system       triclinic
_cell_length_a                    10.780392
_cell_length_b                    10.832067
_cell_length_c                    9.544818
_cell_angle_alpha                 89.867585
_cell_angle_beta                  90.256538
_cell_angle_gamma                 90.172577
_cell_volume                      1114.56672389

loop_
_atom_site_label
_atom_site_type_symbol
_atom_type_description
_atom_site_fract_x
_atom_site_fract_y
_atom_site_fract_z
_atom_type_partial_charge
C1    C     C_R   0.497169 0.262430 0.500201 0.790624
C2    C     C_R   0.065929 0.395128 0.571876 0.046895
C3    C     C_R   0.128717 0.490493 0.498899 -0.104070
C4    C     C_R   0.063018 0.580915 0.423889 0.139904
C5    C     C_R   0.934570 0.579115 0.424744 -0.268980
C6    C     C_R   0.870887 0.489318 0.500772 -0.124388
C7    C     C_R   0.479080 0.063050 0.624995 0.121643
C8    C     C_R   0.482679 0.129722 0.499977 -0.152025
C9    C     C_R   0.464851 0.066641 0.373216 -0.269801
C10   C     C_R   0.463096 0.937644 0.370394 0.140154
C11   C     C_R   0.480937 0.871005 0.497121 -0.099068
C12   C     C_R   0.262619 0.497161 0.499725 0.833102
C13   C     C_R   0.479433 0.935944 0.623375 0.035826
C14   C     C_3   0.562173 0.926951 0.749165 -0.515640
C15   C     C_3   0.562124 0.067762 0.750998 -0.015847
C16   C     C_R   0.568163 0.585278 0.073733 0.239803
C17   C     C_R   0.422357 0.424609 0.073892 0.244089
C18   C     C_R   0.422818 0.424904 0.924685 -0.097671
C19   C     C_R   0.568136 0.585245 0.926461 0.239557
C20   C     C_3   0.705220 0.603284 0.921135 -0.488898
C21   C     C_3   0.705279 0.603375 0.080112 -0.506161
C22   C     C_R   0.496076 0.737752 0.499327 0.831771
C23   C     C_R   0.737312 0.496290 0.500294 0.792684
C24   C     C_R   0.130319 0.297840 0.639478 -0.175467
C25   C     C_R   0.066133 0.204654 0.709562 -0.135241
C26   C     C_R   0.937189 0.205084 0.711852 -0.145413
C27   C     C_R   0.871685 0.298511 0.643661 -0.182208
C28   C     C_R   0.934864 0.395034 0.573539 0.096490
Cu1   Cu    Cu3+1 0.499990 0.499980 0.640670 0.942439
Cu2   Cu    Cu3+1 0.500010 0.500020 0.359330 0.979958
H1    H     H_    0.362413 0.362537 0.867796 0.153254
H2    H     H_    0.754762 0.522634 0.876561 0.226300
H3    H     H_    0.230278 0.291133 0.637065 0.139895
H4    H     H_    0.116712 0.131024 0.760927 0.128040
H5    H     H_    0.887720 0.131795 0.765156 0.123502
H6    H     H_    0.458372 0.116387 0.275000 0.170457
N1    N     N_R   0.500790 0.500930 0.147930 -0.182479
N2    N     N_R   0.500790 0.500890 0.852020 -0.195328
O1    O     O_R   0.500000 0.319640 0.618810 -0.579780
O2    O     O_R   0.500010 0.319680 0.381230 -0.560826
O3    O     O_R   0.319640 0.499980 0.618820 -0.601078
O4    O     O_R   0.319650 0.500020 0.381230 -0.531969
O5    O     O_R   0.499990 0.680320 0.618770 -0.582933
O6    O     O_R   0.500000 0.680360 0.381190 -0.543089
O7    O     O_R   0.680350 0.499980 0.618770 -0.588942
O8    O     O_R   0.680360 0.500020 0.381180 -0.585617
N3    N     N_3   0.127176 0.676928 0.349727 -0.578529
H7    H     H_    0.098861 0.761892 0.390135 0.209795
H8    H     H_    0.099937 0.673263 0.244537 0.221383
H9    H     H_    0.654460 0.887390 0.723888 0.175496
N4    N     N_3   0.499480 0.120280 0.872869 -0.582538
H10   H     H_    0.554502 0.102628 0.961085 0.214498
H11   H     H_    0.414103 0.076303 0.888894 0.214765
H12   H     H_    0.653900 0.110833 0.730210 0.147121
N5    N     N_3   0.340602 0.343017 0.146813 -0.526993
H13   H     H_    0.249734 0.365568 0.118106 0.198228
H14   H     H_    0.357504 0.253314 0.111772 0.182676
H15   H     H_    0.731007 0.694071 0.875071 0.188645
H16   H     H_    0.755004 0.522838 0.125541 0.223514
H17   H     H_    0.731011 0.694245 0.125860 0.190707
H18   H     H_    0.771640 0.292882 0.644659 0.140510
H19   H     H_    0.884112 0.650186 0.368272 0.145043
N6    N     N_3   0.449043 0.876358 0.238215 -0.560435
H20   H     H_    0.521022 0.905173 0.172582 0.200740
H21   H     H_    0.365280 0.904778 0.193070 0.210847
H22   H     H_    0.514679 0.882953 0.839751 0.201063

loop_
_geom_bond_atom_site_label_1
_geom_bond_atom_site_label_2
_ccdc_geom_bond_type
Cu1   N2    S    
C9    H6    S    
C2    C28   A    
N5    H13   S    
N6    H21   S    
C16   C21   S    
C12   O3    A    
C23   O7    A    
C19   N2    A    
C15   N4    S    
C1    C8    S    
C9    C10   A    
C17   N5    S    
C11   C22   S    
N3    H7    S    
C16   N1    A    
Cu1   O1    S    
C10   N6    S    
C7    C15   S    
C2    C3    A    
C14   H22   S    
Cu2   O2    S    
C7    C8    A    
N3    H8    S    
C23   O8    A    
C17   N1    A    
C13   C14   S    
Cu1   O5    S    
C4    C5    A    
C11   C13   A    
Cu2   O6    S    
C26   C27   A    
Cu1   Cu2   S    
C16   C19   A    
C6    C23   S    
C25   C26   A    
C5    H19   S    
C21   H16   S    
N5    H14   S    
C2    C24   A    
C5    C6    A    
C22   O6    A    
C10   C11   A    
C1    O1    A    
N6    H20   S    
C20   H15   S    
N4    H10   S    
C15   H12   S    
C26   H5    S    
C7    C13   A    
C25   H4    S    
C24   C25   A    
C24   H3    S    
C21   H17   S    
C17   C18   A    
C14   H9    S    
C20   H2    S    
C27   C28   A    
C3    C12   S    
C14   C15   S    
Cu2   O4    S    
C12   O4    A    
C18   H1    S    
C27   H18   S    
C1    O2    A    
Cu1   O3    S    
C20   C21   S    
C18   N2    A    
Cu2   O8    S    
C22   O5    A    
C6    C28   A    
C3    C4    A    
C19   C20   S    
Cu2   N1    S    
Cu1   O7    S    
C8    C9    A    
N4    H11   S    
C4    N3    S    
