data_mof_unit_52185.cif
_audit_creation_date              2012-12-11T17:36:23-0500
_audit_creation_method            fapswitch 2.2
_symmetry_space_group_name_H-M    P1
_symmetry_Int_Tables_number       1
_space_group_crystal_system       triclinic
_cell_length_a                    25.85133
_cell_length_b                    6.896844
_cell_length_c                    21.681085
_cell_angle_alpha                 90.000029
_cell_angle_beta                  96.093283
_cell_angle_gamma                 90.001512
_cell_volume                      3843.7378198

loop_
_atom_site_label
_atom_site_type_symbol
_atom_type_description
_atom_site_fract_x
_atom_site_fract_y
_atom_site_fract_z
_atom_type_partial_charge
O1    O     O_R   0.208650 0.594520 0.175450 -0.536987
O2    O     O_R   0.791350 0.405480 0.824550 -0.536987
O3    O     O_R   0.291350 0.094520 0.324550 -0.536995
O4    O     O_R   0.708650 0.905480 0.675450 -0.536996
O5    O     O_R   0.192980 0.260780 0.300160 -0.542759
O6    O     O_R   0.807020 0.739220 0.699840 -0.542759
O7    O     O_R   0.307020 0.760780 0.199840 -0.542759
O8    O     O_R   0.692980 0.239220 0.800160 -0.542759
C1    C     C_R   0.178823 0.432881 0.318478 0.693293
C2    C     C_R   0.821177 0.567119 0.681522 0.693294
C3    C     C_R   0.321176 0.932884 0.181521 0.693298
C4    C     C_R   0.678824 0.067116 0.818478 0.693297
O9    O     O_R   0.202550 0.264660 0.174420 -0.536544
O10   O     O_R   0.797450 0.735340 0.825580 -0.536544
O11   O     O_R   0.297450 0.764660 0.325580 -0.536539
O12   O     O_R   0.702550 0.235340 0.674420 -0.536539
O13   O     O_R   0.300990 0.096480 0.197920 -0.539138
O14   O     O_R   0.699010 0.903520 0.802080 -0.539138
O15   O     O_R   0.199010 0.596480 0.302080 -0.539115
O16   O     O_R   0.800990 0.403520 0.697920 -0.539115
C5    C     C_R   0.191079 0.433692 0.151116 0.724148
C6    C     C_R   0.808921 0.566308 0.848884 0.724147
C7    C     C_R   0.308920 0.933698 0.348883 0.724140
C8    C     C_R   0.691080 0.066301 0.651117 0.724140
O17   O     O_3   0.282290 0.427760 0.257860 -0.363295
O18   O     O_3   0.717710 0.572240 0.742140 -0.363295
O19   O     O_3   0.217710 0.927760 0.242140 -0.363273
O20   O     O_3   0.782290 0.072240 0.757860 -0.363272
V1    V     V_3+5 0.244010 0.152080 0.248540 1.438336
V2    V     V_3+5 0.755990 0.847920 0.751460 1.438336
V3    V     V_3+5 0.255990 0.652080 0.251460 1.438363
V4    V     V_3+5 0.744010 0.347920 0.748540 1.438363
C9    C     C_R   0.657073 0.056411 0.591709 -0.183097
C10   C     C_R   0.342927 0.943589 0.408291 -0.183097
C11   C     C_R   0.842928 0.556466 0.908294 -0.183107
C12   C     C_R   0.157072 0.443533 0.091706 -0.183107
C13   C     C_R   0.649145 0.036946 0.478999 0.218063
C14   C     C_R   0.350855 0.963054 0.521001 0.218063
C15   C     C_R   0.850872 0.537751 0.021018 0.218040
C16   C     C_R   0.149128 0.462249 0.978982 0.218040
C17   C     C_R   0.679283 0.075075 0.535580 0.131354
C18   C     C_R   0.320717 0.924925 0.464419 0.131354
C19   C     C_R   0.820735 0.575635 0.964418 0.131366
C20   C     C_R   0.179265 0.424365 0.035582 0.131366
C21   C     C_R   0.603067 0.022682 0.590517 -0.064229
C22   C     C_R   0.396933 0.977318 0.409483 -0.064229
C23   C     C_R   0.896921 0.522455 0.909494 -0.064269
C24   C     C_R   0.103079 0.477545 0.090506 -0.064269
C25   C     C_R   0.570696 0.020633 0.532820 0.010950
C26   C     C_R   0.429304 0.979367 0.467180 0.010950
C27   C     C_R   0.929303 0.520679 0.967183 0.010956
C28   C     C_R   0.070696 0.479321 0.032816 0.010956
C29   C     C_R   0.595321 0.992314 0.478046 -0.021247
C30   C     C_R   0.404679 0.007686 0.521954 -0.021247
C31   C     C_R   0.904683 0.492881 0.021987 -0.021253
C32   C     C_R   0.095317 0.507119 0.978013 -0.021253
C33   C     C_R   0.514885 0.032913 0.527591 0.025759
C34   C     C_R   0.485115 0.967086 0.472409 0.025759
C35   C     C_R   0.985118 0.532764 0.972388 0.025797
C36   C     C_R   0.014882 0.467236 0.027612 0.025797
C37   C     C_R   0.511984 0.877140 0.426496 0.134986
C38   C     C_R   0.488016 0.122859 0.573504 0.134986
C39   C     C_R   0.988000 0.377752 0.073600 0.134963
C40   C     C_R   0.012000 0.622248 0.926400 0.134963
C41   C     C_R   0.565925 0.906939 0.426009 -0.087576
C42   C     C_R   0.434075 0.093061 0.573990 -0.087576
C43   C     C_R   0.934068 0.407780 0.074080 -0.087616
C44   C     C_R   0.065932 0.592220 0.925920 -0.087616
C45   C     C_R   0.427783 0.793734 0.080012 -0.117522
C46   C     C_R   0.572218 0.206266 0.919988 -0.117522
C47   C     C_R   0.072223 0.293725 0.419999 -0.117511
C48   C     C_R   0.927777 0.706275 0.580001 -0.117511
H1    H     H_    0.446424 0.663209 0.065534 0.109593
H2    H     H_    0.553576 0.336791 0.934466 0.109593
H3    H     H_    0.053587 0.163197 0.434487 0.109594
H4    H     H_    0.946413 0.836803 0.565513 0.109594
C49   C     C_R   0.388510 0.778767 0.119951 -0.157905
C50   C     C_R   0.611490 0.221233 0.880049 -0.157906
C51   C     C_R   0.111495 0.278757 0.380061 -0.157943
C52   C     C_R   0.888505 0.721243 0.619939 -0.157943
H5    H     H_    0.377758 0.636397 0.135314 0.121235
H6    H     H_    0.622242 0.363603 0.864686 0.121235
H7    H     H_    0.122253 0.136385 0.364707 0.121252
H8    H     H_    0.877747 0.863615 0.635293 0.121252
C53   C     C_R   0.363459 0.945872 0.139583 -0.050202
C54   C     C_R   0.636541 0.054128 0.860417 -0.050202
C55   C     C_R   0.136541 0.445866 0.360417 -0.050286
C56   C     C_R   0.863459 0.554134 0.639583 -0.050286
C57   C     C_R   0.378925 0.127854 0.118062 -0.137744
C58   C     C_R   0.621075 0.872146 0.881938 -0.137744
C59   C     C_R   0.121068 0.627851 0.381925 -0.137753
C60   C     C_R   0.878932 0.372149 0.618074 -0.137753
H9    H     H_    0.360647 0.260019 0.131761 0.121830
H10   H     H_    0.639353 0.739981 0.868239 0.121830
H11   H     H_    0.139340 0.760020 0.368216 0.121863
H12   H     H_    0.860660 0.239980 0.631783 0.121863
C61   C     C_R   0.418073 0.142315 0.078248 -0.119529
C62   C     C_R   0.581927 0.857685 0.921752 -0.119529
C63   C     C_R   0.081920 0.642312 0.421739 -0.119539
C64   C     C_R   0.918080 0.357687 0.578261 -0.119539
H13   H     H_    0.429014 0.284049 0.062433 0.107542
H14   H     H_    0.570986 0.715951 0.937567 0.107542
H15   H     H_    0.070974 0.784050 0.437544 0.107550
H16   H     H_    0.929026 0.215950 0.562456 0.107550
C65   C     C_R   0.442747 0.975659 0.058895 0.126428
C66   C     C_R   0.557253 0.024341 0.941105 0.126427
C67   C     C_R   0.057252 0.475654 0.441105 0.126420
C68   C     C_R   0.942748 0.524346 0.558895 0.126420
C69   C     C_1   0.483153 0.992365 0.017360 -0.041097
C70   C     C_1   0.516847 0.007635 0.982640 -0.041097
C71   C     C_1   0.016847 0.492363 0.482640 -0.041091
C72   C     C_1   0.983153 0.507637 0.517360 -0.041091
C73   C     C_1   0.590916 0.825345 0.375133 0.382810
N1    N     N_1   0.610649 0.759593 0.334438 -0.317781
C74   C     C_1   0.409084 0.174655 0.624867 0.382810
N2    N     N_1   0.389351 0.240407 0.665562 -0.317781
C75   C     C_1   0.909068 0.326689 0.125027 0.382801
N3    N     N_1   0.889328 0.261340 0.165780 -0.317777
C76   C     C_1   0.090932 0.673311 0.874973 0.382801
N4    N     N_1   0.110672 0.738660 0.834220 -0.317777
C77   C     C_1   0.416521 0.044751 0.352987 0.333943
N5    N     N_1   0.431808 0.099714 0.307837 -0.360217
C78   C     C_1   0.583479 0.955249 0.647013 0.333943
N6    N     N_1   0.568192 0.900286 0.692163 -0.360217
C79   C     C_1   0.083525 0.545483 0.146963 0.334024
N7    N     N_1   0.068265 0.600848 0.192081 -0.360207
C80   C     C_1   0.916475 0.454516 0.853037 0.334023
N8    N     N_1   0.931735 0.399152 0.807919 -0.360207
N9    N     N_3   0.266541 0.879224 0.464749 -0.675033
H17   H     H_    0.244497 0.985700 0.439692 0.220483
H18   H     H_    0.259310 0.745971 0.442493 0.232017
N10   N     N_3   0.733459 0.120776 0.535251 -0.675033
H19   H     H_    0.755503 0.014300 0.560308 0.220483
H20   H     H_    0.740690 0.254029 0.557506 0.232017
N11   N     N_3   0.233424 0.378382 0.035266 -0.675035
H21   H     H_    0.255507 0.484888 0.060262 0.220446
H22   H     H_    0.240614 0.245217 0.057590 0.232060
N12   N     N_3   0.766576 0.621618 0.964734 -0.675036
H23   H     H_    0.744493 0.515112 0.939738 0.220446
H24   H     H_    0.759385 0.754783 0.942410 0.232060
N13   N     N_3   0.673060 0.050610 0.422380 -0.635887
H25   H     H_    0.704081 0.952668 0.424556 0.259449
H26   H     H_    0.687894 0.190772 0.418882 0.261881
N14   N     N_3   0.326940 0.949390 0.577620 -0.635887
H27   H     H_    0.295919 0.047332 0.575444 0.259449
H28   H     H_    0.312106 0.809228 0.581117 0.261880
N15   N     N_3   0.826973 0.551931 0.077635 -0.635916
H29   H     H_    0.795923 0.454120 0.075536 0.259468
H30   H     H_    0.812181 0.692189 0.081042 0.261837
N16   N     N_3   0.173027 0.448069 0.922364 -0.635916
H31   H     H_    0.204076 0.545880 0.924464 0.259468
H32   H     H_    0.187819 0.307811 0.918957 0.261837
N17   N     N_3   0.485552 0.737454 0.385071 -0.656664
H33   H     H_    0.502421 0.601614 0.394890 0.240195
H34   H     H_    0.491129 0.772910 0.339367 0.250162
N18   N     N_3   0.514448 0.262546 0.614929 -0.656664
H35   H     H_    0.508871 0.227089 0.660633 0.250162
H36   H     H_    0.497579 0.398386 0.605109 0.240195
N19   N     N_3   0.014405 0.238270 0.115123 -0.656640
H37   H     H_    0.997500 0.102425 0.105409 0.240245
H38   H     H_    0.008844 0.274097 0.160803 0.250140
N20   N     N_3   0.985595 0.761730 0.884877 -0.656640
H39   H     H_    0.991155 0.725903 0.839196 0.250140
H40   H     H_    0.002500 0.897575 0.894591 0.240245

loop_
_geom_bond_atom_site_label_1
_geom_bond_atom_site_label_2
_ccdc_geom_bond_type
O17   V3    S    
C63   H15   S    
O1    C5    A    
C47   C67   A    
O19   V1    S    
C9    C21   A    
O3    C7    A    
N15   H29   S    
C10   C18   A    
C39   N19   S    
C48   H4    S    
C11   C23   A    
C51   C55   A    
C25   C33   A    
C78   N6    T    
C5    C12   S    
C21   C78   S    
O7    C3    A    
C6    C11   S    
C2    C56   S    
C35   C40   A    
C26   C30   A    
C13   N13   S    
C36   C39   A    
C40   C44   A    
O9    V1    S    
N18   H35   S    
N15   H30   S    
C3    C53   S    
C14   C18   A    
C55   C59   A    
N13   H26   S    
C44   C76   S    
C66   C70   S    
O4    C8    A    
C46   C50   A    
C74   N2    T    
C60   H12   S    
O13   V1    S    
C19   N12   S    
O2    V4    S    
O3    V1    S    
O12   V4    S    
C28   C36   A    
C24   C79   S    
C45   C49   A    
C1    O15   A    
C64   H16   S    
C15   C31   A    
C56   C60   A    
C2    O16   A    
N10   H19   S    
C16   C32   A    
O2    C6    A    
N19   H38   S    
C22   C77   S    
C45   H1    S    
C10   C22   A    
C21   C25   A    
N17   H34   S    
C11   C19   A    
C16   C20   A    
N20   H40   S    
C52   H8    S    
C13   C29   A    
C50   C54   A    
C34   C37   A    
O11   C7    A    
O15   V3    S    
C35   C36   A    
O12   C8    A    
C14   N14   S    
C41   C73   S    
O10   V2    S    
C47   C51   A    
C58   H10   S    
O5    V1    S    
O1    V3    S    
O17   V1    S    
C39   C43   A    
C64   C68   A    
O7    V3    S    
C42   C74   S    
C38   C42   A    
O19   V3    S    
C26   C34   A    
C48   C68   A    
N11   H21   S    
C40   N20   S    
C54   C58   A    
C53   C57   A    
O18   V4    S    
C15   C19   A    
C33   C38   A    
C62   H14   S    
C59   H11   S    
C57   H9    S    
C68   C72   S    
C57   C61   A    
O8    V4    S    
C46   H2    S    
C50   H6    S    
C31   C43   A    
N19   H37   S    
C14   C30   A    
O20   V4    S    
O8    C4    A    
C7    C10   S    
C61   H13   S    
C16   N16   S    
O11   V3    S    
C43   C75   S    
C77   N5    T    
N12   H24   S    
N10   H20   S    
O14   V2    S    
N14   H28   S    
O6    V2    S    
O18   V2    S    
N13   H25   S    
C46   C66   A    
C79   N7    T    
N16   H32   S    
C12   C20   A    
C27   C35   A    
C15   N15   S    
C80   N8    T    
C29   C41   A    
C60   C64   A    
C73   N1    T    
O16   V4    S    
N11   H22   S    
C65   C69   S    
C3    O13   A    
C45   C65   A    
C71   C72   T    
C67   C71   S    
O5    C1    A    
N14   H27   S    
C37   N17   S    
O6    C2    A    
C17   N10   S    
C23   C27   A    
C76   N4    T    
C23   C80   S    
C30   C42   A    
N20   H39   S    
C63   C67   A    
C22   C26   A    
C8    C9    S    
C62   C66   A    
C4    C54   S    
C9    C17   A    
O10   C6    A    
N18   H36   S    
N9    H17   S    
C61   C65   A    
C48   C52   A    
C32   C44   A    
C75   N3    T    
O9    C5    A    
C47   H3    S    
C33   C34   A    
C20   N11   S    
C25   C29   A    
O20   V2    S    
C38   N18   S    
C12   C24   A    
C18   N9    S    
C27   C31   A    
C13   C17   A    
O4    V2    S    
N12   H23   S    
C49   C53   A    
C51   H7    S    
C37   C41   A    
C24   C28   A    
C52   C56   A    
C49   H5    S    
C4    O14   A    
N16   H31   S    
C59   C63   A    
N17   H33   S    
C69   C70   T    
C58   C62   A    
C1    C55   S    
C28   C32   A    
N9    H18   S    
