data_mof_unit_10833.cif
_audit_creation_date              2012-10-26T19:41:36-0400
_audit_creation_method            fapswitch 2.2
_symmetry_space_group_name_H-M    P1
_symmetry_Int_Tables_number       1
_space_group_crystal_system       triclinic
_cell_length_a                    17.225314
_cell_length_b                    11.019076
_cell_length_c                    9.883145
_cell_angle_alpha                 112.561548
_cell_angle_beta                  94.252857
_cell_angle_gamma                 89.574611
_cell_volume                      1727.10432702

loop_
_atom_site_label
_atom_site_type_symbol
_atom_type_description
_atom_site_fract_x
_atom_site_fract_y
_atom_site_fract_z
_atom_type_partial_charge
C1    C     C_R   0.498246 0.253601 0.439638 0.587687
C2    C     C_R   0.647787 0.492046 0.477997 0.586214
C3    C     C_R   0.267930 0.505683 0.535992 -0.014151
C4    C     C_R   0.730589 0.475745 0.457988 0.035039
C5    C     C_R   0.216460 0.579781 0.480933 0.003186
C6    C     C_R   0.763262 0.349791 0.392030 0.004768
C7    C     C_R   0.137551 0.579039 0.504899 -0.096370
C8    C     C_R   0.844090 0.340760 0.389850 -0.157531
C9    C     C_R   0.107744 0.492280 0.561698 0.008527
C10   C     C_R   0.891291 0.453989 0.438215 0.034432
C11   C     C_R   0.158702 0.418808 0.615262 -0.124679
C12   C     C_R   0.505443 0.746455 0.560305 0.524275
C13   C     C_R   0.858254 0.578157 0.495814 -0.124782
C14   C     C_R   0.238544 0.428302 0.605992 -0.139450
C15   C     C_R   0.778472 0.588813 0.509144 -0.170764
C16   C     C_2   0.022483 0.478249 0.561716 -0.009586
C17   C     C_2   0.976342 0.442886 0.432914 -0.003643
C18   C     C_2   0.242365 0.655229 0.395333 0.184822
C19   C     C_2   0.717183 0.225109 0.322345 0.176027
C20   C     C_3   0.011409 0.394647 0.283124 -0.249560
C21   C     C_3   0.952621 0.344537 0.147240 -0.300444
C22   C     C_3   0.993506 0.310008 0.005618 -0.463902
C23   C     C_2   0.494803 0.112934 0.406168 -0.085907
C24   C     C_3   0.989849 0.506057 0.709925 -0.244846
C25   C     C_3   0.001830 0.651208 0.811921 -0.291889
C26   C     C_3   0.964541 0.681256 0.956355 -0.449663
C27   C     C_3   0.399412 0.920387 0.466506 -0.229180
C28   C     C_3   0.349209 0.041088 0.540809 -0.319111
C29   C     C_3   0.262821 0.004705 0.523515 -0.435105
C30   C     C_3   0.605704 0.116331 0.586019 -0.222335
C31   C     C_3   0.672073 0.024090 0.517393 -0.302310
C32   C     C_3   0.750568 0.078144 0.600596 -0.467441
C33   C     C_3   0.594438 0.648137 0.955982 -0.100473
C34   C     C_2   0.521733 0.884926 0.594353 -0.129024
C35   C     C_3   0.619816 0.758234 0.908686 -0.249256
C36   C     C_3   0.683319 0.846135 0.017837 -0.498881
C37   C     C_3   0.410970 0.339337 0.057194 -0.094248
C38   C     C_3   0.453682 0.210681 0.979279 -0.290466
C39   C     C_3   0.402325 0.089960 0.952224 -0.467853
C40   C     C_2   0.526958 0.062594 0.501583 -0.006219
C41   C     C_2   0.485743 0.950185 0.517922 -0.011798
C42   C     C_2   0.510522 0.496853 0.075676 0.004275
C43   C     C_2   0.497527 0.483006 0.914974 -0.001258
C44   C     C_R   0.351794 0.504949 0.520852 0.517024
Cu1   Cu    Cu3+1 0.513640 0.521550 0.643210 0.912270
Cu2   Cu    Cu3+1 0.486360 0.478450 0.356790 0.940229
H1    H     H_    0.753846 0.685393 0.558114 0.092659
H2    H     H_    0.558665 0.556430 0.144917 0.133018
H3    H     H_    0.303019 0.663473 0.379443 0.137365
H4    H     H_    0.746791 0.132072 0.290331 0.086061
H5    H     H_    0.025286 0.397357 0.005771 0.153819
H6    H     H_    0.035368 0.230089 0.994020 0.152606
H7    H     H_    0.949710 0.276058 0.909716 0.137914
H8    H     H_    0.921765 0.254561 0.141684 0.159287
H9    H     H_    0.909349 0.421414 0.153033 0.173251
H10   H     H_    0.044804 0.476276 0.274213 0.161282
H11   H     H_    0.052157 0.314203 0.276747 0.149545
H12   H     H_    0.277274 0.370379 0.647547 0.111991
H13   H     H_    0.900841 0.660023 0.935361 0.146832
H14   H     H_    0.991033 0.621392 0.015241 0.162023
H15   H     H_    0.974104 0.786841 0.027462 0.145128
H16   H     H_    0.065137 0.675763 0.836442 0.176237
H17   H     H_    0.975616 0.714728 0.757371 0.154400
H18   H     H_    0.927142 0.478721 0.698615 0.154695
H19   H     H_    0.019800 0.444006 0.762589 0.129372
H20   H     H_    0.242629 0.958366 0.405223 0.200879
H21   H     H_    0.251999 0.936413 0.578844 0.173134
H22   H     H_    0.228973 0.094869 0.575099 0.129303
H23   H     H_    0.136850 0.352390 0.661467 0.104602
H24   H     H_    0.367752 0.087474 0.659626 0.166877
H25   H     H_    0.356123 0.115949 0.492957 0.154244
H26   H     H_    0.390741 0.885885 0.344997 0.143568
H27   H     H_    0.378093 0.840603 0.497056 0.145949
H28   H     H_    0.763379 0.176405 0.599490 0.153904
H29   H     H_    0.750335 0.086458 0.716195 0.151557
H30   H     H_    0.797319 0.010559 0.547382 0.135998
H31   H     H_    0.662779 0.924292 0.516172 0.153065
H32   H     H_    0.674243 0.013021 0.401395 0.172932
H33   H     H_    0.621355 0.213016 0.584200 0.192943
H34   H     H_    0.894521 0.666408 0.532776 0.109272
H35   H     H_    0.603213 0.132858 0.703768 0.126265
H36   H     H_    0.661714 0.892195 0.129011 0.158116
H37   H     H_    0.735605 0.788050 0.023304 0.141480
H38   H     H_    0.700335 0.925510 0.981957 0.148513
H39   H     H_    0.644140 0.719242 0.800509 0.205336
H40   H     H_    0.569525 0.821737 0.908094 0.180438
H41   H     H_    0.571402 0.704186 0.064218 0.106808
H42   H     H_    0.646433 0.592874 0.971289 0.119684
H43   H     H_    0.391901 0.082572 0.058427 0.156192
H44   H     H_    0.345386 0.096210 0.895076 0.141645
H45   H     H_    0.870577 0.245165 0.347964 0.088710
H46   H     H_    0.431863 0.999811 0.883386 0.155226
H47   H     H_    0.471752 0.207481 0.872415 0.131777
H48   H     H_    0.507170 0.205721 0.047020 0.216114
H49   H     H_    0.372281 0.324486 0.134556 0.184789
H50   H     H_    0.371940 0.365325 0.978233 0.087434
H51   H     H_    0.097920 0.641738 0.472623 0.148917
H52   H     H_    0.573256 0.924591 0.667600 0.080749
H53   H     H_    0.451383 0.057445 0.319568 0.071269
H54   H     H_    0.454130 0.412885 0.843042 0.138259
N1    N     N_2   0.465840 0.446060 0.141630 -0.246550
N2    N     N_2   0.534160 0.553940 0.858370 -0.233332
O1    O     O_R   0.507280 0.332200 0.576490 -0.515926
O2    O     O_2   0.647075 0.223291 0.294002 -0.519597
O3    O     O_R   0.492720 0.667800 0.423510 -0.499187
O4    O     O_R   0.484240 0.295800 0.334620 -0.468525
O5    O     O_R   0.515760 0.704200 0.665380 -0.515432
O6    O     O_R   0.399260 0.520290 0.634950 -0.493420
O7    O     O_R   0.600740 0.479710 0.365050 -0.465806
O8    O     O_R   0.376220 0.483890 0.393080 -0.529173
O9    O     O_R   0.623780 0.516110 0.606920 -0.517962
O10   O     O_2   0.195198 0.707104 0.337262 -0.555171

loop_
_geom_bond_atom_site_label_1
_geom_bond_atom_site_label_2
_ccdc_geom_bond_type
C23   H53   S    
C2    O7    A    
C35   C36   S    
C15   H1    S    
C20   H10   S    
C32   H29   S    
Cu1   Cu2   S    
C6    C19   S    
C22   H6    S    
C28   C29   S    
C26   H15   S    
C18   O10   D    
C32   H28   S    
C30   C31   S    
C35   H40   S    
C10   C17   S    
C23   C40   D    
Cu2   O3    S    
C17   C20   S    
C37   H49   S    
C25   H17   S    
Cu1   O1    S    
C33   C35   S    
C29   H21   S    
C36   H36   S    
C16   C17   D    
C26   H13   S    
C1    O1    A    
C39   H44   S    
Cu1   O6    S    
C1    O4    A    
C13   H34   S    
C16   C24   S    
C21   C22   S    
C34   C41   D    
C31   H31   S    
C22   H7    S    
C44   O6    A    
C38   C39   S    
C14   H12   S    
Cu2   N1    S    
C3    C44   S    
C33   N2    S    
C24   C25   S    
C4    C6    A    
C11   C14   A    
C5    C7    A    
C6    C8    A    
C5    C18   S    
C25   C26   S    
C37   H50   S    
C2    C4    S    
C37   C38   S    
C33   H42   S    
C29   H22   S    
C19   O2    D    
C27   C41   S    
C31   C32   S    
C38   H48   S    
C11   H23   S    
C30   C40   S    
C8    H45   S    
C42   H2    S    
C43   H54   S    
C9    C11   A    
C3    C14   A    
C24   H19   S    
C30   H33   S    
C8    C10   A    
C40   C41   S    
C1    C23   S    
C13   C15   A    
C28   H25   S    
C42   C43   S    
C12   C34   S    
C42   N1    D    
C39   H46   S    
C31   H32   S    
C21   H9    S    
C7    C9    A    
C7    H51   S    
C2    O9    A    
C9    C16   S    
C28   H24   S    
C36   H38   S    
C3    C5    A    
C10   C13   A    
C32   H30   S    
C12   O5    A    
Cu1   O9    S    
C21   H8    S    
C4    C15   A    
Cu2   O8    S    
C33   H41   S    
C43   N2    D    
C37   N1    S    
C35   H39   S    
C19   H4    S    
C12   O3    A    
C30   H35   S    
Cu2   O4    S    
C38   H47   S    
C34   H52   S    
C25   H16   S    
Cu1   N2    S    
C29   H20   S    
C20   C21   S    
C24   H18   S    
Cu2   O7    S    
C27   C28   S    
C36   H37   S    
C20   H11   S    
C27   H27   S    
C26   H14   S    
C39   H43   S    
C27   H26   S    
Cu1   O5    S    
C18   H3    S    
C22   H5    S    
C44   O8    A    
