data_mof_unit_32955.cif
_audit_creation_date              2012-12-10T17:27:53-0500
_audit_creation_method            fapswitch 2.2
_symmetry_space_group_name_H-M    P1
_symmetry_Int_Tables_number       1
_space_group_crystal_system       triclinic
_cell_length_a                    22.016469
_cell_length_b                    22.005903
_cell_length_c                    38.848689
_cell_angle_alpha                 89.174172
_cell_angle_beta                  89.467443
_cell_angle_gamma                 91.002246
_cell_volume                      18816.1976662

loop_
_atom_site_label
_atom_site_type_symbol
_atom_type_description
_atom_site_fract_x
_atom_site_fract_y
_atom_site_fract_z
_atom_type_partial_charge
C1    C     C_R   0.500488 0.120500 0.499870 0.828199
C2    C     C_R   0.879514 0.499488 0.500102 0.828587
C3    C     C_R   0.499415 0.879455 0.499987 0.818431
C4    C     C_R   0.120552 0.500564 0.500050 0.819000
C5    C     C_R   0.000474 0.620463 0.000017 0.827566
C6    C     C_R   0.379501 0.999592 0.000362 0.827783
C7    C     C_R   0.999399 0.379403 0.999952 0.815341
C8    C     C_R   0.620668 0.000769 0.999832 0.817563
C9    C     C_R   0.364144 0.277004 0.438860 0.299293
C10   C     C_R   0.720899 0.366663 0.436754 0.305714
C11   C     C_R   0.636535 0.726130 0.438350 0.295497
C12   C     C_R   0.283394 0.640546 0.439752 0.331561
C13   C     C_R   0.362600 0.716398 0.562359 0.321142
C14   C     C_R   0.723774 0.635201 0.561203 0.297816
C15   C     C_R   0.635139 0.278859 0.562283 0.313451
C16   C     C_R   0.274616 0.362344 0.561354 0.295634
C17   C     C_R   0.861968 0.776733 0.940894 0.309014
C18   C     C_R   0.221171 0.864445 0.938705 0.314871
C19   C     C_R   0.138586 0.225827 0.939742 0.307691
C20   C     C_R   0.785303 0.144980 0.942697 0.313368
C21   C     C_R   0.853901 0.215412 0.054980 0.301117
C22   C     C_R   0.223456 0.134183 0.062393 0.293348
C23   C     C_R   0.132768 0.778315 0.064235 0.304916
C24   C     C_R   0.774610 0.863084 0.061594 0.297739
C25   C     C_R   0.408869 0.312862 0.456415 -0.005935
C26   C     C_R   0.686002 0.411279 0.454244 -0.004248
C27   C     C_R   0.591294 0.689302 0.455809 -0.003458
C28   C     C_R   0.316369 0.593491 0.456664 -0.024728
C29   C     C_R   0.408211 0.683262 0.544497 -0.019569
C30   C     C_R   0.687725 0.590727 0.543573 -0.004807
C31   C     C_R   0.589769 0.313769 0.545184 -0.007185
C32   C     C_R   0.311177 0.407950 0.543990 -0.003485
C33   C     C_R   0.907460 0.812539 0.957869 -0.010991
C34   C     C_R   0.186192 0.909674 0.955761 -0.009973
C35   C     C_R   0.092575 0.189194 0.956666 -0.007903
C36   C     C_R   0.817544 0.095282 0.957557 -0.023504
C37   C     C_R   0.903819 0.182717 0.040963 -0.023248
C38   C     C_R   0.187430 0.089989 0.044567 -0.001652
C39   C     C_R   0.088385 0.813495 0.046474 -0.002938
C40   C     C_R   0.811221 0.908548 0.044196 -0.004717
C41   C     C_R   0.456063 0.284135 0.478387 0.003463
C42   C     C_R   0.715269 0.456404 0.477510 -0.002179
C43   C     C_R   0.543587 0.716947 0.477774 0.005851
C44   C     C_R   0.285803 0.546298 0.478896 0.000305
C45   C     C_R   0.454417 0.713952 0.521607 0.002646
C46   C     C_R   0.716178 0.543596 0.521668 0.004412
C47   C     C_R   0.544032 0.284629 0.522251 -0.003273
C48   C     C_R   0.283272 0.455925 0.522110 0.004883
C49   C     C_R   0.955409 0.783941 0.979229 0.004562
C50   C     C_R   0.215298 0.955908 0.978318 -0.001836
C51   C     C_R   0.044269 0.216872 0.978078 0.001604
C52   C     C_R   0.786489 0.047557 0.979382 0.012477
C53   C     C_R   0.952585 0.213631 0.020016 0.012171
C54   C     C_R   0.215990 0.043467 0.022228 0.005177
C55   C     C_R   0.043258 0.784451 0.023109 -0.000681
C56   C     C_R   0.783416 0.956399 0.022141 0.005204
C57   C     C_R   0.459043 0.219975 0.478105 0.023059
C58   C     C_R   0.779594 0.456869 0.478822 0.029576
C59   C     C_R   0.540976 0.781129 0.477841 0.027614
C60   C     C_R   0.221613 0.545470 0.479663 0.028553
C61   C     C_R   0.455086 0.778186 0.520690 0.030092
C62   C     C_R   0.780299 0.540426 0.522033 0.018609
C63   C     C_R   0.543502 0.220336 0.520965 0.028545
C64   C     C_R   0.219097 0.458427 0.522020 0.027873
C65   C     C_R   0.958779 0.719910 0.978665 0.020660
C66   C     C_R   0.279489 0.957223 0.979256 0.025215
C67   C     C_R   0.041577 0.281023 0.978047 0.026749
C68   C     C_R   0.722262 0.047927 0.980764 0.044635
C69   C     C_R   0.953511 0.277846 0.019356 0.035946
C70   C     C_R   0.280226 0.040936 0.022266 0.026223
C71   C     C_R   0.042738 0.720095 0.021790 0.030200
C72   C     C_R   0.719259 0.958941 0.021943 0.032927
C73   C     C_R   0.499661 0.315442 0.500561 -0.139566
C74   C     C_R   0.684624 0.500279 0.499457 -0.139440
C75   C     C_R   0.499327 0.684439 0.499737 -0.132843
C76   C     C_R   0.315544 0.500630 0.500297 -0.133204
C77   C     C_R   0.999387 0.815332 0.001055 -0.138046
C78   C     C_R   0.184556 0.000103 0.999929 -0.138863
C79   C     C_R   0.999280 0.184306 0.999477 -0.134900
C80   C     C_R   0.815802 0.000938 0.000288 -0.136733
C81   C     C_R   0.501367 0.188265 0.499491 -0.056677
C82   C     C_R   0.811799 0.498533 0.500490 -0.054962
C83   C     C_R   0.498133 0.811652 0.499348 -0.050527
C84   C     C_R   0.188343 0.501768 0.500695 -0.053239
C85   C     C_R   0.001192 0.688167 0.999925 -0.054472
C86   C     C_R   0.311736 0.998971 0.000779 -0.055879
C87   C     C_R   0.998043 0.311524 0.999116 -0.052372
C88   C     C_R   0.688612 0.002723 0.000835 -0.051225
C89   C     C_R   0.619543 0.500022 0.499825 0.960855
C90   C     C_R   0.500048 0.619476 0.499879 0.954582
C91   C     C_R   0.380518 0.499941 0.500096 0.957316
C92   C     C_R   0.499939 0.380481 0.500212 0.963048
C93   C     C_R   0.119523 0.000054 0.999916 0.960039
C94   C     C_R   0.000219 0.119431 0.999838 0.958249
C95   C     C_R   0.880604 0.999920 0.000087 0.955548
C96   C     C_R   0.000059 0.880448 0.000301 0.959290
C97   C     C_R   0.500148 0.999730 0.433073 0.944231
C98   C     C_R   0.000750 0.500567 0.433096 0.932169
C99   C     C_R   0.499455 0.999178 0.566858 0.924213
C100  C     C_R   0.001079 0.499748 0.566890 0.944508
C101  C     C_R   0.000053 0.499321 0.933065 0.939186
C102  C     C_R   0.501938 0.000766 0.933061 0.917370
C103  C     C_R   0.999460 0.498501 0.066918 0.928708
C104  C     C_R   0.500335 0.999721 0.066920 0.947131
C105  C     C_R   0.457277 0.035553 0.377832 0.020359
C106  C     C_R   0.964795 0.459757 0.377709 0.036785
C107  C     C_R   0.539154 0.963525 0.376817 0.031022
C108  C     C_R   0.036948 0.544477 0.376821 0.021044
C109  C     C_R   0.452508 0.969590 0.623488 0.023331
C110  C     C_R   0.968336 0.542313 0.622464 0.026903
C111  C     C_R   0.538857 0.040011 0.621375 0.033853
C112  C     C_R   0.038810 0.458948 0.622694 0.026599
C113  C     C_R   0.953771 0.529138 0.877569 0.017227
C114  C     C_R   0.466691 0.962348 0.877034 0.032845
C115  C     C_R   0.040448 0.462726 0.877143 0.025132
C116  C     C_R   0.533558 0.051059 0.877389 0.031670
C117  C     C_R   0.953042 0.465038 0.123186 0.017250
C118  C     C_R   0.463348 0.040923 0.122113 0.023119
C119  C     C_R   0.038205 0.536407 0.122193 0.039998
C120  C     C_R   0.537099 0.960296 0.123140 0.028846
C121  C     C_R   0.464300 0.045168 0.342295 0.379055
C122  C     C_R   0.959492 0.465067 0.341931 0.381880
C123  C     C_R   0.527104 0.953571 0.341975 0.371130
C124  C     C_R   0.047309 0.536503 0.341738 0.397066
C125  C     C_R   0.456524 0.966028 0.659206 0.396419
C126  C     C_R   0.957351 0.532243 0.657610 0.369120
C127  C     C_R   0.530060 0.052262 0.656418 0.383622
C128  C     C_R   0.048090 0.468374 0.657968 0.374185
C129  C     C_R   0.959654 0.538093 0.841996 0.378978
C130  C     C_R   0.453395 0.973546 0.842347 0.388335
C131  C     C_R   0.029932 0.451920 0.842141 0.370672
C132  C     C_R   0.536823 0.051347 0.841224 0.393494
C133  C     C_R   0.957236 0.458449 0.159085 0.400085
C134  C     C_R   0.453445 0.032646 0.157518 0.376634
C135  C     C_R   0.028999 0.546556 0.157343 0.374937
C136  C     C_R   0.545271 0.970222 0.158378 0.373527
C137  C     C_R   0.495462 0.999534 0.323188 -0.237040
C138  C     C_R   0.005990 0.498470 0.323201 -0.264019
C139  C     C_R   0.492783 0.010561 0.676413 -0.266776
C140  C     C_R   0.002169 0.499646 0.676711 -0.233966
C141  C     C_R   0.995313 0.495339 0.823190 -0.240108
C142  C     C_R   0.493733 0.013984 0.822715 -0.266258
C143  C     C_R   0.995995 0.500613 0.177236 -0.254198
C144  C     C_R   0.498794 0.001273 0.176699 -0.238869
C145  C     C_R   0.499737 0.000288 0.395384 -0.195280
C146  C     C_R   0.000965 0.501760 0.395397 -0.220097
C147  C     C_R   0.497588 0.001762 0.604410 -0.225984
C148  C     C_R   0.002447 0.499812 0.604492 -0.195924
C149  C     C_R   0.999125 0.498036 0.895372 -0.197424
C150  C     C_R   0.502353 0.003719 0.895266 -0.235358
C151  C     C_R   0.997705 0.498659 0.104667 -0.218462
C152  C     C_R   0.499883 0.999724 0.104590 -0.196116
C153  C     C_R   0.498134 0.000880 0.214795 0.418916
C154  C     C_R   0.003938 0.496369 0.215323 0.392020
C155  C     C_R   0.492556 0.014901 0.784296 0.391411
C156  C     C_R   0.997219 0.495884 0.784973 0.409570
C157  C     C_R   0.001344 0.498682 0.714896 0.409203
C158  C     C_R   0.492394 0.012819 0.714150 0.422074
C159  C     C_R   0.009872 0.494979 0.285377 0.421438
C160  C     C_R   0.495779 0.999449 0.284905 0.406667
C161  C     C_R   0.418241 0.187665 0.456639 -0.286490
C162  C     C_R   0.811196 0.413589 0.458995 -0.308667
C163  C     C_R   0.583048 0.814563 0.456838 -0.277877
C164  C     C_R   0.191230 0.589368 0.459400 -0.316178
C165  C     C_R   0.411505 0.808464 0.541008 -0.315677
C166  C     C_R   0.812828 0.580574 0.543771 -0.275929
C167  C     C_R   0.587014 0.188584 0.540730 -0.308927
C168  C     C_R   0.185940 0.415765 0.542816 -0.282838
C169  C     C_R   0.918569 0.687723 0.956835 -0.288210
C170  C     C_R   0.311272 0.915288 0.958801 -0.307933
C171  C     C_R   0.083874 0.314393 0.957181 -0.282377
C172  C     C_R   0.692557 0.094969 0.962388 -0.315866
C173  C     C_R   0.908860 0.307804 0.038959 -0.312359
C174  C     C_R   0.312779 0.082180 0.043342 -0.286345
C175  C     C_R   0.085843 0.688154 0.041776 -0.300775
C176  C     C_R   0.686032 0.916225 0.042681 -0.282315
C177  C     C_R   0.367298 0.213846 0.442132 0.360713
C178  C     C_R   0.782781 0.364843 0.443349 0.352734
C179  C     C_R   0.634405 0.788892 0.442599 0.358681
C180  C     C_R   0.220275 0.639047 0.443388 0.368626
C181  C     C_R   0.363048 0.779340 0.557945 0.368171
C182  C     C_R   0.786948 0.631485 0.558325 0.363124
C183  C     C_R   0.636230 0.216737 0.556136 0.354327
C184  C     C_R   0.211863 0.364279 0.557001 0.357235
C185  C     C_R   0.866936 0.713472 0.942775 0.362536
C186  C     C_R   0.283881 0.865640 0.943433 0.360939
C187  C     C_R   0.135604 0.288809 0.943213 0.357388
C188  C     C_R   0.722355 0.145191 0.947474 0.377433
C189  C     C_R   0.856820 0.278855 0.052285 0.379967
C190  C     C_R   0.286375 0.132525 0.058080 0.358092
C191  C     C_R   0.134488 0.716364 0.057695 0.351668
C192  C     C_R   0.711925 0.864886 0.057055 0.357305
H1    H     H_    0.422630 0.140026 0.451748 0.208843
H2    H     H_    0.859449 0.413628 0.455877 0.215063
H3    H     H_    0.579665 0.862564 0.452205 0.214673
H4    H     H_    0.143279 0.587782 0.455981 0.206608
H5    H     H_    0.412149 0.856424 0.543737 0.204833
H6    H     H_    0.860466 0.575704 0.548756 0.212785
H7    H     H_    0.586539 0.140324 0.544049 0.213899
H8    H     H_    0.137997 0.418842 0.547413 0.213902
H9    H     H_    0.924375 0.640455 0.951273 0.207617
H10   H     H_    0.359237 0.917877 0.954984 0.204282
H11   H     H_    0.079900 0.362257 0.952232 0.214588
H12   H     H_    0.644628 0.096585 0.959984 0.209382
H13   H     H_    0.911395 0.355437 0.043431 0.203032
H14   H     H_    0.360694 0.078956 0.047675 0.210711
H15   H     H_    0.085648 0.639761 0.044785 0.214112
H16   H     H_    0.638129 0.919432 0.047395 0.213860
N1    N     N_R   0.530760 0.960186 0.267111 -0.076969
N2    N     N_R   0.036448 0.541042 0.266286 -0.073210
N3    N     N_R   0.462232 0.039340 0.266520 -0.074900
N4    N     N_R   0.984336 0.447150 0.268383 -0.073448
N5    N     N_R   0.541132 0.036210 0.731384 -0.072935
N6    N     N_R   0.038320 0.462200 0.733228 -0.083383
N7    N     N_R   0.444063 0.989984 0.732869 -0.071774
N8    N     N_R   0.962843 0.533856 0.732642 -0.077815
N9    N     N_R   0.037839 0.462519 0.767366 -0.087498
N10   N     N_R   0.540306 0.038450 0.765289 -0.065836
N11   N     N_R   0.959246 0.530705 0.766480 -0.073597
N12   N     N_R   0.445132 0.989624 0.766783 -0.065046
N13   N     N_R   0.035445 0.540312 0.232380 -0.076004
N14   N     N_R   0.530175 0.959344 0.233000 -0.081366
N15   N     N_R   0.980086 0.448803 0.234496 -0.061123
N16   N     N_R   0.465225 0.041702 0.232600 -0.078811
O1    O     O_R   0.551620 0.091530 0.500110 -0.603735
O2    O     O_R   0.908470 0.551620 0.500110 -0.595424
O3    O     O_R   0.448380 0.908470 0.500110 -0.609542
O4    O     O_R   0.091530 0.448380 0.500110 -0.596091
O5    O     O_R   0.551620 0.908470 0.499890 -0.595333
O6    O     O_R   0.908470 0.448380 0.499890 -0.603244
O7    O     O_R   0.448380 0.091530 0.499890 -0.594902
O8    O     O_R   0.091530 0.551620 0.499890 -0.609848
O9    O     O_R   0.051620 0.591530 0.000110 -0.602291
O10   O     O_R   0.408470 0.051620 0.000110 -0.594852
O11   O     O_R   0.948380 0.408470 0.000110 -0.605083
O12   O     O_R   0.591530 0.948380 0.000110 -0.594510
O13   O     O_R   0.051620 0.408470 0.999890 -0.597436
O14   O     O_R   0.408470 0.948380 0.999890 -0.601987
O15   O     O_R   0.948380 0.591530 0.999890 -0.595450
O16   O     O_R   0.591530 0.051620 0.999890 -0.611448
O17   O     O_R   0.551620 0.999930 0.449180 -0.608912
O18   O     O_R   0.000070 0.551620 0.449180 -0.625771
O19   O     O_R   0.448380 0.000070 0.449180 -0.602970
O20   O     O_R   0.999930 0.448380 0.449180 -0.601402
O21   O     O_R   0.551620 0.000070 0.550820 -0.596704
O22   O     O_R   0.000070 0.448380 0.550820 -0.607715
O23   O     O_R   0.448380 0.999930 0.550820 -0.632465
O24   O     O_R   0.999930 0.551620 0.550820 -0.603578
O25   O     O_R   0.051620 0.499930 0.949180 -0.605150
O26   O     O_R   0.500070 0.051620 0.949180 -0.629073
O27   O     O_R   0.948380 0.500070 0.949180 -0.600613
O28   O     O_R   0.499930 0.948380 0.949180 -0.604237
O29   O     O_R   0.051620 0.500070 0.050820 -0.600102
O30   O     O_R   0.500070 0.948380 0.050820 -0.608184
O31   O     O_R   0.948380 0.499930 0.050820 -0.625106
O32   O     O_R   0.499930 0.051620 0.050820 -0.604617
O33   O     O_R   0.591500 0.499930 0.528880 -0.628598
O34   O     O_R   0.500070 0.591500 0.528880 -0.629700
O35   O     O_R   0.408500 0.500070 0.528880 -0.629824
O36   O     O_R   0.499930 0.408500 0.528880 -0.629052
O37   O     O_R   0.591500 0.500070 0.471120 -0.628713
O38   O     O_R   0.500070 0.408500 0.471120 -0.628917
O39   O     O_R   0.408500 0.499930 0.471120 -0.629199
O40   O     O_R   0.499930 0.591500 0.471120 -0.628892
O41   O     O_R   0.091500 0.999930 0.028880 -0.628248
O42   O     O_R   0.000070 0.091500 0.028880 -0.628317
O43   O     O_R   0.908500 0.000070 0.028880 -0.626369
O44   O     O_R   0.999930 0.908500 0.028880 -0.627858
O45   O     O_R   0.091500 0.000070 0.971120 -0.628706
O46   O     O_R   0.000070 0.908500 0.971120 -0.628703
O47   O     O_R   0.908500 0.999930 0.971120 -0.628440
O48   O     O_R   0.999930 0.091500 0.971120 -0.627948
Zn1   Zn    Zn3+2 0.568970 0.000000 0.500000 1.087341
Zn2   Zn    Zn3+2 0.000000 0.568970 0.500000 1.070903
Zn3   Zn    Zn3+2 0.431030 0.000000 0.500000 1.067132
Zn4   Zn    Zn3+2 0.000000 0.431030 0.500000 1.085300
Zn5   Zn    Zn3+2 0.068970 0.500000 0.000000 1.088128
Zn6   Zn    Zn3+2 0.500000 0.068970 0.000000 1.065790
Zn7   Zn    Zn3+2 0.931030 0.500000 0.000000 1.073463
Zn8   Zn    Zn3+2 0.500000 0.931030 0.000000 1.085498
Zn9   Zn    Zn3+2 0.500000 0.500000 0.538510 0.848740
Zn10  Zn    Zn3+2 0.500000 0.500000 0.461490 0.849068
Zn11  Zn    Zn3+2 0.000000 0.000000 0.038510 0.851524
Zn12  Zn    Zn3+2 0.000000 0.000000 0.961490 0.850674
N17   N     N_2   0.404649 0.055248 0.395702 -0.286441
H17   H     H_    0.391659 0.099928 0.392532 0.308267
C193  C     C_3   0.354814 0.011321 0.397506 -0.478963
H18   H     H_    0.336544 0.009325 0.424249 0.267181
H19   H     H_    0.369866 0.964608 0.391000 0.218623
H20   H     H_    0.318104 0.024971 0.379646 0.254354
N18   N     N_2   0.936988 0.410466 0.396457 -0.299126
H21   H     H_    0.890593 0.403981 0.395107 0.289966
C194  C     C_3   0.972478 0.355774 0.397921 -0.477048
H22   H     H_    0.962714 0.331538 0.422663 0.270849
H23   H     H_    0.022137 0.366718 0.397176 0.220701
H24   H     H_    0.960773 0.325885 0.376060 0.265635
N19   N     N_2   0.591331 0.938948 0.392977 -0.298730
H25   H     H_    0.605464 0.897249 0.384941 0.307655
C195  C     C_3   0.641552 0.981909 0.396227 -0.510667
H26   H     H_    0.660582 0.977818 0.422408 0.280100
H27   H     H_    0.627030 0.029733 0.392528 0.223407
H28   H     H_    0.677569 0.972206 0.376973 0.252874
N20   N     N_2   0.060954 0.597118 0.392925 -0.261791
H29   H     H_    0.102802 0.595809 0.404938 0.267985
C196  C     C_3   0.020235 0.647227 0.398309 -0.431817
H30   H     H_    0.013539 0.654521 0.426298 0.251104
H31   H     H_    0.974893 0.638128 0.386797 0.210862
H32   H     H_    0.040213 0.689288 0.386508 0.268337
N21   N     N_2   0.401596 0.941866 0.607275 -0.246480
H33   H     H_    0.409231 0.905331 0.591496 0.250891
C197  C     C_3   0.350879 0.981024 0.599767 -0.426594
H34   H     H_    0.344895 0.985651 0.571525 0.245856
H35   H     H_    0.357986 0.027331 0.610358 0.208469
H36   H     H_    0.308637 0.960812 0.611092 0.270840
N22   N     N_2   0.949607 0.596755 0.605571 -0.279627
H37   H     H_    0.907908 0.614088 0.612652 0.316881
C198  C     C_3   0.996915 0.643455 0.601828 -0.493008
H38   H     H_    0.996039 0.662581 0.575223 0.270359
H39   H     H_    0.043299 0.624886 0.606002 0.222549
H40   H     H_    0.989006 0.680677 0.620405 0.244971
N23   N     N_2   0.590080 0.063846 0.602684 -0.293797
H41   H     H_    0.597304 0.110401 0.601246 0.285707
C199  C     C_3   0.643883 0.026980 0.603961 -0.464869
H42   H     H_    0.668536 0.031517 0.578874 0.266946
H43   H     H_    0.631687 0.977850 0.607916 0.217496
H44   H     H_    0.673947 0.042347 0.625121 0.266473
N24   N     N_2   0.062515 0.407286 0.605834 -0.301227
H45   H     H_    0.105115 0.393534 0.612603 0.305129
C200  C     C_3   0.019696 0.356817 0.603381 -0.503502
H46   H     H_    0.023436 0.336927 0.577458 0.278065
H47   H     H_    0.971924 0.371438 0.606916 0.224325
H48   H     H_    0.029811 0.321535 0.623137 0.254070
N25   N     N_2   0.899720 0.545323 0.895260 -0.276921
H49   H     H_    0.886244 0.589621 0.894760 0.315678
C201  C     C_3   0.852118 0.499066 0.897181 -0.468018
H50   H     H_    0.835680 0.494431 0.924253 0.261261
H51   H     H_    0.868905 0.453782 0.889210 0.217034
H52   H     H_    0.813684 0.512244 0.880509 0.252409
N26   N     N_2   0.444037 0.909031 0.894135 -0.269503
H53   H     H_    0.399544 0.906796 0.904160 0.274850
C202  C     C_3   0.481893 0.855876 0.894813 -0.433772
H54   H     H_    0.485935 0.839178 0.922038 0.254929
H55   H     H_    0.528569 0.867070 0.884719 0.208651
H56   H     H_    0.460872 0.819453 0.878856 0.268863
N27   N     N_2   0.093221 0.440789 0.893858 -0.295032
H57   H     H_    0.106891 0.397618 0.888241 0.306596
C203  C     C_3   0.143245 0.484419 0.895052 -0.492667
H58   H     H_    0.160637 0.486210 0.921788 0.275508
H59   H     H_    0.128961 0.531292 0.887601 0.218223
H60   H     H_    0.180466 0.470408 0.877382 0.256309
N28   N     N_2   0.562047 0.099299 0.895705 -0.253633
H61   H     H_    0.598574 0.089035 0.911381 0.235822
C204  C     C_3   0.525330 0.151608 0.903598 -0.418673
H62   H     H_    0.521267 0.156758 0.931927 0.242939
H63   H     H_    0.478678 0.146886 0.892904 0.209802
H64   H     H_    0.547483 0.193339 0.892687 0.274631
N29   N     N_2   0.902285 0.439573 0.105813 -0.262632
H65   H     H_    0.905660 0.397707 0.093872 0.256370
C205  C     C_3   0.850746 0.478300 0.099735 -0.417102
H66   H     H_    0.844321 0.485099 0.071647 0.247900
H67   H     H_    0.857590 0.523782 0.111440 0.211018
H68   H     H_    0.809074 0.456458 0.110855 0.270175
N30   N     N_2   0.441331 0.092891 0.104253 -0.293704
H69   H     H_    0.397437 0.106169 0.109519 0.306679
C206  C     C_3   0.484557 0.143255 0.101363 -0.482565
H70   H     H_    0.481302 0.164131 0.075270 0.271658
H71   H     H_    0.532373 0.128029 0.104539 0.222184
H72   H     H_    0.474432 0.177972 0.121064 0.253504
N31   N     N_2   0.089107 0.562021 0.103834 -0.295550
H73   H     H_    0.097481 0.608530 0.104579 0.292573
C207  C     C_3   0.142817 0.525053 0.104092 -0.490308
H74   H     H_    0.169984 0.535318 0.080348 0.273601
H75   H     H_    0.130391 0.475598 0.103891 0.222373
H76   H     H_    0.170513 0.535162 0.127220 0.259905
N32   N     N_2   0.562525 0.909141 0.106607 -0.301551
H77   H     H_    0.605489 0.896715 0.113477 0.304304
C208  C     C_3   0.521060 0.857573 0.104032 -0.504201
H78   H     H_    0.524980 0.838272 0.077982 0.278206
H79   H     H_    0.472918 0.870752 0.107856 0.222525
H80   H     H_    0.532359 0.822282 0.123546 0.257029
S1    S     S_3+6 0.437172 0.115113 0.324026 0.068811
O49   O     O_2   0.376162 0.103092 0.307704 -0.258980
O50   O     O_2   0.430559 0.164177 0.350266 -0.272706
O51   O     O_3   0.487175 0.142624 0.294334 -0.503351
H81   H     H_    0.462337 0.165315 0.277470 0.407036
S2    S     S_3+6 0.892682 0.433725 0.321987 0.066685
O52   O     O_2   0.905633 0.369648 0.311061 -0.266930
O53   O     O_2   0.838728 0.432489 0.346163 -0.274899
O54   O     O_3   0.872970 0.476126 0.287490 -0.500131
H82   H     H_    0.848341 0.448273 0.273171 0.419694
S3    S     S_3+6 0.541196 0.879833 0.325230 0.061246
O55   O     O_2   0.600965 0.881192 0.306000 -0.256450
O56   O     O_2   0.543261 0.832185 0.353362 -0.278593
O57   O     O_3   0.484095 0.860351 0.298710 -0.509640
H83   H     H_    0.502113 0.832362 0.281837 0.405273
S4    S     S_3+6 0.112981 0.573960 0.323005 0.086243
O58   O     O_2   0.093535 0.632141 0.305604 -0.251336
O59   O     O_2   0.159576 0.589261 0.349852 -0.239042
O60   O     O_3   0.146413 0.528533 0.294044 -0.518561
H84   H     H_    0.167701 0.556639 0.277604 0.406885
S5    S     S_3+6 0.417955 0.902977 0.680300 0.089814
O61   O     O_2   0.358334 0.924240 0.694877 -0.254047
O62   O     O_2   0.405299 0.852335 0.655502 -0.223308
O63   O     O_3   0.461121 0.874604 0.712223 -0.517136
H85   H     H_    0.431917 0.854554 0.728553 0.413064
S6    S     S_3+6 0.885706 0.555654 0.674961 0.065986
O64   O     O_2   0.894126 0.617277 0.691053 -0.263192
O65   O     O_2   0.837851 0.559596 0.647639 -0.271786
O66   O     O_3   0.859572 0.504649 0.704604 -0.501427
H86   H     H_    0.836575 0.528715 0.721554 0.408726
S7    S     S_3+6 0.564262 0.119884 0.674230 0.066618
O67   O     O_2   0.626082 0.103910 0.688190 -0.267969
O68   O     O_2   0.571990 0.170741 0.647894 -0.274830
O69   O     O_3   0.520051 0.146983 0.706114 -0.504156
H87   H     H_    0.548247 0.170659 0.720761 0.413408
S8    S     S_3+6 0.120276 0.450266 0.675880 0.065147
O70   O     O_2   0.115356 0.389841 0.694589 -0.257713
O71   O     O_2   0.169308 0.447175 0.648732 -0.274289
O72   O     O_3   0.140913 0.505552 0.703261 -0.508651
H88   H     H_    0.163851 0.485048 0.721773 0.404752
S9    S     S_3+6 0.924743 0.603863 0.823196 0.072566
O73   O     O_2   0.866491 0.584255 0.806015 -0.256843
O74   O     O_2   0.910456 0.651766 0.849123 -0.259388
O75   O     O_3   0.972569 0.637063 0.794086 -0.508914
H89   H     H_    0.945947 0.656642 0.776891 0.408502
S10   S     S_3+6 0.385992 0.936040 0.825486 0.078307
O76   O     O_2   0.405765 0.881905 0.804402 -0.270832
O77   O     O_2   0.342210 0.913349 0.853475 -0.256655
O78   O     O_3   0.345550 0.985043 0.801000 -0.496289
H90   H     H_    0.324243 0.958878 0.784184 0.407306
S11   S     S_3+6 0.051405 0.380360 0.824749 0.067134
O79   O     O_2   0.112388 0.387554 0.807014 -0.255754
O80   O     O_2   0.055264 0.331513 0.852133 -0.270498
O81   O     O_3   0.998163 0.357445 0.796579 -0.508447
H91   H     H_    0.020765 0.337601 0.777683 0.403734
S12   S     S_3+6 0.595703 0.099446 0.821276 0.083462
O82   O     O_2   0.565952 0.148897 0.799950 -0.269795
O83   O     O_2   0.637693 0.129529 0.846920 -0.214106
O84   O     O_3   0.641179 0.057022 0.796118 -0.505819
H92   H     H_    0.657455 0.085852 0.778280 0.407237
S13   S     S_3+6 0.912073 0.398101 0.179327 0.080169
O85   O     O_2   0.866495 0.425743 0.203743 -0.271024
O86   O     O_2   0.877652 0.359220 0.153997 -0.226089
O87   O     O_3   0.957932 0.350384 0.201000 -0.509920
H93   H     H_    0.931538 0.331352 0.219111 0.407254
S14   S     S_3+6 0.383229 0.058053 0.175771 0.064794
O88   O     O_2   0.392960 0.121326 0.189518 -0.261914
O89   O     O_2   0.333022 0.059149 0.149789 -0.275895
O90   O     O_3   0.359652 0.010361 0.207719 -0.504710
H94   H     H_    0.338074 0.036270 0.224373 0.407766
S15   S     S_3+6 0.055309 0.618474 0.174226 0.069859
O91   O     O_2   0.119016 0.610299 0.187913 -0.271408
O92   O     O_2   0.056696 0.668711 0.147160 -0.276006
O93   O     O_3   0.008471 0.642835 0.205679 -0.487149
H95   H     H_    0.035520 0.664348 0.221948 0.408315
S16   S     S_3+6 0.616793 0.952410 0.177095 0.065038
O94   O     O_2   0.612064 0.890961 0.194621 -0.254146
O95   O     O_2   0.667006 0.951588 0.150572 -0.271336
O96   O     O_3   0.635074 0.006335 0.205809 -0.513803
H96   H     H_    0.656975 0.985058 0.224459 0.403660
S17   S     S_3+6 0.702872 0.173545 0.560845 0.076081
O97   O     O_2   0.708257 0.151897 0.597557 -0.273341
O98   O     O_2   0.700740 0.119502 0.537639 -0.313649
O99   O     O_3   0.763530 0.217468 0.549516 -0.428980
H97   H     H_    0.798203 0.189364 0.548627 0.398903
S18   S     S_3+6 0.835667 0.694995 0.565269 0.076427
O100  O     O_2   0.847757 0.701885 0.603132 -0.263626
O101  O     O_2   0.895075 0.687464 0.546418 -0.329948
O102  O     O_3   0.801772 0.757687 0.549624 -0.432066
H98   H     H_    0.835009 0.787995 0.545800 0.393863
S19   S     S_3+6 0.299522 0.823621 0.568373 0.076050
O103  O     O_2   0.296071 0.831771 0.606715 -0.227232
O104  O     O_2   0.304102 0.884763 0.550839 -0.348738
O105  O     O_3   0.236690 0.787859 0.553962 -0.443758
H99   H     H_    0.205023 0.819244 0.553636 0.395644
S20   S     S_3+6 0.164633 0.298619 0.561467 0.077109
O106  O     O_2   0.144171 0.290629 0.598267 -0.281360
O107  O     O_2   0.109988 0.304516 0.538894 -0.315615
O108  O     O_3   0.203672 0.237454 0.548982 -0.427830
H100  H     H_    0.172675 0.205144 0.545541 0.395127
S21   S     S_3+6 0.699802 0.836404 0.438009 0.077676
O109  O     O_2   0.707264 0.857044 0.401174 -0.282450
O110  O     O_2   0.693959 0.890949 0.460506 -0.316078
O111  O     O_3   0.761246 0.797556 0.450503 -0.428064
H101  H     H_    0.793378 0.828706 0.454027 0.394988
S22   S     S_3+6 0.824743 0.297297 0.439501 0.075789
O112  O     O_2   0.848835 0.292164 0.403372 -0.283111
O113  O     O_2   0.876888 0.297735 0.464131 -0.304600
O114  O     O_3   0.778995 0.237297 0.449401 -0.426010
H102  H     H_    0.805481 0.200707 0.446590 0.396615
S23   S     S_3+6 0.303312 0.165598 0.435566 0.074296
O115  O     O_2   0.296591 0.152210 0.397925 -0.262452
O116  O     O_2   0.310199 0.106945 0.455283 -0.330626
O117  O     O_3   0.240872 0.200410 0.450318 -0.429474
H103  H     H_    0.210138 0.167624 0.453982 0.394365
S24   S     S_3+6 0.175400 0.702154 0.432720 0.076316
O118  O     O_2   0.171010 0.708047 0.394079 -0.224648
O119  O     O_2   0.112642 0.695046 0.448144 -0.349039
O120  O     O_3   0.208217 0.764742 0.449645 -0.445518
H104  H     H_    0.178156 0.797513 0.446226 0.394819
S25   S     S_3+6 0.201920 0.674139 0.061865 0.074252
O121  O     O_2   0.206803 0.649374 0.097978 -0.278264
O122  O     O_2   0.201509 0.622269 0.037115 -0.307928
O123  O     O_3   0.262090 0.720038 0.052410 -0.436250
H105  H     H_    0.297448 0.692880 0.051521 0.396358
S26   S     S_3+6 0.333226 0.198156 0.062964 0.077910
O124  O     O_2   0.352172 0.204414 0.099834 -0.270133
O125  O     O_2   0.388872 0.193887 0.040529 -0.320179
O126  O     O_3   0.294278 0.259810 0.050525 -0.427589
H106  H     H_    0.325248 0.292398 0.046943 0.395046
S27   S     S_3+6 0.794058 0.325071 0.061360 0.080233
O127  O     O_2   0.785157 0.328472 0.099810 -0.233041
O128  O     O_2   0.804250 0.388163 0.046711 -0.349989
O129  O     O_3   0.732084 0.294694 0.042427 -0.430778
H107  H     H_    0.701731 0.327397 0.042473 0.391689
S28   S     S_3+6 0.664724 0.799345 0.061845 0.077733
O130  O     O_2   0.644401 0.792031 0.098705 -0.282369
O131  O     O_2   0.610035 0.804910 0.039273 -0.315848
O132  O     O_3   0.703750 0.737997 0.049621 -0.428426
H108  H     H_    0.672697 0.705820 0.045961 0.394937
S29   S     S_3+6 0.199890 0.337339 0.937256 0.075213
O133  O     O_2   0.208165 0.352993 0.899664 -0.273750
O134  O     O_2   0.192035 0.394846 0.957148 -0.323956
O135  O     O_3   0.261603 0.301579 0.952276 -0.430867
H109  H     H_    0.292250 0.334127 0.956114 0.394609
S30   S     S_3+6 0.330020 0.801847 0.936133 0.075156
O136  O     O_2   0.345299 0.798065 0.898397 -0.246208
O137  O     O_2   0.387944 0.807129 0.956174 -0.336265
O138  O     O_3   0.291823 0.738697 0.949720 -0.432195
H110  H     H_    0.323622 0.708600 0.955602 0.393159
S31   S     S_3+6 0.805401 0.663650 0.933662 0.073096
O139  O     O_2   0.798692 0.657781 0.895277 -0.241504
O140  O     O_2   0.815675 0.601774 0.949390 -0.345805
O141  O     O_3   0.741689 0.692066 0.951236 -0.434494
H111  H     H_    0.714404 0.656516 0.955596 0.392206
S32   S     S_3+6 0.678568 0.210431 0.939333 0.091769
O142  O     O_2   0.670738 0.218666 0.901100 -0.218706
O143  O     O_2   0.617068 0.204390 0.956312 -0.345452
O144  O     O_3   0.714917 0.271024 0.956245 -0.426413
H112  H     H_    0.682943 0.302613 0.958881 0.390022
S33   S     S_3+6 0.301733 0.311644 0.415177 0.101380
O145  O     O_2   0.261264 0.343035 0.440511 -0.237307
O146  O     O_2   0.322703 0.357661 0.388552 -0.326895
O147  O     O_3   0.258220 0.263287 0.392646 -0.392852
H113  H     H_    0.277124 0.262441 0.369344 0.395747
S34   S     S_3+6 0.686527 0.310945 0.408186 0.100426
O148  O     O_2   0.644655 0.269584 0.428940 -0.242196
O149  O     O_2   0.650667 0.340136 0.379916 -0.317669
O150  O     O_3   0.736146 0.267344 0.387218 -0.404533
H114  H     H_    0.744687 0.289120 0.365077 0.399110
S35   S     S_3+6 0.698418 0.693565 0.413442 0.100602
O151  O     O_2   0.740068 0.661262 0.437823 -0.232238
O152  O     O_2   0.677535 0.649085 0.386933 -0.321838
O153  O     O_3   0.739969 0.744644 0.390453 -0.396636
H115  H     H_    0.718456 0.748838 0.368242 0.392771
S36   S     S_3+6 0.323076 0.699927 0.413887 0.101259
O154  O     O_2   0.373529 0.727826 0.434812 -0.283899
O155  O     O_2   0.350639 0.672130 0.382177 -0.315156
O156  O     O_3   0.281933 0.758222 0.398884 -0.402322
H116  H     H_    0.287894 0.758636 0.372917 0.398020
S37   S     S_3+6 0.305536 0.677250 0.589953 0.100131
O157  O     O_2   0.274857 0.627273 0.569859 -0.275437
O158  O     O_2   0.335775 0.648893 0.620914 -0.318243
O159  O     O_3   0.249686 0.719312 0.606601 -0.400804
H117  H     H_    0.257248 0.720566 0.631828 0.402236
S38   S     S_3+6 0.689175 0.697825 0.584539 0.101452
O160  O     O_2   0.657057 0.737778 0.558962 -0.240174
O161  O     O_2   0.643727 0.676639 0.611358 -0.327303
O162  O     O_3   0.737264 0.742228 0.606804 -0.391077
H118  H     H_    0.739315 0.722901 0.630132 0.395031
S39   S     S_3+6 0.692005 0.313717 0.590034 0.104879
O163  O     O_2   0.731150 0.356980 0.568789 -0.247273
O164  O     O_2   0.663395 0.348427 0.618800 -0.317360
O165  O     O_3   0.738249 0.265087 0.610191 -0.398268
H119  H     H_    0.719623 0.257838 0.633350 0.400187
S40   S     S_3+6 0.307480 0.300287 0.586285 0.101017
O166  O     O_2   0.339708 0.258901 0.561926 -0.231792
O167  O     O_2   0.352052 0.321025 0.612842 -0.320321
O168  O     O_3   0.256648 0.258418 0.609237 -0.396759
H120  H     H_    0.252144 0.280075 0.631315 0.393265
S41   S     S_3+6 0.797893 0.812283 0.919025 0.099290
O169  O     O_2   0.761934 0.846868 0.945219 -0.253771
O170  O     O_2   0.818422 0.856136 0.891109 -0.333431
O171  O     O_3   0.748987 0.765500 0.898865 -0.391037
H121  H     H_    0.761410 0.767003 0.874058 0.396556
S42   S     S_3+6 0.185424 0.805885 0.912386 0.102149
O172  O     O_2   0.142050 0.768604 0.934610 -0.257585
O173  O     O_2   0.150461 0.833382 0.883168 -0.324639
O174  O     O_3   0.232539 0.757378 0.893070 -0.392404
H122  H     H_    0.237065 0.772571 0.868912 0.399886
S43   S     S_3+6 0.201330 0.192044 0.916022 0.102330
O175  O     O_2   0.238907 0.155978 0.940938 -0.243894
O176  O     O_2   0.179869 0.150212 0.888274 -0.324456
O177  O     O_3   0.248123 0.241397 0.895037 -0.393514
H123  H     H_    0.232131 0.244116 0.871178 0.396218
S44   S     S_3+6 0.825865 0.207929 0.919996 0.096494
O178  O     O_2   0.868802 0.238804 0.944889 -0.276154
O179  O     O_2   0.862987 0.185107 0.889888 -0.324873
O180  O     O_3   0.782684 0.262647 0.902678 -0.401111
H124  H     H_    0.792617 0.263513 0.877162 0.393592
S45   S     S_3+6 0.787481 0.174976 0.074254 0.096467
O181  O     O_2   0.756104 0.138277 0.046437 -0.269088
O182  O     O_2   0.805654 0.131205 0.102838 -0.324427
O183  O     O_3   0.734407 0.218536 0.092682 -0.400687
H125  H     H_    0.738679 0.212590 0.118321 0.393717
S46   S     S_3+6 0.189796 0.194859 0.087567 0.099382
O184  O     O_2   0.159835 0.238595 0.063205 -0.230781
O185  O     O_2   0.143134 0.173118 0.113540 -0.325510
O186  O     O_3   0.239704 0.234278 0.111343 -0.395082
H126  H     H_    0.242918 0.210630 0.133200 0.393334
S47   S     S_3+6 0.188647 0.812345 0.092892 0.104383
O187  O     O_2   0.231113 0.852954 0.071966 -0.240187
O188  O     O_2   0.160050 0.849489 0.120656 -0.315147
O189  O     O_3   0.230810 0.762086 0.114671 -0.396940
H127  H     H_    0.207514 0.753019 0.136294 0.397878
S48   S     S_3+6 0.807544 0.801701 0.087030 0.102309
O190  O     O_2   0.841630 0.760892 0.063172 -0.235091
O191  O     O_2   0.850628 0.823722 0.114052 -0.319524
O192  O     O_3   0.756831 0.758751 0.109438 -0.395337
H128  H     H_    0.752397 0.779255 0.131879 0.394256
N33   N     N_2   0.400516 0.376892 0.454352 -0.268014
H129  H     H_    0.360501 0.390487 0.465611 0.240268
C209  C     C_3   0.414781 0.407593 0.421399 -0.439013
H130  H     H_    0.452591 0.440534 0.422990 0.197396
H131  H     H_    0.376342 0.436554 0.413462 0.238657
H132  H     H_    0.428444 0.375284 0.401199 0.226245
N34   N     N_2   0.621864 0.403390 0.451439 -0.266173
H133  H     H_    0.605899 0.362700 0.461739 0.241302
C210  C     C_3   0.593575 0.420564 0.418787 -0.445040
H134  H     H_    0.558494 0.454939 0.421921 0.194836
H135  H     H_    0.567713 0.381303 0.408320 0.242071
H136  H     H_    0.626961 0.440581 0.400083 0.229030
N35   N     N_2   0.600058 0.625387 0.454184 -0.271600
H137  H     H_    0.639736 0.611692 0.465607 0.237127
C211  C     C_3   0.587215 0.595587 0.421478 -0.443296
H138  H     H_    0.550123 0.561747 0.423407 0.199639
H139  H     H_    0.626634 0.568036 0.413502 0.239390
H140  H     H_    0.572925 0.628298 0.401256 0.229149
N36   N     N_2   0.380452 0.598893 0.453269 -0.264701
H141  H     H_    0.398354 0.636145 0.465512 0.244410
C212  C     C_3   0.408037 0.585412 0.419832 -0.432262
H142  H     H_    0.442117 0.549425 0.421694 0.192186
H143  H     H_    0.434436 0.625621 0.409952 0.247250
H144  H     H_    0.373836 0.568931 0.401076 0.227698
N37   N     N_2   0.401821 0.619092 0.547499 -0.264818
H145  H     H_    0.363596 0.602117 0.535718 0.243611
C213  C     C_3   0.416479 0.590303 0.580557 -0.430835
H146  H     H_    0.451323 0.555345 0.578031 0.192394
H147  H     H_    0.376170 0.564732 0.590988 0.248206
H148  H     H_    0.435353 0.623579 0.599080 0.225874
N38   N     N_2   0.623755 0.599246 0.545516 -0.268078
H149  H     H_    0.610109 0.639213 0.534034 0.240255
C214  C     C_3   0.593160 0.584988 0.578455 -0.438579
H150  H     H_    0.560080 0.547265 0.576905 0.197799
H151  H     H_    0.564453 0.623568 0.586286 0.238158
H152  H     H_    0.625496 0.571082 0.598718 0.226601
N39   N     N_2   0.597116 0.377923 0.548153 -0.266652
H153  H     H_    0.637307 0.394463 0.537612 0.241762
C215  C     C_3   0.580577 0.405502 0.580984 -0.443591
H154  H     H_    0.545786 0.440357 0.578131 0.194398
H155  H     H_    0.619884 0.431556 0.591284 0.242418
H156  H     H_    0.561516 0.371574 0.599737 0.230416
N40   N     N_2   0.375099 0.399397 0.545653 -0.272082
H157  H     H_    0.388776 0.359810 0.534257 0.237099
C216  C     C_3   0.405024 0.411920 0.578404 -0.443047
H158  H     H_    0.438815 0.449041 0.576516 0.199276
H159  H     H_    0.432681 0.372449 0.586383 0.240103
H160  H     H_    0.372421 0.425963 0.598600 0.229364
N41   N     N_2   0.899988 0.876597 0.955358 -0.266667
H161  H     H_    0.860869 0.891217 0.967149 0.242221
C217  C     C_3   0.913417 0.906111 0.921962 -0.442640
H162  H     H_    0.952092 0.938280 0.922799 0.196826
H163  H     H_    0.875118 0.935432 0.914235 0.238596
H164  H     H_    0.925426 0.872942 0.901864 0.226168
N42   N     N_2   0.122071 0.902429 0.952719 -0.265569
H165  H     H_    0.105373 0.862625 0.963718 0.242470
C218  C     C_3   0.094524 0.918441 0.919655 -0.442829
H166  H     H_    0.060185 0.953877 0.922013 0.195733
H167  H     H_    0.067956 0.879131 0.909784 0.241826
H168  H     H_    0.128579 0.936451 0.900706 0.228790
N43   N     N_2   0.100415 0.125203 0.954673 -0.271102
H169  H     H_    0.139332 0.110515 0.966506 0.239020
C219  C     C_3   0.087854 0.096178 0.921697 -0.442712
H170  H     H_    0.050343 0.062592 0.923248 0.200786
H171  H     H_    0.127233 0.068578 0.913712 0.240403
H172  H     H_    0.074352 0.129481 0.901597 0.229604
N44   N     N_2   0.881591 0.098826 0.952872 -0.260503
H173  H     H_    0.900595 0.137108 0.963512 0.250438
C220  C     C_3   0.906988 0.083628 0.919117 -0.441777
H174  H     H_    0.936823 0.043737 0.920190 0.191150
H175  H     H_    0.938728 0.120674 0.910008 0.238676
H176  H     H_    0.870817 0.073297 0.900010 0.226821
N45   N     N_2   0.900488 0.118684 0.046265 -0.259809
H177  H     H_    0.861680 0.099575 0.036161 0.252026
C221  C     C_3   0.915486 0.094555 0.080506 -0.448236
H178  H     H_    0.957398 0.067435 0.080468 0.191428
H179  H     H_    0.880242 0.060253 0.089010 0.234953
H180  H     H_    0.921675 0.131412 0.099768 0.225807
N46   N     N_2   0.123494 0.098676 0.046535 -0.268161
H181  H     H_    0.110195 0.139367 0.035747 0.238890
C222  C     C_3   0.092814 0.083286 0.079269 -0.445791
H182  H     H_    0.059828 0.045686 0.077241 0.196484
H183  H     H_    0.064055 0.121560 0.087510 0.236901
H184  H     H_    0.125050 0.068537 0.099389 0.227727
N47   N     N_2   0.096459 0.877663 0.049122 -0.267260
H185  H     H_    0.137315 0.893486 0.039045 0.240683
C223  C     C_3   0.079154 0.906020 0.081597 -0.446540
H186  H     H_    0.044623 0.940918 0.078217 0.194829
H187  H     H_    0.118277 0.932193 0.092047 0.240821
H188  H     H_    0.059314 0.872592 0.100402 0.230588
N48   N     N_2   0.875145 0.900091 0.046182 -0.271416
H189  H     H_    0.889145 0.860435 0.035000 0.238532
C224  C     C_3   0.904771 0.913427 0.078931 -0.443998
H190  H     H_    0.938567 0.950642 0.076904 0.200865
H191  H     H_    0.932182 0.874059 0.087358 0.240014
H192  H     H_    0.871933 0.927979 0.098874 0.228659

loop_
_geom_bond_atom_site_label_1
_geom_bond_atom_site_label_2
_ccdc_geom_bond_type
S3    O57   S    
O96   H96   S    
C121  S1    S    
N41   H161  S    
S7    O68   D    
S34   O150  S    
C119  N31   S    
C186  S30   S    
S31   O139  D    
N8    N11   A    
C175  H15   S    
O180  H124  S    
C53   C69   A    
C42   C58   A    
S20   O107  D    
C91   O39   A    
C222  H182  S    
N20   C196  S    
O174  H122  S    
O123  H105  S    
C158  N5    A    
C17   S41   S    
C219  H171  S    
C2    O2    A    
N29   H65   S    
S13   O85   D    
C46   C62   A    
C4    O8    A    
C117  N29   S    
C215  H155  S    
S4    O59   D    
C58   C82   A    
C211  H139  S    
C38   N46   S    
C22   C38   A    
C103  O31   A    
N19   C195  S    
O3    Zn3   S    
C64   C84   A    
C208  H80   S    
C75   C90   S    
S5    O62   D    
C106  N18   S    
C192  S28   S    
O99   H97   S    
C56   C72   A    
C193  H19   S    
C22   C190  A    
C168  H8    S    
C98   O20   A    
C200  H46   S    
C25   N33   S    
C212  H144  S    
C8    O16   A    
C117  C133  A    
O22   Zn4   S    
O81   H91   S    
C132  C142  A    
N1    N14   A    
S23   O116  D    
C69   C173  A    
C130  S10   S    
S11   O81   S    
C131  S11   S    
S48   O190  D    
C204  H63   S    
S36   O155  D    
N39   H153  S    
S35   O153  S    
C108  C146  A    
C43   C75   A    
C34   C50   A    
C199  H42   S    
O35   Zn9   S    
S44   O178  D    
C181  S19   S    
C214  H152  S    
C25   C41   A    
C201  H51   S    
S28   O130  D    
C143  C154  S    
S46   O186  S    
S26   O124  D    
O102  H98   S    
C28   C44   A    
S24   O120  S    
C29   C45   A    
C24   S48   S    
C198  H40   S    
O13   Zn5   S    
S41   O169  D    
S40   O168  S    
O165  H119  S    
O8    Zn2   S    
C39   N47   S    
C1    O7    A    
C217  H162  S    
C4    C84   S    
C11   C27   A    
N32   H77   S    
C217  H164  S    
C89   O33   A    
C155  N12   A    
C10   S34   S    
C216  H160  S    
S46   O185  D    
N35   H137  S    
N39   C215  S    
C79   C94   S    
C13   S37   S    
C204  H64   S    
S47   O188  D    
C3    C83   S    
N37   H145  S    
S6    O65   D    
S19   O105  S    
S2    O54   S    
C89   O37   A    
C114  C150  A    
O23   Zn3   S    
N36   H141  S    
C90   O34   A    
C9    C177  A    
S12   O82   D    
O41   Zn11  S    
C13   C29   A    
C213  H147  S    
C99   C147  S    
S14   O89   D    
C30   N38   S    
C137  C160  S    
N42   C218  S    
O1    Zn1   S    
C11   S35   S    
C59   C83   A    
O171  H121  S    
C113  N25   S    
C114  N26   S    
N38   H149  S    
C16   C184  A    
C141  C156  S    
S33   O147  S    
C114  C130  A    
N43   H169  S    
O11   Zn7   S    
S8    O70   D    
C104  C152  S    
C210  H135  S    
C153  N14   A    
N17   C193  S    
C19   C35   A    
C206  H70   S    
S40   O166  D    
C176  H16   S    
O105  H99   S    
O4    Zn4   S    
N35   C211  S    
C57   C161  A    
O25   Zn5   S    
O54   H82   S    
O34   Zn9   S    
N40   C216  S    
C207  H75   S    
S22   O112  D    
C170  H10   S    
C48   C64   A    
O57   H83   S    
C201  H50   S    
N19   H25   S    
N24   H45   S    
C93   O45   A    
O37   Zn10  S    
C64   C168  A    
O177  H123  S    
C205  H66   S    
C174  H14   S    
O141  H111  S    
O46   Zn12  S    
S45   O181  D    
N33   H129  S    
C33   C49   A    
S48   O192  S    
C55   C71   A    
C96   O44   A    
C29   N37   S    
N44   H173  S    
C218  H166  S    
O10   Zn6   S    
C120  N32   S    
C48   C76   A    
O72   H88   S    
C166  C182  A    
S44   O180  S    
O186  H126  S    
S11   O80   D    
C21   S45   S    
S17   O97   D    
C160  N1    A    
S33   O145  D    
S42   O173  D    
C106  C146  A    
S31   O140  D    
S32   O143  D    
O14   Zn8   S    
C221  H179  S    
C97   O19   A    
N34   H133  S    
C128  S8    S    
C155  N10   A    
C198  H39   S    
C121  C137  A    
C222  H183  S    
C95   O43   A    
C124  S4    S    
O156  H116  S    
S16   O94   D    
N47   C223  S    
S42   O174  S    
S1    O51   S    
O93   H95   S    
C209  H132  S    
C90   O40   A    
C118  C134  A    
S12   O84   S    
C43   C59   A    
S15   O93   S    
C37   C53   A    
C207  H76   S    
C135  C143  A    
C6    O10   A    
S27   O129  S    
S25   O121  D    
O33   Zn9   S    
N43   C219  S    
C115  C149  A    
C109  C147  A    
S28   O132  S    
C110  C148  A    
O111  H101  S    
C125  S5    S    
S21   O109  D    
C202  H55   S    
C39   C55   A    
C98   O18   A    
O44   Zn11  S    
C135  S15   S    
S8    O72   S    
C7    O13   A    
C105  C121  A    
O63   H85   S    
C153  N16   A    
C117  C151  A    
C206  H72   S    
N24   C200  S    
N34   C210  S    
C169  H9    S    
C105  N17   S    
O15   Zn7   S    
O87   H93   S    
C8    C88   S    
S41   O171  S    
C194  H22   S    
N37   C213  S    
C20   C188  A    
C195  H27   S    
C21   C189  A    
S11   O79   D    
C116  C132  A    
N40   H157  S    
C220  H176  S    
C94   O48   A    
C106  C122  A    
S24   O119  D    
O138  H110  S    
C161  H1    S    
C24   C192  A    
C51   C67   A    
S45   O183  S    
C118  C152  A    
C70   C174  A    
S37   O157  D    
O29   Zn5   S    
C110  C126  A    
O75   H89   S    
C62   C166  A    
C220  H174  S    
S9    O75   S    
C13   C181  A    
C197  H35   S    
C163  C179  A    
S30   O137  D    
C110  N22   S    
C99   O21   A    
N23   C199  S    
C99   O23   A    
S27   O127  D    
O19   Zn3   S    
C190  S26   S    
S5    O63   S    
C26   C42   A    
N48   C224  S    
S17   O99   S    
S3    O56   D    
C160  N3    A    
S38   O160  D    
C115  N27   S    
S39   O165  S    
C12   C180  A    
O12   Zn8   S    
C30   C46   A    
C101  O25   A    
C73   C92   S    
C69   C87   A    
C66   C86   A    
S43   O177  S    
N5    N10   A    
C164  H4    S    
C15   C31   A    
C40   N48   S    
C9    S33   S    
C16   C32   A    
O2    Zn2   S    
C123  C137  A    
C77   C96   S    
C56   C80   A    
O129  H107  S    
C128  C140  A    
C210  H134  S    
C203  H60   S    
N38   C214  S    
C18   C34   A    
S16   O96   S    
C68   C88   A    
C60   C164  A    
C49   C77   A    
C205  H68   S    
C61   C165  A    
C130  C142  A    
C195  H28   S    
C51   C79   A    
C208  H79   S    
C91   O35   A    
C2    O6    A    
C76   C91   S    
C134  C144  A    
S15   O91   D    
C31   N39   S    
S39   O163  D    
C18   S42   S    
O90   H94   S    
S25   O123  S    
O144  H112  S    
O20   Zn4   S    
C59   C163  A    
C167  H7    S    
C132  S12   S    
S15   O92   D    
C55   C77   A    
N31   C207  S    
S38   O162  S    
N22   C198  S    
C23   S47   S    
O48   Zn12  S    
S32   O144  S    
O40   Zn10  S    
N22   H37   S    
O108  H100  S    
C107  C123  A    
C219  H170  S    
C3    O5    A    
S48   O191  D    
C204  H62   S    
C9    C25   A    
C213  H146  S    
N44   C220  S    
N42   H165  S    
O5    Zn1   S    
C157  N6    A    
S9    O73   D    
O39   Zn10  S    
C12   C28   A    
N25   H49   S    
O26   Zn6   S    
C124  C138  A    
S35   O152  D    
S44   O179  D    
N31   H73   S    
C194  H24   S    
C214  H151  S    
C47   C63   A    
O126  H106  S    
C191  S25   S    
S13   O86   D    
C93   O41   A    
S10   O76   D    
S26   O125  D    
C207  H74   S    
S21   O111  S    
S34   O148  D    
C188  S32   S    
O17   Zn1   S    
C154  N15   A    
C172  H12   S    
C14   C182  A    
O30   Zn8   S    
C7    C87   S    
N28   H61   S    
C17   C185  A    
C40   C56   A    
C15   C183  A    
N30   H69   S    
C217  H163  S    
C156  N9    A    
C212  H143  S    
N27   C203  S    
C164  C180  A    
C28   N36   S    
C103  C151  S    
C223  H188  S    
O6    Zn4   S    
C134  S14   S    
S26   O126  S    
N25   C201  S    
C62   C82   A    
N48   H189  S    
N41   C217  S    
C31   C47   A    
S7    O69   S    
C32   C48   A    
C101  O27   A    
C17   C33   A    
C50   C78   A    
C116  C150  A    
S20   O106  D    
S12   O83   D    
S5    O61   D    
N45   C221  S    
C219  H172  S    
C7    O11   A    
C42   C74   A    
C215  H154  S    
N32   C208  S    
O168  H120  S    
C211  H138  S    
C215  H156  S    
S4    O58   D    
C47   C73   A    
C168  C184  A    
C34   N42   S    
C107  N19   S    
C210  H136  S    
C203  H58   S    
C211  H140  S    
S14   O90   S    
O78   H90   S    
C179  S21   S    
C122  S2    S    
C119  C135  A    
C159  N4    A    
C65   C169  A    
C120  C136  A    
S8    O71   D    
S19   O103  D    
O24   Zn2   S    
O150  H114  S    
C100  O24   A    
C165  H5    S    
C112  N24   S    
N26   H53   S    
C38   C54   A    
O43   Zn11  S    
S37   O159  S    
C105  C145  A    
C80   C95   S    
C170  C186  A    
C116  N28   S    
C1    C81   S    
C166  H6    S    
C209  H131  S    
O36   Zn9   S    
C193  H20   S    
C122  C138  A    
C111  N23   S    
C113  C129  A    
C174  C190  A    
C8    O12   A    
S28   O131  D    
C14   S38   S    
C63   C81   A    
S18   O101  D    
C185  S31   S    
C61   C83   A    
O69   H87   S    
C103  O29   A    
S23   O117  S    
C97   C145  S    
C2    C82   S    
O153  H115  S    
C187  S29   S    
C3    O3    A    
C182  S18   S    
O147  H113  S    
S36   O154  D    
C1    O1    A    
C157  N8    A    
C224  H192  S    
C5    O15   A    
N18   C194  S    
S13   O87   S    
C104  O32   A    
N30   C206  S    
C201  H52   S    
N28   C204  S    
C95   O47   A    
C6    O14   A    
S18   O102  S    
N23   H41   S    
C133  S13   S    
C218  H168  S    
C169  C185  A    
C154  N13   A    
S19   O104  D    
S2    O52   D    
O28   Zn8   S    
C41   C57   A    
N46   H181  S    
C136  C144  A    
C68   C172  A    
O38   Zn10  S    
C32   N40   S    
C44   C60   A    
C107  C145  A    
N3    N16   A    
C45   C61   A    
O183  H125  S    
S10   O77   D    
C71   C175  A    
C108  C124  A    
C156  N11   A    
C4    O4    A    
C171  H11   S    
S46   O184  D    
C112  C128  A    
C97   O17   A    
C223  H186  S    
C20   C36   A    
C108  N20   S    
C27   C43   A    
S47   O189  S    
C21   C37   A    
S16   O95   D    
N47   H185  S    
S7    O67   D    
S1    O50   D    
S6    O64   D    
C173  H13   S    
C16   S40   S    
C52   C80   A    
S20   O108  S    
O60   H84   S    
S40   O167  D    
C54   C78   A    
O42   Zn11  S    
C213  H148  S    
C197  H34   S    
S27   O128  D    
S14   O88   D    
C224  H190  S    
S2    O53   D    
C209  H130  S    
S4    O60   S    
C67   C171  A    
O84   H92   S    
O51   H81   S    
C23   C191  A    
C27   N35   S    
S3    O55   D    
C189  S27   S    
C115  C131  A    
N21   H33   S    
C125  C139  A    
C126  C140  A    
N17   H17   S    
C159  N2    A    
C49   C65   A    
S22   O114  S    
C102  O28   A    
C74   C89   S    
O32   Zn6   S    
C53   C79   A    
C100  C148  S    
C111  C147  A    
C206  H71   S    
C175  C191  A    
C183  S17   S    
C176  C192  A    
C78   C93   S    
C96   O46   A    
O120  H104  S    
C22   S46   S    
C104  O30   A    
O21   Zn1   S    
C101  C149  S    
C144  C153  S    
S41   O170  D    
C26   N34   S    
S21   O110  D    
C71   C85   A    
C138  C159  S    
O66   H86   S    
C167  C183  A    
N20   H29   S    
C139  C158  S    
C220  H175  S    
S6    O66   S    
C54   C70   A    
O192  H128  S    
O45   Zn12  S    
C163  H3    S    
C142  C155  S    
S45   O182  D    
O114  H102  S    
C52   C68   A    
S36   O156  S    
C194  H23   S    
C10   C26   A    
N18   H21   S    
C92   O36   A    
C218  H167  S    
N2    N13   A    
C5    O9    A    
C126  S6    S    
S30   O138  S    
C129  C141  A    
C198  H38   S    
C127  C139  A    
C14   C30   A    
N45   H177  S    
C63   C167  A    
C72   C88   A    
C33   N41   S    
S39   O164  D    
O27   Zn7   S    
S17   O98   D    
C119  C151  A    
C94   O42   A    
S38   O161  D    
C133  C143  A    
N33   C209  S    
C162  C178  A    
S42   O172  D    
C10   C178  A    
C113  C149  A    
C184  S20   S    
S31   O141  S    
C100  O22   A    
S32   O142  D    
O18   Zn2   S    
C177  S23   S    
C224  H191  S    
C221  H180  S    
S35   O151  D    
S43   O176  D    
C195  H26   S    
C98   C146  S    
C196  H31   S    
C158  N7    A    
C41   C73   A    
C118  N30   S    
C18   C186  A    
C112  C148  A    
N29   C205  S    
C222  H184  S    
C199  H43   S    
N36   C212  S    
C140  C157  S    
C203  H59   S    
S37   O158  D    
S47   O187  D    
S23   O115  D    
C196  H32   S    
C37   N45   S    
C162  H2    S    
C200  H47   S    
O7    Zn3   S    
C205  H67   S    
C72   C176  A    
C19   S43   S    
C50   C66   A    
C208  H78   S    
C109  C125  A    
N26   C202  S    
C102  C150  S    
O16   Zn6   S    
C178  S22   S    
C120  C152  A    
N7    N12   A    
S25   O122  D    
C193  H18   S    
C111  C127  A    
C35   N43   S    
C200  H48   S    
C57   C81   A    
C180  S24   S    
C109  N21   S    
C70   C86   A    
C6    C86   S    
C46   C74   A    
O159  H117  S    
C212  H142  S    
S29   O133  D    
C202  H56   S    
O132  H108  S    
C221  H178  S    
O117  H103  S    
O31   Zn7   S    
C102  O26   A    
C15   S39   S    
C66   C170  A    
N6    N9    A    
C36   C52   A    
C216  H159  S    
C65   C85   A    
C129  S9    S    
O9    Zn5   S    
C67   C87   A    
S18   O100  D    
C171  C187  A    
C45   C75   A    
C199  H44   S    
C165  C181  A    
C20   S44   S    
C216  H158  S    
C5    C85   S    
S29   O134  D    
O162  H118  S    
C214  H150  S    
C35   C51   A    
C60   C84   A    
O47   Zn12  S    
S1    O49   D    
N21   C197  S    
C12   S36   S    
S22   O113  D    
C172  C188  A    
C23   C39   A    
C173  C189  A    
S24   O118  D    
C24   C40   A    
S34   O149  D    
O189  H127  S    
S29   O135  S    
C136  S16   S    
N46   C222  S    
C131  C141  A    
S43   O175  D    
S33   O146  D    
C11   C179  A    
O135  H109  S    
C196  H30   S    
C36   N44   S    
S9    O74   D    
C197  H36   S    
C127  S7    S    
C202  H54   S    
S30   O136  D    
C19   C187  A    
C44   C76   A    
N27   H57   S    
C161  C177  A    
N4    N15   A    
C92   O38   A    
C123  S3    S    
C223  H187  S    
S10   O78   S    
C58   C162  A    
