data_mof_unit_27077.cif
_audit_creation_date              2012-12-10T19:10:03-0500
_audit_creation_method            fapswitch 2.2
_symmetry_space_group_name_H-M    P1
_symmetry_Int_Tables_number       1
_space_group_crystal_system       triclinic
_cell_length_a                    10.830789
_cell_length_b                    10.776244
_cell_length_c                    9.590421
_cell_angle_alpha                 89.674086
_cell_angle_beta                  91.384801
_cell_angle_gamma                 90.596187
_cell_volume                      1118.94409481

loop_
_atom_site_label
_atom_site_type_symbol
_atom_type_description
_atom_site_fract_x
_atom_site_fract_y
_atom_site_fract_z
_atom_type_partial_charge
C1    C     C_R   0.502285 0.262591 0.500641 0.863731
C2    C     C_R   0.194323 0.749689 0.023169 -0.161837
C3    C     C_R   0.930022 0.561462 0.394698 -0.231256
C4    C     C_R   0.871511 0.500627 0.504270 -0.064064
C5    C     C_R   0.941840 0.443288 0.611297 -0.004328
C6    C     C_R   0.069497 0.450098 0.607394 -0.233385
C7    C     C_R   0.128587 0.509169 0.496504 -0.074014
C8    C     C_R   0.058140 0.565355 0.387418 0.021105
C9    C     C_R   0.861574 0.410700 0.851094 -0.120256
C10   C     C_R   0.817029 0.331783 0.955119 -0.151714
C11   C     C_R   0.798918 0.205487 0.927862 0.000116
C12   C     C_R   0.262572 0.505100 0.498286 0.799186
C13   C     C_R   0.826373 0.157639 0.797324 -0.106986
C14   C     C_R   0.870731 0.236179 0.693338 -0.162573
C15   C     C_R   0.887191 0.363277 0.719147 0.133090
C16   C     C_R   0.408185 0.061599 0.559235 0.037488
C17   C     C_R   0.504989 0.129032 0.500593 -0.121294
C18   C     C_R   0.594348 0.064760 0.425011 0.160962
C19   C     C_R   0.591982 0.934889 0.423889 -0.213576
C20   C     C_R   0.500343 0.869707 0.495795 -0.111627
C21   C     C_R   0.403572 0.934346 0.552488 0.111584
C22   C     C_3   0.340234 0.919799 0.687768 -0.555292
C23   C     C_R   0.500673 0.737025 0.499398 0.796833
C24   C     C_3   0.349283 0.060792 0.699571 -0.298017
C25   C     C_R   0.595536 0.552848 0.075962 0.222826
C26   C     C_R   0.408927 0.439308 0.068893 0.053109
C27   C     C_R   0.409531 0.442702 0.921036 -0.033674
C28   C     C_R   0.595477 0.552756 0.929037 0.255720
C29   C     C_3   0.637143 0.685041 0.923779 -0.484789
C30   C     C_3   0.637303 0.684983 0.082077 -0.474752
C31   C     C_R   0.737529 0.498149 0.501655 0.800339
C32   C     C_R   0.232522 0.790945 0.155287 0.202805
C33   C     C_R   0.192276 0.729153 0.275399 -0.143012
C34   C     C_R   0.111179 0.626815 0.262941 0.071242
C35   C     C_R   0.069732 0.589706 0.129223 -0.118401
C36   C     C_R   0.113006 0.649226 0.010101 -0.159237
Cu1   Cu    Cu3+1 0.499990 0.499980 0.640670 0.959061
Cu2   Cu    Cu3+1 0.500010 0.500020 0.359330 0.997410
H1    H     H_    0.225506 0.797162 0.930663 0.148783
H2    H     H_    0.764223 0.144221 0.007721 0.189240
H3    H     H_    0.814187 0.059526 0.777021 0.141896
H4    H     H_    0.894628 0.197741 0.593738 0.160370
H5    H     H_    0.663736 0.885118 0.371528 0.162111
H6    H     H_    0.243753 0.885430 0.672481 0.198700
H7    H     H_    0.395560 0.866991 0.766664 0.205215
H8    H     H_    0.257299 0.105968 0.696857 0.169644
H9    H     H_    0.336841 0.397606 0.860180 0.189949
H10   H     H_    0.730989 0.695373 0.880527 0.187046
H11   H     H_    0.566519 0.747471 0.876511 0.221925
H12   H     H_    0.731326 0.695078 0.129838 0.185593
H13   H     H_    0.566796 0.747291 0.125259 0.243436
H14   H     H_    0.220992 0.762776 0.377434 0.121436
H15   H     H_    0.004259 0.513647 0.117291 0.149575
H16   H     H_    0.082310 0.618463 0.907649 0.149880
H17   H     H_    0.875158 0.606692 0.313516 0.144004
H18   H     H_    0.123092 0.403442 0.688773 0.170325
H19   H     H_    0.876326 0.508170 0.873191 0.108574
H20   H     H_    0.797110 0.368358 0.056911 0.149016
N1    N     N_R   0.500790 0.500930 0.147930 -0.226674
N2    N     N_R   0.500790 0.500890 0.852020 -0.206770
O1    O     O_R   0.500000 0.319640 0.618810 -0.586084
O2    O     O_R   0.500010 0.319680 0.381230 -0.500444
O3    O     O_R   0.319640 0.499990 0.618790 -0.602284
O4    O     O_R   0.319650 0.500030 0.381210 -0.567229
O5    O     O_R   0.499990 0.680320 0.618770 -0.592225
O6    O     O_R   0.500000 0.680360 0.381190 -0.582394
O7    O     O_R   0.680350 0.499970 0.618790 -0.578077
O8    O     O_R   0.680360 0.500010 0.381210 -0.580610
I1    I     I_    0.741823 0.155918 0.323494 -0.435011
C37   C     C_2   0.432603 0.101407 0.819993 0.982252
O9    O     O_2   0.390893 0.168437 0.908698 -0.559329
O10   O     O_R   0.554303 0.060644 0.836393 -0.742699
H21   H     H_    0.580982 0.002830 0.760309 0.287727
C38   C     C_2   0.304395 0.366145 0.126865 0.937868
O11   O     O_2   0.318464 0.298658 0.227873 -0.527379
O12   O     O_R   0.191170 0.362579 0.053556 -0.807317
H22   H     H_    0.128296 0.305607 0.098477 0.340929
I2    I     I_    0.343164 0.952024 0.169640 -0.313491

loop_
_geom_bond_atom_site_label_1
_geom_bond_atom_site_label_2
_ccdc_geom_bond_type
C30   H13   S    
C16   C21   A    
C35   H15   S    
C19   C20   A    
C1    O2    A    
C13   H3    S    
C24   C37   S    
C7    C8    A    
C29   H11   S    
C33   H14   S    
C31   O7    A    
C26   C27   A    
Cu1   Cu2   S    
C38   O12   S    
C23   O6    A    
C28   C29   S    
C10   H20   S    
C34   C35   A    
C27   N2    A    
C5    C6    A    
C12   O4    A    
C27   H9    S    
C2    C32   A    
C18   C19   A    
C3    H17   S    
C2    H1    S    
C22   H6    S    
C35   C36   A    
C16   C17   A    
Cu1   O5    S    
C37   O9    D    
C26   N1    A    
C14   H4    S    
C18   I1    S    
C30   H12   S    
C16   C24   S    
C21   C22   S    
C31   O8    A    
Cu1   O3    S    
C19   H5    S    
C33   C34   A    
Cu2   O4    S    
C28   N2    A    
C7    C12   S    
C38   O11   D    
C29   H10   S    
Cu1   N2    S    
Cu2   O6    S    
O12   H22   S    
C3    C8    A    
C12   O3    A    
O10   H21   S    
C25   C28   A    
C29   C30   S    
C20   C23   S    
C17   C18   A    
C8    C34   S    
Cu2   O8    S    
C22   C24   S    
C3    C4    A    
C9    C10   A    
C2    C36   A    
C25   C30   S    
C6    H18   S    
C4    C5    A    
C1    O1    A    
Cu1   O1    S    
C6    C7    A    
C1    C17   S    
C24   H8    S    
C32   C33   A    
C23   O5    A    
C9    C15   A    
C11   C13   A    
Cu1   O7    S    
C26   C38   S    
C9    H19   S    
C11   H2    S    
C5    C15   S    
C4    C31   S    
C36   H16   S    
C10   C11   A    
C32   I2    S    
Cu2   N1    S    
C22   H7    S    
C20   C21   A    
C14   C15   A    
C37   O10   S    
C25   N1    A    
C13   C14   A    
Cu2   O2    S    
