data_mof_unit_55541.cif
_audit_creation_date              2012-12-10T20:31:09-0500
_audit_creation_method            fapswitch 2.2
_symmetry_space_group_name_H-M    P1
_symmetry_Int_Tables_number       1
_space_group_crystal_system       triclinic
_cell_length_a                    14.991337
_cell_length_b                    10.691766
_cell_length_c                    9.854454
_cell_angle_alpha                 90.196674
_cell_angle_beta                  90.123771
_cell_angle_gamma                 90.26179
_cell_volume                      1579.48046457

loop_
_atom_site_label
_atom_site_type_symbol
_atom_type_description
_atom_site_fract_x
_atom_site_fract_y
_atom_site_fract_z
_atom_type_partial_charge
C1    C     C_R   0.498608 0.259969 0.499919 0.882741
C2    C     C_R   0.184865 0.457737 0.604595 -0.265041
C3    C     C_R   0.230984 0.513061 0.498212 -0.110545
C4    C     C_R   0.326851 0.504585 0.499719 0.885740
C5    C     C_R   0.186029 0.574415 0.391838 -0.074504
C6    C     C_R   0.497265 0.063799 0.622880 0.076431
C7    C     C_R   0.488364 0.128183 0.500911 -0.097970
C8    C     C_R   0.464877 0.063751 0.381894 -0.230751
C9    C     C_R   0.463431 0.934522 0.382320 -0.203617
C10   C     C_R   0.485891 0.871163 0.501781 -0.090534
C11   C     C_R   0.494842 0.936285 0.623522 0.117776
C12   C     C_R   0.905416 0.552482 0.384128 0.101848
C13   C     C_3   0.564932 0.926985 0.731333 -0.512396
C14   C     C_3   0.568027 0.069197 0.730918 -0.209382
C15   C     C_R   0.425863 0.461622 0.070594 0.181597
C16   C     C_R   0.497711 0.739884 0.500239 0.878947
C17   C     C_R   0.569446 0.549247 0.072420 -0.129315
C18   C     C_R   0.569396 0.549387 0.928404 -0.136978
C19   C     C_R   0.426426 0.461328 0.928012 0.203684
C20   C     C_3   0.383735 0.335958 0.918988 -0.557778
C21   C     C_3   0.381765 0.334989 0.073984 -0.090190
C22   C     C_R   0.673239 0.500339 0.500062 0.902755
C23   C     C_R   0.955278 0.410687 0.720642 -0.207870
C24   C     C_R   0.813196 0.549199 0.386083 -0.247520
C25   C     C_R   0.768831 0.502602 0.499599 -0.071669
C26   C     C_R   0.815612 0.457953 0.611739 -0.243220
C27   C     C_R   0.907951 0.458507 0.610327 0.121273
C28   C     C_R   0.953387 0.507107 0.496273 0.069502
C29   C     C_1   0.653937 0.119692 0.682825 0.226296
C30   C     C_3   0.286102 0.337151 0.133167 -0.322814
C31   C     C_3   0.275888 0.247188 0.252075 -0.855222
C32   C     C_1   0.235856 0.658805 0.304632 0.184527
C33   C     C_1   0.082047 0.639575 0.139707 0.158366
C34   C     C_R   0.047683 0.410232 0.718134 -0.198562
C35   C     C_R   0.093136 0.459851 0.606478 0.131526
C36   C     C_R   0.046436 0.510186 0.494734 0.030048
C37   C     C_R   0.092423 0.563748 0.382628 0.011879
C38   C     C_R   0.042381 0.603459 0.267458 -0.005388
C39   C     C_R   0.949692 0.598446 0.270578 -0.258493
H1    H     H_    0.775883 0.584274 0.299850 0.150768
H2    H     H_    0.780199 0.421068 0.698890 0.164236
H3    H     H_    0.426211 0.262338 0.117355 0.177713
H4    H     H_    0.920856 0.372862 0.808098 0.150748
H5    H     H_    0.083696 0.371833 0.803831 0.144361
H6    H     H_    0.220690 0.413154 0.686849 0.153059
H7    H     H_    0.911686 0.629110 0.182937 0.149762
H8    H     H_    0.452805 0.112029 0.287497 0.164510
H9    H     H_    0.286453 0.149441 0.217342 0.255603
H10   H     H_    0.324507 0.269574 0.333478 0.270484
H11   H     H_    0.207569 0.254864 0.294581 0.251110
H12   H     H_    0.450255 0.885100 0.288172 0.180796
H13   H     H_    0.268116 0.432760 0.167173 0.224732
H14   H     H_    0.235997 0.309141 0.055405 0.203398
H15   H     H_    0.537611 0.887939 0.827133 0.200518
H16   H     H_    0.626577 0.880215 0.694484 0.200649
H17   H     H_    0.544623 0.112252 0.827113 0.146568
H18   H     H_    0.626184 0.587061 0.126975 0.146538
H19   H     H_    0.626083 0.587353 0.874479 0.149905
H20   H     H_    0.317745 0.340915 0.868022 0.192362
H21   H     H_    0.429038 0.264526 0.875367 0.199490
N1    N     N_R   0.499390 0.499140 0.142800 -0.118035
N2    N     N_R   0.499390 0.499180 0.857150 -0.106098
N3    N     N_1   0.721346 0.159344 0.644948 -0.223371
N4    N     N_1   0.276168 0.726123 0.236089 -0.203498
N5    N     N_1   0.113117 0.668037 0.036828 -0.198579
O1    O     O_R   0.500010 0.316790 0.614690 -0.620367
O2    O     O_R   0.500000 0.316760 0.385350 -0.627411
O3    O     O_R   0.367850 0.499990 0.614680 -0.618579
O4    O     O_R   0.367840 0.499950 0.385340 -0.616932
O5    O     O_R   0.500000 0.683240 0.614650 -0.615062
O6    O     O_R   0.499990 0.683210 0.385310 -0.621557
O7    O     O_R   0.632160 0.500050 0.614660 -0.630275
O8    O     O_R   0.632150 0.500010 0.385320 -0.627088
Zn1   Zn    Zn3+2 0.500010 0.500020 0.653130 0.951449
Zn2   Zn    Zn3+2 0.499990 0.499980 0.346870 0.952917

loop_
_geom_bond_atom_site_label_1
_geom_bond_atom_site_label_2
_ccdc_geom_bond_type
C2    C35   A    
C14   H17   S    
C29   N3    T    
C5    C37   A    
C19   C20   S    
C9    H12   S    
C33   N5    T    
C7    C8    A    
N1    Zn2   S    
C15   C19   A    
C26   C27   A    
C12   C28   A    
C36   C37   A    
C30   C31   S    
C19   N2    A    
O3    Zn1   S    
O1    Zn1   S    
C23   H4    S    
C34   C35   A    
C24   H1    S    
C18   H19   S    
C35   C36   A    
C8    C9    A    
C22   C25   S    
O5    Zn1   S    
C23   C27   A    
C20   H21   S    
C9    C10   A    
C5    C32   S    
C17   N1    A    
C13   C14   S    
O8    Zn2   S    
C16   O6    A    
C31   H10   S    
C22   O7    A    
C4    O4    A    
C17   C18   A    
C2    H6    S    
C30   H14   S    
C16   O5    A    
C24   C25   A    
C32   N4    T    
O7    Zn1   S    
C6    C11   A    
C4    O3    A    
C18   N2    A    
C25   C26   A    
C37   C38   A    
C6    C14   S    
C23   C34   A    
C1    O1    A    
C15   N1    A    
C34   H5    S    
C20   H20   S    
C39   H7    S    
C31   H9    S    
O2    Zn2   S    
C31   H11   S    
C3    C4    S    
C13   H15   S    
C30   H13   S    
C1    C7    S    
C3    C5    A    
C6    C7    A    
C21   C30   S    
C12   C24   A    
C33   C38   S    
C12   C39   A    
C2    C3    A    
C8    H8    S    
C10   C16   S    
O6    Zn2   S    
C11   C13   S    
C38   C39   A    
C1    O2    A    
O4    Zn2   S    
C10   C11   A    
C21   H3    S    
C15   C21   S    
C20   C21   S    
C28   C36   A    
C27   C28   A    
N2    Zn1   S    
C14   C29   S    
C22   O8    A    
C26   H2    S    
C17   H18   S    
C13   H16   S    
