data_mof_unit_35159.cif
_audit_creation_date              2012-12-10T17:00:35-0500
_audit_creation_method            fapswitch 2.2
_symmetry_space_group_name_H-M    P1
_symmetry_Int_Tables_number       1
_space_group_crystal_system       triclinic
_cell_length_a                    21.88844
_cell_length_b                    21.806269
_cell_length_c                    21.894207
_cell_angle_alpha                 88.186422
_cell_angle_beta                  89.67367
_cell_angle_gamma                 91.07827
_cell_volume                      10442.9279239

loop_
_atom_site_label
_atom_site_type_symbol
_atom_type_description
_atom_site_fract_x
_atom_site_fract_y
_atom_site_fract_z
_atom_type_partial_charge
C1    C     C_R   0.501089 0.118870 0.994801 0.775784
C2    C     C_R   0.005836 0.118831 0.499565 0.790962
C3    C     C_R   0.500025 0.881423 0.001099 0.806325
C4    C     C_R   0.997725 0.881175 0.501569 0.792259
C5    C     C_R   0.881342 0.999751 0.500147 0.782190
C6    C     C_R   0.881159 0.498860 0.003565 0.794763
C7    C     C_R   0.118681 0.000554 0.500150 0.795184
C8    C     C_R   0.118537 0.500485 0.998537 0.813871
C9    C     C_R   0.000975 0.500489 0.880938 0.823427
C10   C     C_R   0.500271 0.000115 0.881378 0.800123
C11   C     C_R   0.004612 0.499727 0.118402 0.805841
C12   C     C_R   0.499834 0.002443 0.118492 0.807746
C13   C     C_R   0.001026 0.619042 0.502794 0.814763
C14   C     C_R   0.502493 0.618669 0.998979 0.812964
C15   C     C_R   0.999387 0.381320 0.494811 0.780066
C16   C     C_R   0.501008 0.381289 0.001085 0.789137
C17   C     C_R   0.381258 0.500468 0.000098 0.789859
C18   C     C_R   0.381344 0.999134 0.500162 0.813944
C19   C     C_R   0.618611 0.497511 0.999810 0.771646
C20   C     C_R   0.618594 0.000289 0.502469 0.806475
C21   C     C_R   0.503159 0.001399 0.381045 0.796112
C22   C     C_R   0.999478 0.496889 0.381447 0.813807
C23   C     C_R   0.500129 0.998940 0.618714 0.783060
C24   C     C_R   0.000381 0.492112 0.618787 0.802209
C25   C     C_R   0.411959 0.925458 0.815084 0.111431
C26   C     C_R   0.188015 0.929264 0.412731 0.108222
C27   C     C_R   0.563121 0.908043 0.187988 -0.034649
C28   C     C_R   0.811898 0.942515 0.603261 -0.000809
C29   C     C_R   0.423723 0.094972 0.195898 -0.000755
C30   C     C_R   0.190033 0.085881 0.573572 -0.026401
C31   C     C_R   0.567917 0.092279 0.808455 -0.025220
C32   C     C_R   0.811318 0.051491 0.396369 0.123941
C33   C     C_R   0.073700 0.191622 0.399917 0.080245
C34   C     C_R   0.073052 0.598770 0.192237 -0.040618
C35   C     C_R   0.092707 0.810459 0.575732 -0.065775
C36   C     C_R   0.098804 0.436457 0.819893 -0.034759
C37   C     C_R   0.887718 0.796448 0.468167 0.043701
C38   C     C_R   0.918545 0.425851 0.183685 0.020680
C39   C     C_R   0.969542 0.197071 0.604772 0.064550
C40   C     C_R   0.900134 0.544841 0.800527 -0.081017
C41   C     C_R   0.809629 0.595210 0.063126 0.104014
C42   C     C_R   0.408741 0.805989 0.068147 0.099361
C43   C     C_R   0.185172 0.434702 0.095563 -0.033529
C44   C     C_R   0.612731 0.191326 0.022735 0.061957
C45   C     C_R   0.190542 0.566241 0.900761 -0.034134
C46   C     C_R   0.579349 0.822143 0.918143 -0.042411
C47   C     C_R   0.811154 0.388338 0.972497 0.062024
C48   C     C_R   0.401859 0.190662 0.937928 0.101538
C49   C     C_R   0.894581 0.440328 0.303755 0.050376
C50   C     C_R   0.698843 0.407089 0.922761 0.008470
C51   C     C_R   0.114163 0.444629 0.695388 0.039845
C52   C     C_R   0.309223 0.437837 0.097266 0.113573
C53   C     C_R   0.889986 0.464935 0.702345 -0.028212
C54   C     C_R   0.685636 0.587240 0.067334 -0.013539
C55   C     C_R   0.071715 0.584040 0.315718 -0.019206
C56   C     C_R   0.314785 0.565481 0.903359 0.114382
C57   C     C_R   0.572251 0.699074 0.900551 -0.032072
C58   C     C_R   0.567202 0.092508 0.684785 0.117943
C59   C     C_R   0.591269 0.298198 0.080032 0.001929
C60   C     C_R   0.562960 0.905729 0.312042 0.121429
C61   C     C_R   0.403700 0.315102 0.941651 -0.042093
C62   C     C_R   0.413978 0.921020 0.691118 -0.027697
C63   C     C_R   0.412513 0.681764 0.068729 -0.012921
C64   C     C_R   0.472052 0.112319 0.308676 0.051679
C65   C     C_R   0.314041 0.083998 0.574197 0.119456
C66   C     C_R   0.900516 0.287806 0.546315 0.056581
C67   C     C_R   0.688762 0.945561 0.608120 -0.103950
C68   C     C_R   0.119626 0.702648 0.514321 -0.013147
C69   C     C_R   0.688519 0.060067 0.403521 -0.019454
C70   C     C_R   0.073286 0.317479 0.399987 -0.032324
C71   C     C_R   0.311301 0.919518 0.420779 0.004266
C72   C     C_R   0.891826 0.689320 0.543406 0.106664
C73   C     C_R   0.355622 0.921084 0.784617 0.418260
C74   C     C_R   0.221525 0.923894 0.358039 0.411406
C75   C     C_R   0.558651 0.850302 0.218603 0.230647
C76   C     C_R   0.784291 0.947378 0.661065 0.432840
C77   C     C_R   0.391875 0.131454 0.237756 0.391358
C78   C     C_R   0.221802 0.142696 0.573993 0.229715
C79   C     C_R   0.563940 0.149457 0.777183 0.241124
C80   C     C_R   0.778034 0.047600 0.341721 0.421485
C81   C     C_R   0.077132 0.224529 0.343286 0.417113
C82   C     C_R   0.079715 0.650682 0.229845 0.411478
C83   C     C_R   0.151681 0.785359 0.579360 0.341618
C84   C     C_R   0.158588 0.440376 0.796817 0.264007
C85   C     C_R   0.833303 0.762274 0.481966 0.317795
C86   C     C_R   0.857510 0.432915 0.200760 0.216952
C87   C     C_R   0.912726 0.213213 0.630512 0.273816
C88   C     C_R   0.841619 0.525987 0.780015 0.425995
C89   C     C_R   0.776732 0.650318 0.061918 0.419809
C90   C     C_R   0.352735 0.772793 0.069167 0.425184
C91   C     C_R   0.213925 0.434718 0.152956 0.240484
C92   C     C_R   0.643124 0.201133 0.077596 0.300669
C93   C     C_R   0.222300 0.567550 0.844465 0.297079
C94   C     C_R   0.579635 0.803235 0.858003 0.308368
C95   C     C_R   0.799075 0.362170 0.916462 0.272835
C96   C     C_R   0.345516 0.220640 0.942740 0.426110
C97   C     C_R   0.844889 0.436029 0.263005 0.419990
C98   C     C_R   0.741938 0.372308 0.890553 0.417747
C99   C     C_R   0.166524 0.444578 0.733247 0.455408
C100  C     C_R   0.278063 0.436103 0.153721 0.423325
C101  C     C_R   0.836494 0.486306 0.731253 0.401898
C102  C     C_R   0.712568 0.646226 0.063252 0.222575
C103  C     C_R   0.067187 0.643611 0.291414 0.329180
C104  C     C_R   0.286314 0.566966 0.845956 0.441712
C105  C     C_R   0.582738 0.740785 0.849710 0.401047
C106  C     C_R   0.566281 0.149581 0.713151 0.429337
C107  C     C_R   0.629537 0.254116 0.108586 0.371095
C108  C     C_R   0.559648 0.849217 0.282776 0.427188
C109  C     C_R   0.346527 0.284820 0.947212 0.239128
C110  C     C_R   0.356527 0.919224 0.720557 0.233611
C111  C     C_R   0.354573 0.708546 0.066428 0.224662
C112  C     C_R   0.417727 0.141890 0.294625 0.303724
C113  C     C_R   0.285839 0.141380 0.577038 0.438919
C114  C     C_R   0.876565 0.256501 0.598840 0.377862
C115  C     C_R   0.721101 0.948954 0.663478 0.371830
C116  C     C_R   0.164222 0.730721 0.551412 0.410066
C117  C     C_R   0.714185 0.051069 0.345424 0.237228
C118  C     C_R   0.076804 0.289045 0.343318 0.249171
C119  C     C_R   0.285205 0.918086 0.362201 0.247965
C120  C     C_R   0.835433 0.709397 0.521117 0.257433
C121  C     C_R   0.461338 0.956501 0.719292 0.025642
C122  C     C_R   0.281797 0.957235 0.463955 0.013890
C123  C     C_R   0.535159 0.956655 0.281667 -0.098264
C124  C     C_R   0.717405 0.971854 0.553654 -0.007475
C125  C     C_R   0.484520 0.056254 0.280572 -0.029800
C126  C     C_R   0.283044 0.038293 0.540230 -0.112259
C127  C     C_R   0.537417 0.041868 0.716297 -0.131708
C128  C     C_R   0.717852 0.029565 0.453850 -0.017482
C129  C     C_R   0.039735 0.285050 0.447162 0.020835
C130  C     C_R   0.038601 0.539412 0.282870 0.008319
C131  C     C_R   0.057924 0.723138 0.517237 -0.037094
C132  C     C_R   0.056807 0.464896 0.720299 -0.052859
C133  C     C_R   0.946178 0.716497 0.517752 -0.013319
C134  C     C_R   0.952730 0.464564 0.280425 -0.090235
C135  C     C_R   0.961207 0.276006 0.526895 -0.089044
C136  C     C_R   0.947779 0.488472 0.720151 -0.007950
C137  C     C_R   0.716598 0.540152 0.035847 0.012797
C138  C     C_R   0.460677 0.714753 0.036317 0.013257
C139  C     C_R   0.280440 0.469569 0.047596 -0.101518
C140  C     C_R   0.548892 0.279381 0.032415 -0.085738
C141  C     C_R   0.283042 0.533232 0.952010 -0.078326
C142  C     C_R   0.540307 0.721591 0.953768 -0.065082
C143  C     C_R   0.719722 0.448890 0.969512 -0.071050
C144  C     C_R   0.454505 0.283931 0.968514 0.015282
C145  C     C_R   0.961908 0.461069 0.216568 -0.001493
C146  C     C_R   0.781754 0.443793 0.985984 -0.011731
C147  C     C_R   0.053053 0.467321 0.785254 -0.004563
C148  C     C_R   0.215925 0.468039 0.046293 -0.004868
C149  C     C_R   0.952312 0.514820 0.777672 -0.059911
C150  C     C_R   0.781038 0.543193 0.036157 -0.090288
C151  C     C_R   0.040343 0.544733 0.218028 -0.060672
C152  C     C_R   0.218445 0.534087 0.951486 -0.005176
C153  C     C_R   0.542424 0.786164 0.960411 0.017432
C154  C     C_R   0.537892 0.041708 0.780686 0.012610
C155  C     C_R   0.555225 0.218783 0.013181 -0.039786
C156  C     C_R   0.534433 0.958236 0.217241 0.016244
C157  C     C_R   0.453898 0.219456 0.965002 -0.089447
C158  C     C_R   0.459726 0.958892 0.783760 -0.113996
C159  C     C_R   0.458548 0.779214 0.036675 -0.126773
C160  C     C_R   0.469194 0.051574 0.218341 -0.064094
C161  C     C_R   0.218544 0.038659 0.540276 0.022995
C162  C     C_R   0.984853 0.219755 0.545108 -0.029534
C163  C     C_R   0.782076 0.970911 0.551763 -0.025640
C164  C     C_R   0.049418 0.784265 0.534147 0.005317
C165  C     C_R   0.782181 0.026670 0.450968 -0.099127
C166  C     C_R   0.042519 0.219816 0.448781 -0.085746
C167  C     C_R   0.217581 0.960932 0.460594 -0.122937
C168  C     C_R   0.944133 0.777276 0.495306 -0.088159
C169  C     C_R   0.502499 0.996433 0.685612 -0.124579
C170  C     C_R   0.314529 0.996175 0.503755 -0.118671
C171  C     C_R   0.510234 0.005782 0.313578 -0.152411
C172  C     C_R   0.685394 0.000852 0.503900 -0.105211
C173  C     C_R   0.998269 0.313967 0.487364 -0.126572
C174  C     C_R   0.998278 0.497160 0.314247 -0.122139
C175  C     C_R   0.002849 0.686338 0.511564 -0.126330
C176  C     C_R   0.002144 0.479183 0.686497 -0.130039
C177  C     C_R   0.685464 0.494829 0.000762 -0.098392
C178  C     C_R   0.503478 0.685666 0.997319 -0.126298
C179  C     C_R   0.314007 0.501296 0.000096 -0.136732
C180  C     C_R   0.501562 0.314326 0.002318 -0.103324
C181  C     C_R   0.006148 0.499455 0.185263 -0.128627
C182  C     C_R   0.813920 0.494604 0.010939 -0.151891
C183  C     C_R   0.004186 0.499225 0.813393 -0.115424
C184  C     C_R   0.185089 0.501223 0.998790 -0.109804
C185  C     C_R   0.501854 0.814482 0.001736 -0.128975
C186  C     C_R   0.501356 0.998070 0.814527 -0.123860
C187  C     C_R   0.504605 0.186604 0.987540 -0.148634
C188  C     C_R   0.500513 0.004821 0.185146 -0.101620
C189  C     C_R   0.185619 0.998494 0.501629 -0.119259
C190  C     C_R   0.015490 0.186454 0.499664 -0.145782
C191  C     C_R   0.814348 0.998588 0.500650 -0.125230
C192  C     C_R   0.997473 0.814103 0.507493 -0.097821
Cu1   Cu    Cu3+1 0.561820 0.000000 0.000000 0.867980
Cu2   Cu    Cu3+1 1.000000 1.000000 0.561820 0.868182
Cu3   Cu    Cu3+1 0.438180 0.000000 0.000000 0.910388
Cu4   Cu    Cu3+1 0.000000 0.000000 0.438180 0.916969
Cu5   Cu    Cu3+1 1.000000 0.438180 0.000000 0.871563
Cu6   Cu    Cu3+1 1.000000 0.561820 0.000000 0.875994
Cu7   Cu    Cu3+1 0.061820 0.500000 0.500000 0.862295
Cu8   Cu    Cu3+1 0.500000 0.500000 0.061820 0.878709
Cu9   Cu    Cu3+1 0.938180 0.500000 0.500000 0.892303
Cu10  Cu    Cu3+1 0.500000 0.500000 0.938180 0.874371
Cu11  Cu    Cu3+1 0.500000 0.938180 0.500000 0.896744
Cu12  Cu    Cu3+1 0.500000 0.061820 0.500000 0.921201
O1    O     O_R   0.552210 0.090180 0.999970 -0.607646
O2    O     O_R   0.000030 0.090180 0.552210 -0.606965
O3    O     O_R   0.447790 0.090180 0.000030 -0.585285
O4    O     O_R   0.999970 0.090180 0.447790 -0.576673
O5    O     O_R   0.552210 0.909820 0.000030 -0.605642
O6    O     O_R   0.000030 0.909820 0.447790 -0.588695
O7    O     O_R   0.447790 0.909820 0.999970 -0.570903
O8    O     O_R   0.999970 0.909820 0.552210 -0.601804
O9    O     O_R   0.909820 0.000030 0.552210 -0.591397
O10   O     O_R   0.909820 0.447790 0.000030 -0.603027
O11   O     O_R   0.909820 0.999970 0.447790 -0.587406
O12   O     O_R   0.909820 0.552210 0.999970 -0.575370
O13   O     O_R   0.090180 0.999970 0.552210 -0.606888
O14   O     O_R   0.090180 0.552210 0.000030 -0.611373
O15   O     O_R   0.090180 0.000030 0.447790 -0.576427
O16   O     O_R   0.090180 0.447790 0.999970 -0.607833
O17   O     O_R   0.999970 0.447790 0.909820 -0.581351
O18   O     O_R   0.552210 0.999970 0.909820 -0.608530
O19   O     O_R   0.000030 0.552210 0.909820 -0.625848
O20   O     O_R   0.447790 0.000030 0.909820 -0.578944
O21   O     O_R   0.000030 0.447790 0.090180 -0.610031
O22   O     O_R   0.447790 0.999970 0.090180 -0.594155
O23   O     O_R   0.999970 0.552210 0.090180 -0.581842
O24   O     O_R   0.552210 0.000030 0.090180 -0.586167
O25   O     O_R   0.052210 0.590180 0.499970 -0.605936
O26   O     O_R   0.500030 0.590180 0.052210 -0.600619
O27   O     O_R   0.947790 0.590180 0.500030 -0.572578
O28   O     O_R   0.499970 0.590180 0.947790 -0.582360
O29   O     O_R   0.052210 0.409820 0.500030 -0.603061
O30   O     O_R   0.500030 0.409820 0.947790 -0.603515
O31   O     O_R   0.947790 0.409820 0.499970 -0.628186
O32   O     O_R   0.499970 0.409820 0.052210 -0.584056
O33   O     O_R   0.409820 0.500030 0.052210 -0.583912
O34   O     O_R   0.409820 0.947790 0.500030 -0.604847
O35   O     O_R   0.409820 0.499970 0.947790 -0.584773
O36   O     O_R   0.409820 0.052210 0.499970 -0.565063
O37   O     O_R   0.590180 0.499970 0.052210 -0.598668
O38   O     O_R   0.590180 0.052210 0.500030 -0.605205
O39   O     O_R   0.590180 0.500030 0.947790 -0.599730
O40   O     O_R   0.590180 0.947790 0.499970 -0.590670
O41   O     O_R   0.499970 0.947790 0.409820 -0.574364
O42   O     O_R   0.052210 0.499970 0.409820 -0.607858
O43   O     O_R   0.500030 0.052210 0.409820 -0.608926
O44   O     O_R   0.947790 0.500030 0.409820 -0.577019
O45   O     O_R   0.500030 0.947790 0.590180 -0.615997
O46   O     O_R   0.947790 0.499970 0.590180 -0.590071
O47   O     O_R   0.499970 0.052210 0.590180 -0.569431
O48   O     O_R   0.052210 0.500030 0.590180 -0.571588
O49   O     O_3   0.569610 0.203880 0.807224 -0.748096
H1    H     H_    0.558071 0.195609 0.850544 0.317775
O50   O     O_3   0.191913 0.196730 0.583315 -0.755808
H2    H     H_    0.148681 0.190523 0.571584 0.320670
O51   O     O_3   0.340816 0.163064 0.218406 -0.733739
H3    H     H_    0.321072 0.182501 0.253502 0.375836
O52   O     O_3   0.808753 0.047515 0.286462 -0.735479
H4    H     H_    0.779164 0.042012 0.252942 0.369013
O53   O     O_3   0.566787 0.796645 0.187950 -0.757632
H5    H     H_    0.562506 0.805679 0.143478 0.326336
O54   O     O_3   0.190752 0.918826 0.303476 -0.722759
H6    H     H_    0.220575 0.917669 0.269373 0.372727
O55   O     O_3   0.302284 0.914088 0.818359 -0.732553
H7    H     H_    0.266765 0.914031 0.790558 0.368976
O56   O     O_3   0.816039 0.939826 0.714987 -0.687750
H8    H     H_    0.860202 0.945964 0.706149 0.309654
O57   O     O_3   0.891265 0.187942 0.685435 -0.754910
H9    H     H_    0.913971 0.150357 0.695938 0.339529
O58   O     O_3   0.810724 0.424123 0.160273 -0.770008
H10   H     H_    0.827218 0.434693 0.119162 0.326378
O59   O     O_3   0.778398 0.783813 0.459893 -0.762214
H11   H     H_    0.745670 0.773583 0.490072 0.329128
O60   O     O_3   0.788267 0.543121 0.808213 -0.691828
H12   H     H_    0.797620 0.553992 0.850792 0.314435
O61   O     O_3   0.198690 0.813228 0.610711 -0.671350
H13   H     H_    0.191601 0.858022 0.610438 0.312470
O62   O     O_3   0.100157 0.707623 0.208622 -0.675237
H14   H     H_    0.140148 0.701923 0.188468 0.327142
O63   O     O_3   0.085858 0.193209 0.290174 -0.735625
H15   H     H_    0.083601 0.221958 0.254372 0.368143
O64   O     O_3   0.208014 0.426550 0.833477 -0.745591
H16   H     H_    0.194738 0.426797 0.876870 0.323858
O65   O     O_3   0.838040 0.320640 0.891257 -0.754507
H17   H     H_    0.879282 0.326928 0.908813 0.327309
O66   O     O_3   0.594847 0.843136 0.809864 -0.684366
H18   H     H_    0.589471 0.885637 0.823573 0.315876
O67   O     O_3   0.193177 0.580490 0.789849 -0.743169
H19   H     H_    0.148510 0.574600 0.796211 0.316707
O68   O     O_3   0.291538 0.187397 0.937809 -0.740884
H20   H     H_    0.256401 0.214285 0.944827 0.368295
O69   O     O_3   0.181949 0.419490 0.205990 -0.745560
H21   H     H_    0.137714 0.424545 0.197950 0.326031
O70   O     O_3   0.298692 0.803373 0.076960 -0.733290
H22   H     H_    0.263683 0.774154 0.074529 0.368488
O71   O     O_3   0.807775 0.705775 0.065702 -0.734766
H23   H     H_    0.778704 0.739852 0.061209 0.365452
O72   O     O_3   0.690458 0.164734 0.097585 -0.740456
H24   H     H_    0.688286 0.125292 0.076431 0.333108
O73   O     O_3   0.068231 0.694089 0.327356 -0.708876
H25   H     H_    0.041493 0.683658 0.363005 0.301509
O74   O     O_3   0.679183 0.697480 0.075751 -0.756622
H26   H     H_    0.635072 0.686552 0.072981 0.328824
O75   O     O_3   0.778374 0.466983 0.715505 -0.668508
H27   H     H_    0.779287 0.450735 0.673897 0.323231
O76   O     O_3   0.321691 0.573462 0.793617 -0.731398
H28   H     H_    0.295349 0.570626 0.757162 0.375939
O77   O     O_3   0.223764 0.439154 0.707112 -0.722573
H29   H     H_    0.255741 0.445156 0.738295 0.375055
O78   O     O_3   0.724028 0.343153 0.838055 -0.711869
H30   H     H_    0.758904 0.321570 0.820192 0.372960
O79   O     O_3   0.786037 0.428053 0.285796 -0.736383
H31   H     H_    0.756321 0.426740 0.251933 0.372199
O80   O     O_3   0.310753 0.429142 0.207187 -0.733154
H32   H     H_    0.282789 0.431664 0.242698 0.367350
O81   O     O_3   0.301818 0.673643 0.075668 -0.767346
H33   H     H_    0.311887 0.629822 0.071111 0.326226
O82   O     O_3   0.303605 0.905060 0.689519 -0.739050
H34   H     H_    0.311965 0.910065 0.645034 0.327345
O83   O     O_3   0.292794 0.316736 0.941923 -0.757617
H35   H     H_    0.302173 0.361040 0.946650 0.330800
O84   O     O_3   0.394955 0.187336 0.330433 -0.737090
H36   H     H_    0.412655 0.182939 0.371846 0.336742
O85   O     O_3   0.658604 0.267894 0.162664 -0.731413
H37   H     H_    0.679829 0.231314 0.179187 0.375909
O86   O     O_3   0.571076 0.203156 0.677910 -0.731471
H38   H     H_    0.568158 0.239017 0.704320 0.374109
O87   O     O_3   0.602345 0.722695 0.793209 -0.680439
H39   H     H_    0.640006 0.698943 0.799348 0.334064
O88   O     O_3   0.562629 0.795211 0.317244 -0.734816
H40   H     H_    0.557212 0.759815 0.290430 0.366868
O89   O     O_3   0.318339 0.900404 0.312060 -0.751774
H41   H     H_    0.362364 0.901356 0.322652 0.329546
O90   O     O_3   0.092547 0.322263 0.290649 -0.743457
H42   H     H_    0.085477 0.366328 0.297609 0.326952
O91   O     O_3   0.680679 0.059271 0.292719 -0.761462
H43   H     H_    0.636787 0.055798 0.303727 0.321617
O92   O     O_3   0.783534 0.675623 0.537531 -0.746440
H44   H     H_    0.754543 0.677116 0.502989 0.341109
O93   O     O_3   0.692652 0.941484 0.719655 -0.690760
H45   H     H_    0.648890 0.951483 0.714642 0.310101
O94   O     O_3   0.818323 0.270254 0.618461 -0.739794
H46   H     H_    0.805654 0.242057 0.652714 0.371864
O95   O     O_3   0.321218 0.193553 0.585402 -0.729075
H47   H     H_    0.294988 0.230055 0.584829 0.371852
O96   O     O_3   0.222018 0.707382 0.559472 -0.687041
H48   H     H_    0.221190 0.663292 0.550147 0.324197
C193  C     C_3   0.430091 0.871530 0.856297 -0.372199
C194  C     C_3   0.379024 0.844624 0.897621 -0.660750
H49   H     H_    0.357983 0.880984 0.924698 0.288935
H50   H     H_    0.343653 0.821148 0.870204 0.260952
H51   H     H_    0.397865 0.809196 0.929150 0.203872
H52   H     H_    0.446066 0.834379 0.826892 0.182956
H53   H     H_    0.469514 0.884299 0.884557 0.187954
C195  C     C_3   0.145381 0.876044 0.431070 -0.395816
C196  C     C_3   0.103387 0.854156 0.380281 -0.619591
H54   H     H_    0.077628 0.893025 0.359900 0.277456
H55   H     H_    0.129749 0.831723 0.344114 0.280063
H56   H     H_    0.071022 0.818893 0.399558 0.215044
H57   H     H_    0.173814 0.836930 0.446405 0.175046
H58   H     H_    0.117373 0.887221 0.471052 0.194624
C197  C     C_3   0.621958 0.916498 0.150107 -0.361504
C198  C     C_3   0.661287 0.972061 0.167605 -0.714045
H59   H     H_    0.635874 0.015513 0.164187 0.281377
H60   H     H_    0.677781 0.965468 0.215107 0.253544
H61   H     H_    0.701650 0.976341 0.136714 0.221553
H62   H     H_    0.651923 0.876210 0.157200 0.218246
H63   H     H_    0.612733 0.916518 0.100617 0.235110
C199  C     C_3   0.860065 0.893746 0.596346 -0.348115
C200  C     C_3   0.837765 0.830657 0.620705 -0.824676
H64   H     H_    0.828669 0.830777 0.670587 0.285067
H65   H     H_    0.795631 0.816551 0.596731 0.261616
H66   H     H_    0.873243 0.796226 0.612720 0.228635
H67   H     H_    0.871764 0.888647 0.547651 0.197166
H68   H     H_    0.902136 0.906726 0.621177 0.224897
C201  C     C_3   0.411431 0.112425 0.130252 -0.272374
C202  C     C_3   0.351752 0.083106 0.107225 -0.621855
H69   H     H_    0.347345 0.034042 0.121795 0.233448
H70   H     H_    0.311582 0.106893 0.125537 0.256971
H71   H     H_    0.349373 0.087308 0.056739 0.238038
H72   H     H_    0.407360 0.163113 0.124728 0.199745
H73   H     H_    0.452365 0.104890 0.103361 0.185404
C203  C     C_3   0.153474 0.071247 0.632233 -0.350498
C204  C     C_3   0.171384 0.011153 0.665059 -0.763126
H74   H     H_    0.165119 0.971237 0.635474 0.254562
H75   H     H_    0.219807 0.013790 0.679454 0.252511
H76   H     H_    0.142421 0.003430 0.706487 0.225994
H77   H     H_    0.161031 0.107948 0.665757 0.210804
H78   H     H_    0.103876 0.071677 0.624054 0.224974
C205  C     C_3   0.626882 0.084024 0.844339 -0.411220
C206  C     C_3   0.665894 0.031366 0.823379 -0.701177
H79   H     H_    0.640174 0.987084 0.826503 0.264713
H80   H     H_    0.681519 0.041129 0.775810 0.261491
H81   H     H_    0.706823 0.027480 0.852884 0.235139
H82   H     H_    0.656421 0.126004 0.839389 0.224314
H83   H     H_    0.617721 0.078230 0.893334 0.234930
C207  C     C_3   0.856434 0.105587 0.400019 -0.353934
C208  C     C_3   0.906944 0.107357 0.351176 -0.610890
H84   H     H_    0.928638 0.062030 0.347567 0.269148
H85   H     H_    0.888754 0.122115 0.306015 0.255898
H86   H     H_    0.942173 0.142290 0.362750 0.215211
H87   H     H_    0.830667 0.148503 0.393787 0.166986
H88   H     H_    0.876962 0.108431 0.446023 0.190811
C209  C     C_3   0.124033 0.146178 0.414671 -0.367749
C210  C     C_3   0.135909 0.099498 0.365412 -0.603146
H89   H     H_    0.160420 0.121342 0.325705 0.265413
H90   H     H_    0.166667 0.063625 0.383655 0.210838
H91   H     H_    0.092444 0.077763 0.350454 0.270463
H92   H     H_    0.167105 0.172915 0.421174 0.185891
H93   H     H_    0.115650 0.121521 0.458838 0.174471
C211  C     C_3   0.104612 0.604178 0.130568 -0.319644
C212  C     C_3   0.078534 0.657405 0.090649 -0.668041
H94   H     H_    0.036053 0.675659 0.110575 0.249354
H95   H     H_    0.112551 0.695687 0.085839 0.217169
H96   H     H_    0.066768 0.643741 0.044213 0.260445
H97   H     H_    0.154020 0.613720 0.138086 0.167671
H98   H     H_    0.105503 0.559939 0.107951 0.201223
C213  C     C_3   0.073932 0.847174 0.631148 -0.326021
C214  C     C_3   0.014247 0.824228 0.661334 -0.781947
H99   H     H_    0.976194 0.822642 0.628549 0.263446
H100  H     H_    0.020599 0.777521 0.681618 0.241297
H101  H     H_    0.001613 0.855208 0.698461 0.227637
H102  H     H_    0.108009 0.842138 0.668327 0.214211
H103  H     H_    0.075018 0.897095 0.621142 0.229594
C215  C     C_3   0.084302 0.375339 0.854065 -0.332400
C216  C     C_3   0.028986 0.340391 0.828713 -0.783984
H104  H     H_    0.986260 0.366247 0.833764 0.268116
H105  H     H_    0.036322 0.331603 0.779525 0.243094
H106  H     H_    0.023148 0.295600 0.853810 0.231672
H107  H     H_    0.123211 0.343529 0.849876 0.216018
H108  H     H_    0.080083 0.381188 0.903830 0.234643
C217  C     C_3   0.884001 0.847544 0.419750 -0.331800
C218  C     C_3   0.921061 0.833228 0.362819 -0.733032
H109  H     H_    0.900455 0.792966 0.340226 0.248775
H110  H     H_    0.920901 0.873287 0.330228 0.241025
H111  H     H_    0.968912 0.822707 0.374423 0.257264
H112  H     H_    0.836648 0.855368 0.403984 0.248338
H113  H     H_    0.896984 0.891441 0.438750 0.206700
C219  C     C_3   0.933952 0.361346 0.163216 -0.365654
C220  C     C_3   0.988050 0.333109 0.196859 -0.774255
H114  H     H_    0.030469 0.360494 0.187134 0.265309
H115  H     H_    0.978740 0.330927 0.246813 0.258510
H116  H     H_    0.995031 0.285760 0.181310 0.237334
H117  H     H_    0.894173 0.329503 0.171428 0.215563
H118  H     H_    0.942945 0.360428 0.113643 0.221926
C221  C     C_3   0.019489 0.170590 0.644841 -0.345116
C222  C     C_3   0.038307 0.214604 0.694685 -0.844576
H119  H     H_    0.052353 0.259920 0.673949 0.247606
H120  H     H_    0.000239 0.221056 0.727402 0.272881
H121  H     H_    0.077610 0.195555 0.720372 0.249232
H122  H     H_    0.005713 0.125207 0.665397 0.196591
H123  H     H_    0.060660 0.163719 0.616804 0.197943
C223  C     C_3   0.907354 0.602769 0.837075 -0.364818
C224  C     C_3   0.873293 0.657905 0.809767 -0.814845
H124  H     H_    0.883405 0.664376 0.760342 0.256608
H125  H     H_    0.823226 0.652919 0.816430 0.273558
H126  H     H_    0.888252 0.700112 0.833017 0.242041
H127  H     H_    0.891780 0.593798 0.884896 0.226028
H128  H     H_    0.956064 0.617737 0.836822 0.235909
C225  C     C_3   0.854023 0.584793 0.115788 -0.344016
C226  C     C_3   0.901513 0.636264 0.123674 -0.643664
H129  H     H_    0.923788 0.649275 0.079331 0.268926
H130  H     H_    0.880431 0.676960 0.143642 0.263141
H131  H     H_    0.936674 0.620730 0.156711 0.217858
H132  H     H_    0.826890 0.579985 0.158787 0.179889
H133  H     H_    0.877956 0.540858 0.112155 0.184854
C227  C     C_3   0.422283 0.848310 0.120684 -0.367254
C228  C     C_3   0.371598 0.893057 0.135177 -0.627775
H134  H     H_    0.332728 0.868809 0.158752 0.275499
H135  H     H_    0.389067 0.927511 0.167314 0.217084
H136  H     H_    0.355571 0.916930 0.092849 0.267585
H137  H     H_    0.430094 0.819245 0.162389 0.189451
H138  H     H_    0.465342 0.874646 0.112699 0.182305
C229  C     C_3   0.146496 0.376564 0.085738 -0.348663
C230  C     C_3   0.166959 0.340216 0.030641 -0.733645
H139  H     H_    0.167805 0.368415 0.987637 0.262066
H140  H     H_    0.213429 0.322351 0.038731 0.257687
H141  H     H_    0.135178 0.300600 0.024703 0.223557
H142  H     H_    0.150549 0.343875 0.125551 0.223613
H143  H     H_    0.097180 0.386024 0.085113 0.234641
C231  C     C_3   0.647603 0.167512 0.968930 -0.388337
C232  C     C_3   0.703859 0.207016 0.952078 -0.781610
H144  H     H_    0.691029 0.255801 0.945878 0.249481
H145  H     H_    0.739278 0.202354 0.987880 0.272275
H146  H     H_    0.723677 0.191650 0.908482 0.257604
H147  H     H_    0.661744 0.119460 0.977773 0.206389
H148  H     H_    0.617333 0.169740 0.928981 0.203137
C233  C     C_3   0.149857 0.621530 0.908883 -0.369740
C234  C     C_3   0.171240 0.661882 0.960916 -0.759081
H149  H     H_    0.174047 0.635428 0.004826 0.278350
H150  H     H_    0.217171 0.681916 0.950064 0.248072
H151  H     H_    0.138973 0.700032 0.966315 0.225886
H152  H     H_    0.151537 0.652428 0.867454 0.214501
H153  H     H_    0.101135 0.608505 0.912157 0.237821
C235  C     C_3   0.639856 0.852732 0.936770 -0.336554
C236  C     C_3   0.665771 0.826862 0.996714 -0.758767
H154  H     H_    0.632782 0.830135 0.035023 0.261028
H155  H     H_    0.677397 0.778114 0.990921 0.274651
H156  H     H_    0.708099 0.852712 0.008309 0.227244
H157  H     H_    0.675691 0.845365 0.901551 0.214573
H158  H     H_    0.636379 0.903315 0.937443 0.233178
C237  C     C_3   0.830508 0.345096 0.024365 -0.393944
C238  C     C_3   0.775188 0.321124 0.061252 -0.758795
H159  H     H_    0.752891 0.359286 0.084248 0.276543
H160  H     H_    0.741180 0.299655 0.031079 0.239533
H161  H     H_    0.789716 0.286751 0.096474 0.271012
H162  H     H_    0.855142 0.305006 0.007227 0.211644
H163  H     H_    0.861753 0.367913 0.055640 0.215413
C239  C     C_3   0.411167 0.148570 0.884331 -0.367400
C240  C     C_3   0.361796 0.098675 0.877413 -0.618520
H164  H     H_    0.319321 0.118399 0.858467 0.258512
H165  H     H_    0.377354 0.065098 0.843870 0.211768
H166  H     H_    0.351897 0.074500 0.921859 0.271790
H167  H     H_    0.411927 0.177513 0.841643 0.179783
H168  H     H_    0.456442 0.126813 0.886033 0.177370
C241  C     C_3   0.883920 0.407510 0.364642 -0.309198
C242  C     C_3   0.836249 0.440049 0.403994 -0.613456
H169  H     H_    0.830460 0.488616 0.388476 0.251887
H170  H     H_    0.791188 0.415985 0.401850 0.236683
H171  H     H_    0.849809 0.440294 0.452477 0.222220
H172  H     H_    0.866121 0.360469 0.355907 0.179477
H173  H     H_    0.927428 0.398662 0.388210 0.172560
C243  C     C_3   0.633756 0.391754 0.907101 -0.293683
C244  C     C_3   0.613363 0.426344 0.848752 -0.605822
H174  H     H_    0.634128 0.473165 0.845419 0.251637
H175  H     H_    0.627532 0.401543 0.807675 0.265996
H176  H     H_    0.562955 0.429984 0.847971 0.218681
H177  H     H_    0.628053 0.341728 0.899640 0.204564
H178  H     H_    0.605320 0.396690 0.947367 0.176439
C245  C     C_3   0.120641 0.409240 0.636979 -0.298932
C246  C     C_3   0.165502 0.441115 0.591059 -0.616881
H179  H     H_    0.168780 0.491374 0.597744 0.249195
H180  H     H_    0.211821 0.421725 0.595832 0.245591
H181  H     H_    0.151072 0.434008 0.543601 0.229741
H182  H     H_    0.138672 0.363108 0.649137 0.190102
H183  H     H_    0.075916 0.398410 0.616221 0.182190
C247  C     C_3   0.347401 0.382310 0.082749 -0.359407
C248  C     C_3   0.392930 0.363581 0.132140 -0.662205
H184  H     H_    0.419832 0.404120 0.146858 0.271910
H185  H     H_    0.369063 0.341237 0.172023 0.274862
H186  H     H_    0.424190 0.329106 0.113702 0.207817
H187  H     H_    0.315848 0.342669 0.075939 0.191245
H188  H     H_    0.372484 0.389294 0.039084 0.186451
C249  C     C_3   0.887760 0.402901 0.672473 -0.359266
C250  C     C_3   0.872559 0.352835 0.721238 -0.707219
H189  H     H_    0.894228 0.363304 0.765588 0.243264
H190  H     H_    0.822373 0.348476 0.728010 0.277240
H191  H     H_    0.890432 0.308274 0.707623 0.266093
H192  H     H_    0.854526 0.401835 0.634474 0.208502
H193  H     H_    0.932346 0.391370 0.651866 0.190283
C251  C     C_3   0.653466 0.573780 0.128911 -0.337427
C252  C     C_3   0.675959 0.515933 0.162599 -0.768105
H194  H     H_    0.669359 0.474797 0.134912 0.270334
H195  H     H_    0.725294 0.521218 0.173168 0.259979
H196  H     H_    0.650280 0.508718 0.206190 0.227869
H197  H     H_    0.662329 0.611834 0.160634 0.217247
H198  H     H_    0.603148 0.573017 0.124321 0.230390
C253  C     C_3   0.136024 0.568871 0.338534 -0.370841
C254  C     C_3   0.163562 0.511837 0.311305 -0.774198
H199  H     H_    0.134523 0.470499 0.321434 0.259692
H200  H     H_    0.168679 0.519219 0.261158 0.268384
H201  H     H_    0.209494 0.503982 0.331008 0.234182
H202  H     H_    0.168326 0.607142 0.326068 0.202202
H203  H     H_    0.137003 0.564017 0.388865 0.230821
C255  C     C_3   0.354697 0.620831 0.919161 -0.375056
C256  C     C_3   0.400566 0.642025 0.869486 -0.656222
H204  H     H_    0.426968 0.602702 0.853158 0.280730
H205  H     H_    0.376837 0.664877 0.830584 0.260762
H206  H     H_    0.432614 0.676638 0.888027 0.212605
H207  H     H_    0.324231 0.659790 0.927950 0.182171
H208  H     H_    0.379555 0.612573 0.962298 0.191429
C257  C     C_3   0.604363 0.638142 0.897575 -0.306192
C258  C     C_3   0.581223 0.598922 0.844353 -0.685044
H209  H     H_    0.547060 0.623170 0.815673 0.252710
H210  H     H_    0.620187 0.586638 0.814707 0.225360
H211  H     H_    0.558494 0.555843 0.860151 0.264698
H212  H     H_    0.653858 0.648286 0.890057 0.160599
H213  H     H_    0.604788 0.612971 0.941970 0.201204
C259  C     C_3   0.621063 0.079477 0.643655 -0.379001
C260  C     C_3   0.638975 0.131079 0.597949 -0.646077
H214  H     H_    0.598576 0.147362 0.572100 0.280324
H215  H     H_    0.661465 0.169797 0.621322 0.263122
H216  H     H_    0.672930 0.113413 0.565726 0.215428
H217  H     H_    0.661293 0.070198 0.672886 0.177936
H218  H     H_    0.612224 0.037293 0.618632 0.185949
C261  C     C_3   0.603698 0.362364 0.100389 -0.276375
C262  C     C_3   0.566500 0.377732 0.157159 -0.673261
H219  H     H_    0.519885 0.357386 0.155593 0.237524
H220  H     H_    0.588911 0.359094 0.198968 0.253194
H221  H     H_    0.563450 0.428230 0.160722 0.229406
H222  H     H_    0.652566 0.368608 0.112245 0.205677
H223  H     H_    0.600899 0.394104 0.061345 0.180831
C263  C     C_3   0.619077 0.919274 0.350534 -0.379874
C264  C     C_3   0.639496 0.867196 0.393319 -0.655689
H224  H     H_    0.601419 0.851119 0.423872 0.273873
H225  H     H_    0.657295 0.828536 0.367167 0.277105
H226  H     H_    0.678021 0.884495 0.420984 0.214991
H227  H     H_    0.657696 0.930773 0.318882 0.192242
H228  H     H_    0.612527 0.960297 0.377941 0.190308
C265  C     C_3   0.410507 0.352751 0.881638 -0.334971
C266  C     C_3   0.462645 0.331484 0.840788 -0.752119
H229  H     H_    0.507173 0.332560 0.864581 0.271459
H230  H     H_    0.453253 0.283854 0.826502 0.247645
H231  H     H_    0.466202 0.361866 0.799214 0.233039
H232  H     H_    0.368460 0.348386 0.853572 0.226013
H233  H     H_    0.413806 0.402394 0.889487 0.244163
C267  C     C_3   0.426948 0.864273 0.654231 -0.368020
C268  C     C_3   0.485669 0.832078 0.673443 -0.698420
H234  H     H_    0.525704 0.863668 0.669989 0.257112
H235  H     H_    0.481478 0.814392 0.721429 0.254204
H236  H     H_    0.493659 0.792832 0.643501 0.230358
H237  H     H_    0.389737 0.829251 0.661555 0.226295
H238  H     H_    0.425645 0.874363 0.604502 0.231465
C269  C     C_3   0.423616 0.646463 0.129226 -0.338602
C270  C     C_3   0.481178 0.667595 0.162722 -0.750261
H239  H     H_    0.522953 0.663639 0.134362 0.262753
H240  H     H_    0.476445 0.716081 0.175527 0.262885
H241  H     H_    0.486759 0.639068 0.205156 0.226669
H242  H     H_    0.385159 0.653315 0.161697 0.206694
H243  H     H_    0.422863 0.596280 0.123211 0.239390
C271  C     C_3   0.524513 0.149721 0.333876 -0.357068
C272  C     C_3   0.543747 0.202847 0.290231 -0.797452
H244  H     H_    0.555256 0.185373 0.244510 0.259221
H245  H     H_    0.506589 0.236593 0.285420 0.272584
H246  H     H_    0.584718 0.226658 0.308462 0.246528
H247  H     H_    0.513425 0.167431 0.379526 0.205719
H248  H     H_    0.563985 0.119627 0.338793 0.194319
C273  C     C_3   0.353404 0.062670 0.627610 -0.389981
C274  C     C_3   0.392593 0.112622 0.656707 -0.661867
H249  H     H_    0.421980 0.136897 0.621854 0.294302
H250  H     H_    0.363366 0.145805 0.680081 0.257748
H251  H     H_    0.421939 0.091661 0.692380 0.203129
H252  H     H_    0.322668 0.042744 0.663803 0.184788
H253  H     H_    0.382929 0.024979 0.614192 0.189512
C275  C     C_3   0.856243 0.319357 0.503578 -0.287113
C276  C     C_3   0.806915 0.275494 0.480547 -0.844464
H254  H     H_    0.828232 0.233364 0.463760 0.236523
H255  H     H_    0.773057 0.262753 0.516788 0.299630
H256  H     H_    0.781993 0.298034 0.442187 0.238066
H257  H     H_    0.834963 0.358581 0.526204 0.216038
H258  H     H_    0.880718 0.335356 0.462075 0.208115
C277  C     C_3   0.640246 0.894971 0.607754 -0.362835
C278  C     C_3   0.655501 0.843376 0.565041 -0.733604
H259  H     H_    0.672710 0.861551 0.520514 0.258939
H260  H     H_    0.690843 0.813809 0.585974 0.241225
H261  H     H_    0.613962 0.814663 0.557483 0.232561
H262  H     H_    0.634250 0.872141 0.653534 0.233787
H263  H     H_    0.596064 0.914056 0.598479 0.237918
C279  C     C_3   0.143069 0.666569 0.461142 -0.352803
C280  C     C_3   0.188748 0.703770 0.420566 -0.816489
H264  H     H_    0.164532 0.739547 0.393760 0.281520
H265  H     H_    0.225528 0.726000 0.446987 0.266969
H266  H     H_    0.211487 0.673307 0.388400 0.236857
H267  H     H_    0.164428 0.623530 0.478017 0.193381
H268  H     H_    0.105224 0.653872 0.431243 0.232305
C281  C     C_3   0.662140 0.124086 0.410225 -0.347963
C282  C     C_3   0.703687 0.168087 0.444606 -0.851391
H269  H     H_    0.727588 0.145393 0.483305 0.259559
H270  H     H_    0.738282 0.188530 0.412544 0.246724
H271  H     H_    0.676290 0.206053 0.462405 0.248758
H272  H     H_    0.656523 0.146716 0.364486 0.217939
H273  H     H_    0.615996 0.123748 0.429954 0.230925
C283  C     C_3   0.129297 0.357247 0.414228 -0.362786
C284  C     C_3   0.165509 0.331643 0.468717 -0.756694
H274  H     H_    0.137386 0.329248 0.511064 0.270321
H275  H     H_    0.181308 0.284769 0.459179 0.254285
H276  H     H_    0.206231 0.361468 0.476392 0.226769
H277  H     H_    0.162043 0.358821 0.375112 0.226866
H278  H     H_    0.117837 0.405758 0.419315 0.236600
C285  C     C_3   0.343330 0.860355 0.440510 -0.374680
C286  C     C_3   0.322929 0.834598 0.503458 -0.716531
H279  H     H_    0.333283 0.867195 0.539939 0.247245
H280  H     H_    0.273005 0.824678 0.503500 0.264384
H281  H     H_    0.347008 0.791220 0.514052 0.243417
H282  H     H_    0.332303 0.823555 0.407986 0.208794
H283  H     H_    0.393670 0.865738 0.437474 0.237131
C287  C     C_3   0.890638 0.645608 0.599633 -0.278601
C288  C     C_3   0.946289 0.649905 0.641390 -0.874317
H284  H     H_    0.988107 0.632438 0.620116 0.255594
H285  H     H_    0.953928 0.698003 0.654757 0.249739
H286  H     H_    0.937845 0.620924 0.683174 0.245118
H287  H     H_    0.851106 0.657485 0.628858 0.226546
H288  H     H_    0.881732 0.597620 0.586664 0.247906

loop_
_geom_bond_atom_site_label_1
_geom_bond_atom_site_label_2
_ccdc_geom_bond_type
Cu2   Cu4   S    
C256  H204  S    
C196  H54   S    
C250  H191  S    
C252  H194  S    
C71   C122  A    
C33   C166  A    
C11   C181  S    
C262  H221  S    
C27   C197  S    
C216  H104  S    
Cu6   O12   S    
C120  O92   S    
C117  O91   S    
C118  O90   S    
C89   O71   S    
C21   O43   A    
C228  H134  S    
C130  C174  A    
C251  H198  S    
C53   C249  S    
C56   C255  S    
C135  C173  A    
C214  H99   S    
C241  H173  S    
C270  H240  S    
C280  H266  S    
C226  H130  S    
C64   C112  A    
C231  H147  S    
C208  H85   S    
C107  O85   S    
Cu8   O33   S    
Cu11  O34   S    
C268  H235  S    
C60   C263  S    
C43   C229  S    
C42   C159  A    
C259  C260  S    
C122  C170  A    
C268  H234  S    
C243  H177  S    
C39   C87   A    
C91   C100  A    
C29   C160  A    
C37   C217  S    
C193  H53   S    
C14   O28   A    
C44   C92   A    
C10   O20   A    
C253  H203  S    
Cu4   O6    S    
C74   O54   S    
C47   C146  A    
C212  H95   S    
C267  H237  S    
C235  H158  S    
C129  C173  A    
Cu6   O14   S    
C40   C223  S    
C27   C75   A    
C230  H140  S    
C270  H239  S    
C136  C149  A    
C37   C168  A    
C123  C156  A    
C18   C170  S    
C139  C148  A    
C283  H278  S    
C15   C173  S    
O84   H36   S    
C286  H281  S    
C207  H88   S    
C110  O82   S    
C81   O63   S    
C248  H184  S    
C206  H80   S    
Cu4   O11   S    
C220  H116  S    
O89   H41   S    
C264  H224  S    
C26   C195  S    
C265  H233  S    
C68   C131  A    
C233  H152  S    
C217  C218  S    
C258  H209  S    
C277  H263  S    
C32   C80   A    
C61   C144  A    
C266  H230  S    
O74   H26   S    
C124  C172  A    
C239  H168  S    
C5    O9    A    
C79   O49   S    
C275  H258  S    
O95   H47   S    
C17   O33   A    
C229  H143  S    
C284  H276  S    
C94   O66   S    
C68   C116  A    
C56   C141  A    
C17   O35   A    
C63   C269  S    
Cu1   O18   S    
C20   C172  S    
C196  H56   S    
C276  H254  S    
C252  H196  S    
C210  H90   S    
C78   C113  A    
C2    O4    A    
C234  H149  S    
C277  C278  S    
C24   C176  S    
C271  H248  S    
C162  C190  A    
C100  O80   S    
C238  H159  S    
C266  H231  S    
C282  H269  S    
C228  H136  S    
C27   C156  A    
C13   C175  S    
C46   C153  A    
C80   C117  A    
C122  C167  A    
C134  C174  A    
C65   C113  A    
C214  H101  S    
C67   C277  S    
C2    C190  S    
C83   O61   S    
C29   C201  S    
C280  H264  S    
C242  H169  S    
C96   C109  A    
C105  O87   S    
C249  H192  S    
C168  C192  A    
C71   C119  A    
C222  H119  S    
C40   C88   A    
Cu6   O19   S    
Cu7   O25   S    
C231  C232  S    
C201  H72   S    
C155  C187  A    
C209  C210  S    
C22   O44   A    
C72   C133  A    
Cu3   O20   S    
C227  H138  S    
C59   C140  A    
C140  C180  A    
C272  H246  S    
C63   C111  A    
C194  H49   S    
C213  H103  S    
C30   C203  S    
C14   O26   A    
C139  C179  A    
C279  C280  S    
C19   O37   A    
Cu2   O8    S    
O90   H42   S    
O71   H23   S    
C232  H146  S    
C246  H179  S    
C31   C205  S    
C263  C264  S    
C256  H206  S    
C223  H127  S    
C224  H125  S    
C49   C241  S    
C219  H117  S    
O91   H43   S    
C200  H66   S    
C236  H155  S    
C265  C266  S    
C270  H241  S    
Cu5   O10   S    
O58   H10   S    
C204  H75   S    
C156  C188  A    
C41   C89   A    
C136  C176  A    
C287  H288  S    
C193  C194  S    
C119  O89   S    
C62   C267  S    
C260  H216  S    
C69   C281  S    
C197  H62   S    
C213  C214  S    
C45   C93   A    
Cu2   O9    S    
C199  C200  S    
C266  H229  S    
C125  C160  A    
C73   C110  A    
C288  H285  S    
C215  H108  S    
C225  C226  S    
Cu3   O7    S    
C154  C186  A    
C195  H57   S    
C28   C199  S    
C57   C142  A    
C6    C182  S    
C78   O50   S    
C131  C164  A    
C211  C212  S    
C262  H220  S    
C86   O58   S    
Cu5   O17   S    
Cu7   O29   S    
O53   H5    S    
C101  O75   S    
C48   C239  S    
C208  H84   S    
C5    O11   A    
C145  C181  A    
C52   C139  A    
C198  H59   S    
O51   H3    S    
C86   C97   A    
C257  H213  S    
C274  H249  S    
C197  H63   S    
C271  C272  S    
C257  H212  S    
C254  H201  S    
C144  C180  A    
C69   C128  A    
C23   C169  S    
C275  H257  S    
C276  H256  S    
C23   O47   A    
C223  C224  S    
C2    O2    A    
Cu5   O16   S    
C261  H222  S    
C19   C177  S    
C232  H145  S    
C238  H161  S    
C51   C245  S    
O52   H4    S    
C124  C163  A    
C17   C179  S    
C102  O74   S    
C240  H166  S    
C211  H98   S    
C285  C286  S    
C77   O51   S    
O61   H13   S    
C248  H186  S    
C260  H214  S    
C90   C111  A    
C125  C171  A    
C3    C185  S    
C127  C154  A    
C18   O36   A    
C111  O81   S    
Cu2   O13   S    
C255  H207  S    
C1    C187  S    
C3    O7    A    
C167  C189  A    
C84   O64   S    
C26   C167  A    
C50   C98   A    
C104  O76   S    
Cu1   O1    S    
C92   O72   S    
C52   C247  S    
C222  H121  S    
C5    C191  S    
C133  C168  A    
C22   O42   A    
C10   O18   A    
C261  H223  S    
Cu11  O40   S    
C259  H217  S    
C49   C97   A    
C52   C100  A    
C59   C107  A    
O82   H34   S    
C79   C106  A    
C42   C90   A    
C274  H251  S    
C286  H280  S    
Cu4   O4    S    
C60   C123  A    
C273  H252  S    
C25   C193  S    
O69   H21   S    
C126  C170  A    
C12   O22   A    
C232  H144  S    
C46   C94   A    
C246  H181  S    
C58   C127  A    
C197  C198  S    
C55   C130  A    
C267  C268  S    
C72   C120  A    
O67   H19   S    
C80   O52   S    
C281  H273  S    
C39   C162  A    
C133  C175  A    
C14   C178  S    
C229  C230  S    
C237  H163  S    
C278  H260  S    
C64   C125  A    
C121  C158  A    
C128  C165  A    
C137  C150  A    
C240  H164  S    
C269  C270  S    
C268  H236  S    
C149  C183  A    
C255  C256  S    
C258  H211  S    
C132  C147  A    
C72   C287  S    
C221  H123  S    
Cu12  O38   S    
C237  C238  S    
C46   C235  S    
C90   O70   S    
C127  C169  A    
C198  H61   S    
C65   C126  A    
C159  C185  A    
C214  H100  S    
C202  H69   S    
C241  H172  S    
C203  H77   S    
C280  H265  S    
C226  H131  S    
C142  C178  A    
C70   C118  A    
C231  H148  S    
C271  H247  S    
C10   C186  S    
C85   O59   S    
C25   C73   A    
C143  C177  A    
Cu5   Cu6   S    
Cu12  O43   S    
Cu7   O48   S    
Cu9   O27   S    
C6    O12   A    
C227  C228  S    
C11   O23   A    
C264  H226  S    
C244  H176  S    
C243  H178  S    
O64   H16   S    
C163  C191  A    
C34   C82   A    
C220  H115  S    
C144  C157  A    
O57   H9    S    
C114  O94   S    
C35   C213  S    
C18   O34   A    
C141  C152  A    
C3    O5    A    
C143  C146  A    
C94   C105  A    
C212  H94   S    
C267  H238  S    
C4    C192  S    
C57   C105  A    
O60   H12   S    
Cu12  O36   S    
C28   C163  A    
C31   C154  A    
C75   O53   S    
C218  H109  S    
C58   C106  A    
O54   H6    S    
C150  C182  A    
C237  H162  S    
C20   O38   A    
C135  C162  A    
C247  C248  S    
Cu8   O26   S    
C88   O60   S    
C279  H267  S    
C241  C242  S    
C12   O24   A    
C54   C137  A    
C215  C216  S    
C225  H133  S    
C200  H64   S    
C76   C115  A    
C219  C220  S    
C250  H189  S    
C132  C176  A    
C265  H232  S    
C221  H122  S    
C258  H210  S    
C43   C148  A    
Cu7   O42   S    
C229  H142  S    
Cu11  O45   S    
Cu12  O47   S    
C209  H93   S    
C272  H244  S    
C53   C101  A    
O62   H14   S    
C284  H275  S    
C126  C161  A    
C36   C215  S    
C199  H67   S    
C60   C108  A    
C254  H200  S    
C75   C108  A    
C196  H55   S    
C33   C209  S    
C32   C165  A    
C203  C204  S    
C252  H195  S    
C234  H150  S    
C242  H171  S    
C31   C79   A    
C158  C186  A    
C230  H139  S    
C61   C265  S    
C151  C181  A    
C282  H270  S    
C228  H135  S    
C41   C225  S    
C251  H197  S    
C146  C182  A    
C221  C222  S    
C157  C187  A    
C24   O48   A    
C70   C283  S    
C56   C104  A    
C164  C192  A    
C288  H284  S    
C35   C83   A    
C226  H129  S    
C242  H170  S    
Cu4   O15   S    
C194  H51   S    
C95   O65   S    
C81   C118  A    
O76   H28   S    
C234  H151  S    
C222  H120  S    
C261  C262  S    
O65   H17   S    
C9    C183  S    
C77   C112  A    
C282  H271  S    
C216  H105  S    
C36   C147  A    
C64   C271  S    
O92   H44   S    
C6    O10   A    
C16   O30   A    
O56   H8    S    
C47   C237  S    
C272  H245  S    
C194  H50   S    
C73   O55   S    
C129  C166  A    
C113  O95   S    
C264  H225  S    
C38   C86   A    
C212  H96   S    
C256  H205  S    
C223  H128  S    
C235  H157  S    
C66   C275  S    
C202  H70   S    
C28   C76   A    
C59   C261  S    
O70   H22   S    
Cu6   O23   S    
Cu10  O28   S    
C204  H74   S    
C224  H124  S    
C20   O40   A    
C134  C145  A    
C283  H277  S    
C66   C114  A    
C141  C179  A    
C84   C99   A    
C207  H87   S    
C54   C102  A    
O73   H25   S    
C206  H79   S    
C51   C132  A    
C41   C150  A    
C71   C285  S    
C48   C157  A    
C195  H58   S    
C35   C164  A    
O83   H35   S    
C93   O67   S    
C269  H243  S    
C45   C152  A    
C202  H71   S    
C245  H182  S    
C233  H153  S    
O86   H38   S    
C23   O45   A    
O88   H40   S    
C21   C171  S    
O94   H46   S    
O79   H31   S    
O49   H1    S    
C239  H167  S    
Cu10  O39   S    
C131  C175  A    
C165  C191  A    
C198  H60   S    
C40   C149  A    
C253  H202  S    
C70   C129  A    
O85   H37   S    
C274  H250  S    
C8    O14   A    
C140  C155  A    
C13   O25   A    
C66   C135  A    
C9    O17   A    
C205  H83   S    
Cu3   O3    S    
C115  O93   S    
O75   H27   S    
C15   O31   A    
C130  C151  A    
Cu7   Cu9   S    
C65   C273  S    
C210  H89   S    
C7    C189  S    
C279  H268  S    
C30   C161  A    
C273  C274  S    
Cu8   O37   S    
C230  H141  S    
C123  C171  A    
C217  H112  S    
Cu5   O21   S    
C208  H86   S    
C121  C169  A    
C49   C134  A    
C240  H165  S    
C89   C102  A    
C248  H185  S    
C39   C221  S    
O87   H39   S    
C68   C279  S    
C82   O62   S    
C96   O68   S    
O72   H24   S    
C61   C109  A    
C67   C124  A    
C88   C101  A    
C95   C98   A    
C4    O6    A    
C205  C206  S    
C255  H208  S    
O77   H29   S    
C74   C119  A    
C249  H193  S    
C37   C85   A    
O93   H45   S    
C201  H73   S    
C209  H92   S    
Cu9   O31   S    
Cu10  O30   S    
C227  H137  S    
C16   O32   A    
C259  H218  S    
C12   C188  S    
C55   C103  A    
C42   C227  S    
C25   C158  A    
C245  C246  S    
C236  H154  S    
C260  H215  S    
C67   C115  A    
C235  C236  S    
C87   C114  A    
C138  C159  A    
O66   H18   S    
C278  H259  S    
Cu1   Cu3   S    
C210  H91   S    
Cu11  O41   S    
C224  H126  S    
C82   C103  A    
C269  H242  S    
C34   C211  S    
C152  C184  A    
C1    O1    A    
O55   H7    S    
C281  H272  S    
C11   O21   A    
C204  H76   S    
C7    O15   A    
C8    C184  S    
O68   H20   S    
C247  H187  S    
Cu9   O44   S    
C97   O79   S    
C55   C253  S    
O81   H33   S    
C53   C136  A    
C206  H81   S    
C1    O3    A    
C93   C104  A    
C22   C174  S    
C288  H286  S    
C215  H107  S    
C51   C99   A    
C205  H82   S    
Cu2   O2    S    
C216  H106  S    
C262  H219  S    
Cu8   Cu10  S    
C161  C189  A    
C277  H262  S    
Cu10  O35   S    
C106  O86   S    
C21   O41   A    
O78   H30   S    
C200  H65   S    
O63   H15   S    
C217  H113  S    
C44   C231  S    
C91   O69   S    
C43   C91   A    
C285  H283  S    
C54   C251  S    
C19   O39   A    
C166  C190  A    
C7    O13   A    
C85   C120  A    
C24   O46   A    
C38   C145  A    
C109  O83   S    
C239  C240  S    
C8    O16   A    
C203  H78   S    
C13   O27   A    
C9    O19   A    
C92   C107  A    
Cu1   O5    S    
C253  C254  S    
C62   C110  A    
C103  O73   S    
C148  C184  A    
C15   O29   A    
C249  C250  S    
C29   C77   A    
C283  C284  S    
C201  C202  S    
C219  H118  S    
C58   C259  S    
C251  C252  S    
C45   C233  S    
C211  H97   S    
C128  C172  A    
C244  H175  S    
C287  C288  S    
C63   C138  A    
C99   O77   S    
C160  C188  A    
O50   H2    S    
C138  C178  A    
C98   O78   S    
C38   C219  S    
C50   C143  A    
C233  C234  S    
C147  C183  A    
C254  H199  S    
C32   C207  S    
Cu3   O22   S    
C247  H188  S    
C207  C208  S    
C44   C155  A    
C83   C116  A    
C48   C96   A    
Cu8   O32   S    
Cu1   O24   S    
C246  H180  S    
C263  H227  S    
C218  H110  S    
C34   C151  A    
C112  O84   S    
C57   C257  S    
C276  H255  S    
C4    O8    A    
C236  H156  S    
C286  H279  S    
C213  H102  S    
C273  H253  S    
O80   H32   S    
O96   H48   S    
C87   O57   S    
C220  H114  S    
C153  C185  A    
C225  H132  S    
C36   C84   A    
C278  H261  S    
C263  H228  S    
C193  H52   S    
C69   C117  A    
C195  C196  S    
C26   C74   A    
C108  O88   S    
C250  H190  S    
C142  C153  A    
C257  C258  S    
C245  H183  S    
C50   C243  S    
C218  H111  S    
C30   C78   A    
C16   C180  S    
C287  H287  S    
C137  C177  A    
C243  C244  S    
C238  H160  S    
Cu9   O46   S    
C76   O56   S    
C47   C95   A    
C285  H282  S    
Cu11  Cu12  S    
C284  H274  S    
C244  H174  S    
C33   C81   A    
C62   C121  A    
C199  H68   S    
C281  C282  S    
C275  C276  S    
C116  O96   S    
O59   H11   S    
