data_mof_unit_36065.cif
_audit_creation_date              2012-12-10T17:22:51-0500
_audit_creation_method            fapswitch 2.2
_symmetry_space_group_name_H-M    P1
_symmetry_Int_Tables_number       1
_space_group_crystal_system       triclinic
_cell_length_a                    10.144927
_cell_length_b                    10.501298
_cell_length_c                    10.477983
_cell_angle_alpha                 89.804616
_cell_angle_beta                  95.118387
_cell_angle_gamma                 81.834367
_cell_volume                      1100.40125849

loop_
_atom_site_label
_atom_site_type_symbol
_atom_type_description
_atom_site_fract_x
_atom_site_fract_y
_atom_site_fract_z
_atom_type_partial_charge
C1    C     C_R   0.444198 0.507771 0.264930 0.890152
C2    C     C_3   0.497790 0.122607 0.500865 0.030700
C3    C     C_3   0.623308 0.943715 0.478241 -0.139033
C4    C     C_3   0.376658 0.056415 0.522247 -0.136077
C5    C     C_2   0.413737 0.501883 0.126695 -0.054415
C6    C     C_2   0.584959 0.460802 0.873700 -0.073363
C7    C     C_2   0.486765 0.405905 0.068145 -0.229128
C8    C     C_2   0.491487 0.406474 0.930066 -0.221327
C9    C     C_2   0.072462 0.489364 0.488990 -0.138719
C10   C     C_2   0.927427 0.511032 0.510660 -0.143747
C11   C     C_3   0.705946 0.499943 0.953251 -0.405317
C12   C     C_R   0.555912 0.487715 0.735584 0.888306
C13   C     C_3   0.808489 0.553247 0.876325 -0.346304
C14   C     C_3   0.921926 0.594854 0.964540 -0.921245
C15   C     C_3   0.319606 0.607594 0.051055 -0.420130
C16   C     C_3   0.262445 0.720210 0.132608 -0.335472
C17   C     C_3   0.190639 0.832795 0.049042 -0.917204
C18   C     C_R   0.499136 0.257444 0.500434 0.854286
C19   C     C_R   0.500866 0.742577 0.499688 0.850962
C20   C     C_3   0.531090 0.039139 0.385812 -0.178400
C21   C     C_3   0.468829 0.960953 0.614646 -0.181031
C22   C     C_3   0.410028 0.970255 0.407158 -0.183998
C23   C     C_3   0.589878 0.029916 0.593346 -0.180894
C24   C     C_3   0.502149 0.877471 0.499552 0.029272
H1    H     H_    0.336429 0.942218 0.331521 0.133179
H2    H     H_    0.107921 0.419210 0.419461 0.162624
H3    H     H_    0.879673 0.381739 0.383754 0.159834
H4    H     H_    0.120418 0.617886 0.616633 0.161277
H5    H     H_    0.882924 0.674475 0.026586 0.269178
H6    H     H_    0.973251 0.512677 0.025594 0.265515
H7    H     H_    0.995718 0.628891 0.905287 0.244634
H8    H     H_    0.852864 0.477459 0.812769 0.244235
H9    H     H_    0.759168 0.637809 0.817273 0.220344
H10   H     H_    0.669330 0.574058 0.022332 0.222593
H11   H     H_    0.757848 0.414286 0.009241 0.212412
H12   H     H_    0.662658 0.059154 0.669226 0.132965
H13   H     H_    0.261491 0.870458 0.988618 0.260028
H14   H     H_    0.107123 0.802447 0.986371 0.266670
H15   H     H_    0.149321 0.911367 0.111082 0.249160
H16   H     H_    0.190385 0.687760 0.195167 0.244952
H17   H     H_    0.344899 0.755027 0.193589 0.208037
H18   H     H_    0.375703 0.647119 0.977289 0.225071
H19   H     H_    0.235949 0.564437 0.000805 0.210663
H20   H     H_    0.555995 0.075890 0.292730 0.126328
H21   H     H_    0.443849 0.924205 0.707700 0.128050
H22   H     H_    0.723791 0.893722 0.460318 0.140789
H23   H     H_    0.276174 0.106398 0.540180 0.140112
H24   H     H_    0.405320 0.377671 0.874280 0.175397
H25   H     H_    0.556868 0.333746 0.123245 0.157113
H26   H     H_    0.891888 0.581518 0.579862 0.158634
N1    N     N_2   0.157310 0.552180 0.551120 -0.193530
N2    N     N_2   0.842690 0.447820 0.448880 -0.190724
O1    O     O_R   0.568940 0.489500 0.307530 -0.609957
O2    O     O_R   0.431060 0.510500 0.692470 -0.613245
O3    O     O_R   0.348880 0.522990 0.340350 -0.610121
O4    O     O_R   0.651120 0.477010 0.659650 -0.611356
O5    O     O_R   0.610000 0.297210 0.483560 -0.612938
O6    O     O_R   0.390000 0.702790 0.516440 -0.611257
O7    O     O_R   0.389940 0.330700 0.516390 -0.621094
O8    O     O_R   0.610060 0.669300 0.483610 -0.619123
Zn1   Zn    Zn3+2 0.646930 0.477640 0.478080 0.918191
Zn2   Zn    Zn3+2 0.353070 0.522360 0.521920 0.917490

loop_
_geom_bond_atom_site_label_1
_geom_bond_atom_site_label_2
_ccdc_geom_bond_type
O6    Zn2   S    
C2    C4    S    
C8    H24   S    
C13   H9    S    
C19   O8    A    
C2    C18   S    
C4    C22   S    
C9    C10   S    
C13   H8    S    
C3    C23   S    
C9    N1    D    
C14   H7    S    
C17   H14   S    
C10   N2    D    
C11   H11   S    
C19   C24   S    
C1    O3    A    
C15   H19   S    
C3    C20   S    
C17   H13   S    
C13   C14   S    
O5    Zn1   S    
C4    C21   S    
C11   C13   S    
C6    C11   S    
C3    C24   S    
C12   O4    A    
N1    Zn2   S    
O1    Zn1   S    
C16   H16   S    
C1    C5    S    
C3    H22   S    
C20   H20   S    
C14   H6    S    
C9    H2    S    
C21   H21   S    
N2    Zn1   S    
C21   C23   S    
C19   O6    A    
C6    C12   S    
H4    N1    S    
C22   C24   S    
C5    C15   S    
C14   H5    S    
C2    C20   S    
C15   C16   S    
C10   H26   S    
O3    Zn2   S    
C18   O7    A    
C7    C8    S    
H3    N2    S    
C7    H25   S    
C23   H12   S    
C17   H15   S    
C21   C24   S    
C2    C23   S    
C5    C7    D    
C1    O1    A    
O4    Zn1   S    
C16   C17   S    
O7    Zn2   S    
C6    C8    D    
C18   O5    A    
O2    Zn2   S    
C16   H17   S    
C4    H23   S    
C11   H10   S    
C12   O2    A    
C15   H18   S    
C20   C22   S    
O8    Zn1   S    
C22   H1    S    
