data_mof_unit_49176.cif
_audit_creation_date              2012-12-10T17:35:44-0500
_audit_creation_method            fapswitch 2.2
_symmetry_space_group_name_H-M    P1
_symmetry_Int_Tables_number       1
_space_group_crystal_system       triclinic
_cell_length_a                    10.562642
_cell_length_b                    12.04519
_cell_length_c                    12.794769
_cell_angle_alpha                 94.604006
_cell_angle_beta                  90.859502
_cell_angle_gamma                 86.346368
_cell_volume                      1619.23546217

loop_
_atom_site_label
_atom_site_type_symbol
_atom_type_description
_atom_site_fract_x
_atom_site_fract_y
_atom_site_fract_z
_atom_type_partial_charge
C1    C     C_R   0.500289 0.523564 0.700332 1.047582
C2    C     C_R   0.499711 0.476435 0.299668 1.047577
C3    C     C_R   0.427674 0.476101 0.868157 0.388215
C4    C     C_R   0.572335 0.523897 0.131843 0.388220
C5    C     C_R   0.456695 0.463475 0.973708 -0.185342
C6    C     C_R   0.543317 0.536521 0.026292 -0.185341
C7    C     C_R   0.378039 0.954251 0.404907 -0.250462
C8    C     C_R   0.621960 0.045747 0.595093 -0.250469
C9    C     C_R   0.389717 0.838676 0.413224 0.557246
C10   C     C_R   0.610283 0.161323 0.586774 0.557240
C11   C     C_R   0.553428 0.859048 0.540652 -0.042521
C12   C     C_R   0.446570 0.140953 0.459349 -0.042527
C13   C     C_R   0.544462 0.975968 0.534362 0.015296
C14   C     C_R   0.455536 0.024032 0.465638 0.015290
C15   C     C_R   0.742087 0.500751 0.500815 1.007982
C16   C     C_R   0.257913 0.499251 0.499192 1.007961
C17   C     C_3   0.960065 0.421067 0.430047 0.315927
C18   C     C_3   0.039936 0.578939 0.569968 0.315817
C19   C     C_3   0.047014 0.399269 0.524898 -0.171387
C20   C     C_3   0.952985 0.600738 0.475120 -0.171431
C21   C     C_3   0.123699 0.497402 0.498381 -0.194401
C22   C     C_3   0.876301 0.502603 0.501635 -0.194431
C23   C     C_3   0.037487 0.519012 0.403625 -0.154195
C24   C     C_3   0.962512 0.480997 0.596392 -0.154123
C25   C     C_R   0.497638 0.458628 0.187580 -0.274826
C26   C     C_R   0.502368 0.541369 0.812420 -0.274789
C27   C     C_R   0.595937 0.620337 0.971765 0.445313
C28   C     C_R   0.404079 0.379656 0.028233 0.445310
C29   C     C_R   0.582852 0.616953 0.863361 0.310551
C30   C     C_R   0.417163 0.383037 0.136637 0.310593
H1    H     H_    0.378450 0.178690 0.406736 0.180608
H2    H     H_    0.621545 0.821311 0.593267 0.180600
H3    H     H_    0.308773 0.989023 0.351199 0.209340
H4    H     H_    0.691226 0.010975 0.648800 0.209337
N1    N     N_R   0.523490 0.207800 0.519350 -0.146972
N2    N     N_R   0.476510 0.792200 0.480650 -0.146968
O1    O     O_R   0.506270 0.421700 0.658830 -0.559378
O2    O     O_R   0.493730 0.578300 0.341170 -0.559387
O3    O     O_R   0.491200 0.609310 0.646410 -0.593660
O4    O     O_R   0.508800 0.390690 0.353590 -0.593654
O5    O     O_R   0.693580 0.406210 0.506230 -0.553159
O6    O     O_R   0.306420 0.593790 0.493770 -0.553181
O7    O     O_R   0.678510 0.593830 0.493810 -0.656359
O8    O     O_R   0.321490 0.406170 0.506190 -0.656345
Zn1   Zn    Zn3+2 0.510060 0.374730 0.508290 1.085563
Zn2   Zn    Zn3+2 0.489940 0.625270 0.491710 1.085547
C31   C     C_2   0.099615 0.285156 0.548251 0.605604
H5    H     H_    0.154945 0.234270 0.489494 0.073457
O9    O     O_2   0.080193 0.248787 0.632437 -0.492297
C32   C     C_2   0.900379 0.714847 0.451788 0.605607
H6    H     H_    0.845029 0.765705 0.510543 0.073473
O10   O     O_2   0.919815 0.751245 0.367621 -0.492370
Cl1   Cl    Cl    0.904482 0.316540 0.336725 -0.491414
Cl2   Cl    Cl    0.095527 0.683466 0.663287 -0.491473
C33   C     C_2   0.075404 0.535830 0.293907 0.684571
H7    H     H_    0.003048 0.554694 0.235902 0.146730
O11   O     O_2   0.186613 0.527274 0.268829 -0.541030
C34   C     C_2   0.924605 0.464210 0.706122 0.684491
H8    H     H_    0.997022 0.445487 0.764187 0.146702
O12   O     O_2   0.813350 0.472662 0.731149 -0.540933
Cl3   Cl    Cl    0.712939 0.571447 0.194049 -0.494996
Cl4   Cl    Cl    0.287074 0.428547 0.805952 -0.495017
Cl5   Cl    Cl    0.331060 0.292495 0.207420 -0.472825
Cl6   Cl    Cl    0.668966 0.707482 0.792574 -0.472914
Cl7   Cl    Cl    0.664532 0.738592 0.035380 -0.337332
Cl8   Cl    Cl    0.335494 0.261398 0.964616 -0.337314
Cl9   Cl    Cl    0.710483 0.243333 0.665881 -0.461215
Cl10  Cl    Cl    0.289520 0.756663 0.334116 -0.461310

loop_
_geom_bond_atom_site_label_1
_geom_bond_atom_site_label_2
_ccdc_geom_bond_type
C9    N2    A    
C32   O10   D    
C33   H7    S    
C23   C33   S    
C16   C21   S    
C27   Cl7   S    
C2    O4    A    
C27   C29   A    
C5    C28   A    
C11   C13   A    
C1    C26   S    
C2    O2    A    
C28   Cl8   S    
C17   C22   S    
C20   C23   S    
C1    O1    A    
C18   Cl2   S    
O4    Zn1   S    
C17   Cl1   S    
C28   C30   A    
C4    C25   A    
C9    Cl10  S    
C15   O7    A    
C31   O9    D    
C17   C23   S    
C10   Cl9   S    
C12   N1    A    
N2    Zn2   S    
C7    H3    S    
O7    Zn2   S    
C8    C13   A    
O3    Zn2   S    
C18   C24   S    
C30   Cl5   S    
C4    Cl3   S    
C22   C24   S    
C8    C10   A    
C11   N2    A    
C19   C21   S    
C12   C14   A    
C11   H2    S    
C19   C24   S    
C2    C25   S    
C18   C20   S    
C33   O11   D    
C12   H1    S    
O6    Zn2   S    
C5    C6    A    
C10   N1    A    
C19   C31   S    
C29   Cl6   S    
C4    C6    A    
O2    Zn2   S    
C1    O3    A    
O1    Zn1   S    
N1    Zn1   S    
C16   O6    A    
C20   C32   S    
O8    Zn1   S    
C15   O5    A    
C26   C29   A    
C24   C34   S    
C15   C22   S    
C3    Cl4   S    
C25   C30   A    
C7    C9    A    
C6    C27   A    
O5    Zn1   S    
C18   C21   S    
C17   C19   S    
C8    H4    S    
C32   H6    S    
C34   H8    S    
C13   C14   A    
C34   O12   D    
C21   C23   S    
C16   O8    A    
C3    C26   A    
C7    C14   A    
C31   H5    S    
C20   C22   S    
C3    C5    A    
