data_mof_unit_30241.cif
_audit_creation_date              2012-12-10T18:11:36-0500
_audit_creation_method            fapswitch 2.2
_symmetry_space_group_name_H-M    P1
_symmetry_Int_Tables_number       1
_space_group_crystal_system       triclinic
_cell_length_a                    10.500003
_cell_length_b                    12.614897
_cell_length_c                    13.103641
_cell_angle_alpha                 81.968709
_cell_angle_beta                  90.750612
_cell_angle_gamma                 102.552027
_cell_volume                      1677.29366677

loop_
_atom_site_label
_atom_site_type_symbol
_atom_type_description
_atom_site_fract_x
_atom_site_fract_y
_atom_site_fract_z
_atom_type_partial_charge
C1    C     C_R   0.479332 0.438641 0.691223 0.867792
C2    C     C_3   0.067760 0.596975 0.522464 -0.060464
C3    C     C_3   0.964592 0.515848 0.594156 -0.102953
C4    C     C_3   0.877896 0.500529 0.500574 0.010873
C5    C     C_R   0.408819 0.705061 0.062810 -0.087229
C6    C     C_R   0.500389 0.597176 0.199355 -0.040334
C7    C     C_R   0.491320 0.298742 0.840455 -0.178041
C8    C     C_R   0.499065 0.269765 0.946077 -0.132208
C9    C     C_R   0.486044 0.344022 0.012332 -0.169930
C10   C     C_R   0.458709 0.447426 0.973500 0.097937
C11   C     C_R   0.429410 0.467940 0.868844 0.027374
C12   C     C_R   0.742338 0.500459 0.500401 0.892849
C13   C     C_R   0.459900 0.531020 0.035042 0.023022
C14   C     C_R   0.410090 0.625358 0.997309 0.018366
C15   C     C_R   0.361750 0.635951 0.896254 0.438202
C16   C     C_R   0.371234 0.556926 0.833903 -0.290187
C17   C     C_R   0.513377 0.523900 0.132818 -0.203171
C18   C     C_R   0.451333 0.689811 0.163917 -0.235030
C19   C     C_R   0.460753 0.399263 0.801180 -0.072273
C20   C     C_R   0.321854 0.090734 0.341763 -0.297302
C21   C     C_R   0.651801 0.805809 0.633023 0.565184
C22   C     C_R   0.650217 0.899850 0.676812 -0.200144
C23   C     C_R   0.512791 0.561257 0.308553 0.839642
C24   C     C_R   0.579137 0.973174 0.632840 -0.259142
C25   C     C_R   0.510371 0.954786 0.542440 0.031602
C26   C     C_R   0.496868 0.850709 0.508574 0.179559
C27   C     C_R   0.455637 0.036651 0.484738 0.017422
C28   C     C_R   0.375385 0.010144 0.400246 0.194136
C29   C     C_R   0.352384 0.904396 0.373752 -0.275659
C30   C     C_R   0.414131 0.826485 0.426104 -0.178447
C31   C     C_R   0.483895 0.146261 0.504245 -0.055128
C32   C     C_R   0.352054 0.197188 0.365690 0.014840
C33   C     C_R   0.257781 0.499496 0.499770 0.841221
C34   C     C_3   0.932773 0.402973 0.477939 -0.135518
C35   C     C_3   0.022059 0.418586 0.571560 -0.213211
C36   C     C_3   0.122496 0.499433 0.499838 -0.003385
C37   C     C_3   0.035988 0.484082 0.406249 -0.194381
C38   C     C_3   0.978485 0.581388 0.428823 -0.170992
H1    H     H_    0.044477 0.352336 0.629432 0.154330
H2    H     H_    0.562497 0.459050 0.160868 0.146994
H3    H     H_    0.512867 0.244035 0.789493 0.151112
H4    H     H_    0.494418 0.317310 0.093561 0.128931
H5    H     H_    0.520796 0.191464 0.976506 0.152285
H6    H     H_    0.330897 0.564401 0.757584 0.200090
H7    H     H_    0.311805 0.260503 0.320889 0.137937
H8    H     H_    0.290436 0.882996 0.309599 0.154703
H9    H     H_    0.259180 0.072045 0.277363 0.152558
H10   H     H_    0.548929 0.174802 0.563659 0.124647
H11   H     H_    0.874174 0.323574 0.459801 0.157870
H12   H     H_    0.582427 0.044773 0.669990 0.156816
H13   H     H_    0.397104 0.748815 0.399043 0.200465
H14   H     H_    0.069818 0.471009 0.329988 0.147027
H15   H     H_    0.956269 0.647806 0.371049 0.156737
H16   H     H_    0.126403 0.676400 0.540522 0.201393
H17   H     H_    0.932269 0.528496 0.670944 0.197851
H18   H     H_    0.440396 0.747582 0.215191 0.149043
H19   H     H_    0.370764 0.777336 0.038575 0.211865
N1    N     N_R   0.432930 0.222190 0.444670 -0.102676
N2    N     N_R   0.566370 0.776980 0.554790 -0.187283
O1    O     O_R   0.467970 0.366730 0.627150 -0.628156
O2    O     O_R   0.510820 0.544830 0.662520 -0.562796
O3    O     O_R   0.664630 0.410960 0.482340 -0.640633
O4    O     O_R   0.707470 0.589060 0.517710 -0.525674
O5    O     O_R   0.489180 0.455170 0.337480 -0.622851
O6    O     O_R   0.532030 0.633270 0.372850 -0.640228
O7    O     O_R   0.292530 0.410940 0.482290 -0.611019
O8    O     O_R   0.335370 0.589040 0.517660 -0.646451
Zn1   Zn    Zn3+2 0.471390 0.381080 0.476380 0.937421
Zn2   Zn    Zn3+2 0.528610 0.618920 0.523620 1.013560
S1    S     S_3+6 0.784896 0.743572 0.670186 0.031706
O9    O     O_2   0.741046 0.625652 0.716201 -0.307564
O10   O     O_2   0.871337 0.753216 0.577360 -0.325628
O11   O     O_3   0.874510 0.809824 0.758814 -0.560474
H20   H     H_    0.952383 0.777211 0.767899 0.420833
H21   H     H_    0.709746 0.920473 0.742189 0.217057
S2    S     S_3+6 0.293137 0.748047 0.843512 -0.010649
O12   O     O_2   0.253431 0.739158 0.733807 -0.321431
O13   O     O_2   0.175319 0.749079 0.906976 -0.315776
O14   O     O_3   0.404187 0.865691 0.846739 -0.582599
H22   H     H_    0.361050 0.924167 0.814447 0.383761

loop_
_geom_bond_atom_site_label_1
_geom_bond_atom_site_label_2
_ccdc_geom_bond_type
O7    Zn1   S    
C30   H13   S    
C34   C37   S    
O11   H20   S    
C35   C36   S    
S2    O14   S    
C32   N1    A    
C7    C8    A    
C11   C19   A    
C9    H4    S    
C29   C30   A    
O5    Zn1   S    
C31   N1    A    
C28   C29   A    
S2    O13   D    
C21   N2    A    
O2    Zn2   S    
C15   C16   A    
C33   C36   S    
C34   C35   S    
C32   H7    S    
C3    H17   S    
O4    Zn2   S    
C8    C9    A    
C8    H5    S    
S1    O9    D    
C4    C12   S    
C9    C10   A    
C16   H6    S    
C18   H18   S    
C15   S2    S    
C21   C22   A    
C22   H21   S    
C33   O7    A    
C24   H12   S    
C6    C18   A    
C4    C34   S    
C1    C19   S    
C27   C31   A    
S2    O12   D    
C2    H16   S    
C1    O1    A    
C37   H14   S    
C5    C18   A    
C20   C28   A    
C25   C26   A    
O8    Zn2   S    
C17   H2    S    
C35   H1    S    
C37   C38   S    
C12   O3    A    
C11   C16   A    
C2    C38   S    
C3    C35   S    
S1    O11   S    
C24   C25   A    
C5    C14   A    
N2    Zn2   S    
N1    Zn1   S    
C23   O5    A    
C4    C38   S    
C26   C30   A    
C7    C19   A    
C31   H10   S    
C22   C24   A    
C3    C4    S    
C33   O8    A    
C20   C32   A    
C2    C36   S    
C12   O4    A    
C6    C17   A    
C36   C37   S    
C34   H11   S    
C10   C13   A    
C1    O2    A    
C5    H19   S    
C25   C27   A    
C21   S1    S    
C13   C17   A    
C29   H8    S    
C23   O6    A    
C2    C3    S    
C38   H15   S    
O6    Zn2   S    
C6    C23   S    
O3    Zn1   S    
C7    H3    S    
C20   H9    S    
C10   C11   A    
O14   H22   S    
O1    Zn1   S    
C27   C28   A    
C14   C15   A    
C26   N2    A    
S1    O10   D    
C13   C14   A    
