data_mof_unit_53135.cif
_audit_creation_date              2013-03-05T16:32:34-0500
_audit_creation_method            fapswitch 2.2
_symmetry_space_group_name_H-M    P1
_symmetry_Int_Tables_number       1
_space_group_crystal_system       triclinic
_cell_length_a                    15.826246
_cell_length_b                    10.805903
_cell_length_c                    9.536515
_cell_angle_alpha                 90.648291
_cell_angle_beta                  89.758603
_cell_angle_gamma                 89.425535
_cell_volume                      1630.70340033

loop_
_atom_site_label
_atom_site_type_symbol
_atom_site_description
_atom_site_fract_x
_atom_site_fract_y
_atom_site_fract_z
_atom_type_partial_charge
O1    O     O_R   0.500000 0.319640 0.618810 -0.588025
O2    O     O_R   0.500010 0.319680 0.381230 -0.568872
C1    C     C_R   0.498866 0.262572 0.498825 0.826289
O3    O     O_R   0.379070 0.499970 0.618770 -0.596708
O4    O     O_R   0.379080 0.500010 0.381190 -0.562924
C2    C     C_R   0.339824 0.500537 0.500235 0.865956
Cu1   Cu    Cu3+1 0.500000 0.499980 0.640670 0.968758
Cu2   Cu    Cu3+1 0.500000 0.500020 0.359330 1.005486
O5    O     O_R   0.499990 0.680320 0.618770 -0.558187
O6    O     O_R   0.500000 0.680360 0.381190 -0.556109
O7    O     O_R   0.620920 0.499990 0.618810 -0.590750
O8    O     O_R   0.620930 0.500030 0.381230 -0.569958
C3    C     C_R   0.497529 0.737407 0.500817 0.849583
C4    C     C_R   0.660133 0.499475 0.499639 0.822768
C5    C     C_3   0.971979 0.431202 0.598567 -0.150505
C6    C     C_3   0.029763 0.390628 0.474425 -0.156579
H1    H     H_    0.055826 0.295966 0.456464 0.134190
H2    H     H_    0.947603 0.369433 0.681388 0.135422
H3    H     H_    0.949568 0.427866 0.268998 0.153953
C7    C     C_1   0.250125 0.503114 0.500733 -0.138980
C8    C     C_1   0.749744 0.499823 0.498223 -0.145253
C9    C     C_3   0.026316 0.548213 0.623237 -0.217086
C10   C     C_3   0.082805 0.507323 0.498922 0.138573
C11   C     C_3   0.970014 0.620558 0.519361 0.002311
C12   C     C_3   0.916903 0.504266 0.495346 0.138407
C13   C     C_3   0.027616 0.580279 0.396263 0.009227
C14   C     C_3   0.973335 0.463809 0.370771 -0.192504
C15   C     C_1   0.174527 0.505406 0.500444 -0.069199
C16   C     C_1   0.825289 0.501056 0.496395 -0.051592
H4    H     H_    0.049956 0.580501 0.726507 0.126149
C17   C     C_R   0.549481 0.063738 0.585165 0.040611
C18   C     C_R   0.498185 0.129135 0.493409 -0.115834
C19   C     C_R   0.449320 0.064056 0.392849 -0.142855
C20   C     C_R   0.445539 0.933824 0.398938 0.319929
C21   C     C_R   0.493883 0.870696 0.500829 -0.154397
C22   C     C_R   0.547273 0.936815 0.589746 -0.087206
C23   C     C_3   0.555910 0.938028 0.747800 0.310502
C24   C     C_3   0.561075 0.079012 0.739582 -0.495116
H5    H     H_    0.507680 0.129286 0.791611 0.220843
H6    H     H_    0.624297 0.117572 0.764113 0.177234
C25   C     C_R   0.554349 0.426345 0.072440 0.190280
N1    N     N_R   0.500530 0.500930 0.147930 -0.227771
C26   C     C_R   0.439891 0.564742 0.075691 -0.000268
H7    H     H_    0.392626 0.618324 0.132497 0.200809
C27   C     C_R   0.439592 0.564057 0.926680 0.005470
H8    H     H_    0.392073 0.617105 0.871776 0.176953
N2    N     N_R   0.500530 0.500890 0.852020 -0.192443
C28   C     C_R   0.554552 0.426748 0.924932 0.183049
C29   C     C_3   0.648711 0.427707 0.917219 -0.537087
C30   C     C_3   0.648791 0.427799 0.076542 0.142714
H9    H     H_    0.674809 0.341920 0.867407 0.213974
H10   H     H_    0.673542 0.515078 0.873714 0.203610
H11   H     H_    0.675424 0.513601 0.123629 0.124131
C31   C     C_R   0.636300 0.878629 0.805438 0.069210
C32   C     C_R   0.661587 0.907660 0.943268 -0.065311
C33   C     C_R   0.733458 0.852250 0.000910 -0.126578
C34   C     C_R   0.780922 0.766937 0.921935 -0.148097
C35   C     C_R   0.756612 0.737153 0.785235 -0.122420
C36   C     C_R   0.684955 0.792627 0.726709 -0.106613
H12   H     H_    0.624895 0.972529 0.006535 0.179820
H13   H     H_    0.752109 0.875075 0.107097 0.136596
H14   H     H_    0.836503 0.723806 0.966630 0.131088
H15   H     H_    0.793421 0.670720 0.724754 0.141953
H16   H     H_    0.667808 0.767634 0.620565 0.108966
N3    N     N_R   0.684513 0.313976 0.134488 0.150884
O9    O     O_R   0.748341 0.319967 0.219623 -0.381302
O10   O     O_R   0.654302 0.206249 0.100147 -0.423718
C37   C     C_R   0.062772 0.667213 0.288973 0.093650
C38   C     C_R   0.048691 0.647853 0.145126 -0.164613
C39   C     C_R   0.082640 0.729018 0.047061 -0.151363
C40   C     C_R   0.130364 0.830116 0.091735 -0.087617
C41   C     C_R   0.144310 0.850263 0.234759 -0.051803
C42   C     C_R   0.110796 0.769055 0.333126 -0.104283
H17   H     H_    0.011931 0.570178 0.108360 0.120248
H18   H     H_    0.072156 0.713345 0.936367 0.117337
H19   H     H_    0.156569 0.892739 0.015555 0.149025
H20   H     H_    0.181280 0.928589 0.269358 0.162949
H21   H     H_    0.122313 0.785363 0.443698 0.140226
C43   C     C_R   0.932538 0.748482 0.537835 0.092787
C44   C     C_R   0.951212 0.821390 0.656302 -0.159218
C45   C     C_R   0.914334 0.938830 0.673278 -0.117085
C46   C     C_R   0.858709 0.984250 0.572218 -0.088774
C47   C     C_R   0.840369 0.912660 0.453438 -0.133456
C48   C     C_R   0.877382 0.795441 0.435864 -0.156591
H22   H     H_    0.993706 0.787662 0.735889 0.113599
H23   H     H_    0.928517 0.994338 0.765252 0.133081
H24   H     H_    0.829858 0.074857 0.585929 0.134838
H25   H     H_    0.797343 0.947887 0.375123 0.145287
H26   H     H_    0.862560 0.740821 0.343389 0.128443
C49   C     C_R   0.394819 0.131648 0.292808 0.169322
C50   C     C_R   0.315833 0.178694 0.336139 -0.160234
C51   C     C_R   0.266055 0.246770 0.243203 -0.139857
C52   C     C_R   0.294986 0.268494 0.107015 -0.105056
C53   C     C_R   0.373530 0.221596 0.063204 -0.124358
C54   C     C_R   0.423440 0.153317 0.155690 0.005249
H27   H     H_    0.293318 0.163491 0.441900 0.127456
H28   H     H_    0.205289 0.283335 0.277006 0.131114
H29   H     H_    0.256604 0.321821 0.035507 0.127988
H30   H     H_    0.395926 0.238779 0.957877 0.130997
H31   H     H_    0.484475 0.118168 0.121132 0.155239
N4    N     N_R   0.385767 0.867445 0.313875 0.111494
O11   O     O_R   0.382224 0.884366 0.179253 -0.334163
O12   O     O_R   0.332804 0.792085 0.372019 -0.403810
N5    N     N_R   0.478457 0.898342 0.820026 0.143652
O13   O     O_R   0.404564 0.937040 0.778577 -0.362411
O14   O     O_R   0.482909 0.831398 0.932254 -0.354738

loop_
_geom_bond_atom_site_label_1
_geom_bond_atom_site_label_2
_geom_bond_distance
_ccdc_geom_bond_type
C5    H2    1.110266 S    
C32   C33   1.397694 A    
C52   C53   1.398130 A    
C25   N1    1.364279 A    
C21   C22   1.395680 A    
N5    O14   1.300325 A    
C45   C46   1.397827 A    
C49   C50   1.403575 A    
Cu1   Cu2   2.683007 S    
C27   H8    1.081559 S    
Cu1   O7    1.924157 S    
C13   C14   1.548422 S    
N4    O11   1.300191 A    
C47   C48   1.398265 A    
C4    C8    1.418258 S    
C22   C23   1.513964 S    
C23   C24   1.529344 S    
C11   C13   1.539508 S    
C3    C21   1.440880 S    
C38   C39   1.398667 A    
O4    C2    1.291787 A    
C44   C45   1.398935 A    
O7    C4    1.292512 A    
C5    C12   1.537232 S    
C46   H24   1.082516 S    
C33   C34   1.395343 A    
C20   C21   1.416227 A    
C10   C13   1.534183 S    
O5    C3    1.289553 A    
C41   H20   1.082963 S    
C50   H27   1.083098 S    
C5    C9    1.552543 S    
N2    C28   1.363887 A    
C37   C38   1.404382 A    
N3    O10   1.301847 A    
C42   H21   1.083627 S    
C39   C40   1.397920 A    
H3    C14   1.109866 S    
C45   H23   1.082560 S    
C6    C14   1.552723 S    
C47   H25   1.082539 S    
N4    O12   1.301228 A    
C32   H12   1.082542 S    
C53   C54   1.398248 A    
O3    Cu1   1.926105 S    
N5    O13   1.302529 A    
C51   H28   1.082497 S    
C31   C36   1.408994 A    
C27   N2    1.368568 A    
C12   C16   1.450658 S    
C24   H5    1.112015 S    
C30   H11   1.113079 S    
C20   N4    1.440237 S    
C34   H14   1.082638 S    
C11   C12   1.534408 S    
O3    C2    1.292146 A    
C50   C51   1.398669 A    
C54   H31   1.083093 S    
C6    H1    1.110316 S    
C7    C15   1.196462 T    
C29   H9    1.111884 S    
C37   C42   1.405350 A    
C8    C16   1.195865 T    
O1    C1    1.293949 A    
Cu1   N2    2.015509 S    
C26   H7    1.081228 S    
C44   H22   1.080197 S    
C23   N5    1.473429 S    
C11   C43   1.506928 S    
C17   C18   1.390183 A    
Cu2   O8    1.926103 S    
C29   H10   1.110342 S    
C19   C20   1.410993 A    
C36   H16   1.081123 S    
C38   H17   1.082005 S    
C33   H13   1.082484 S    
C10   C15   1.451688 S    
C26   C27   1.421016 A    
C23   C31   1.526529 S    
C28   C29   1.491839 S    
O8    C4    1.290764 A    
C46   C47   1.397582 A    
C6    C10   1.538044 S    
C9    C11   1.548361 S    
N1    C26   1.368981 A    
C25   C30   1.495570 S    
C35   H15   1.080174 S    
Cu1   O5    1.962244 S    
C31   C32   1.408508 A    
C9    H4    1.108852 S    
O1    Cu1   1.957509 S    
C9    C10   1.539887 S    
O2    Cu2   1.962242 S    
Cu2   N1    2.016138 S    
C41   C42   1.398262 A    
O6    C3    1.290835 A    
C49   C54   1.404967 A    
C40   H19   1.082555 S    
O4    Cu2   1.924160 S    
C12   C14   1.540010 S    
C2    C7    1.419576 S    
C17   C24   1.492265 S    
C13   C37   1.505437 S    
C18   C19   1.419210 A    
O2    C1    1.286273 A    
C35   C36   1.398650 A    
C40   C41   1.397587 A    
C19   C49   1.482471 S    
C24   H6    1.112478 S    
C34   C35   1.395820 A    
C43   C48   1.405184 A    
C53   H30   1.082394 S    
C51   C52   1.398416 A    
C25   C28   1.406758 A    
N3    O9    1.300309 A    
C1    C18   1.442408 S    
C30   N3    1.463510 S    
C43   C44   1.404180 A    
Cu2   O6    1.957509 S    
C29   C30   1.519389 S    
C48   H26   1.083442 S    
C39   H18   1.081007 S    
C17   C22   1.373491 A    
C52   H29   1.082330 S    
C5    C6    1.549582 S    
