data_mof_unit_16925.cif
_audit_creation_date              2012-10-26T20:40:15-0400
_audit_creation_method            fapswitch 2.2
_symmetry_space_group_name_H-M    P1
_symmetry_Int_Tables_number       1
_space_group_crystal_system       triclinic
_cell_length_a                    15.005732
_cell_length_b                    10.879385
_cell_length_c                    9.621057
_cell_angle_alpha                 87.873587
_cell_angle_beta                  89.447184
_cell_angle_gamma                 93.510606
_cell_volume                      1566.5289127

loop_
_atom_site_label
_atom_site_type_symbol
_atom_type_description
_atom_site_fract_x
_atom_site_fract_y
_atom_site_fract_z
_atom_type_partial_charge
C1    C     C_R   0.501055 0.261990 0.503549 0.540956
C2    C     C_R   0.180774 0.384090 0.487288 0.240747
C3    C     C_R   0.232812 0.495362 0.502369 0.007067
C4    C     C_R   0.329268 0.498814 0.500688 0.523906
C5    C     C_R   0.193066 0.606642 0.517624 -0.149542
C6    C     C_R   0.464801 0.097457 0.767315 -0.079071
C7    C     C_R   0.421736 0.025053 0.875273 0.277101
C8    C     C_R   0.385604 0.908132 0.847341 -0.027126
C9    C     C_R   0.400416 0.858690 0.718655 -0.131472
C10   C     C_R   0.451820 0.926126 0.614220 -0.023474
C11   C     C_R   0.472771 0.052730 0.631102 -0.011743
C12   C     C_R   0.912209 0.616543 0.512275 0.005474
C13   C     C_R   0.501030 0.126839 0.511098 -0.029776
C14   C     C_R   0.521203 0.070402 0.387245 -0.115459
C15   C     C_R   0.516073 0.942906 0.378951 0.244526
C16   C     C_R   0.493878 0.736683 0.497794 0.571455
C17   C     C_R   0.483810 0.869898 0.494529 0.055181
C18   C     C_R   0.620617 0.662063 0.135856 -0.070498
C19   C     C_R   0.681469 0.742607 0.061003 0.219807
C20   C     C_R   0.681696 0.742455 0.915786 0.265143
C21   C     C_R   0.621787 0.662489 0.848770 -0.063070
C22   C     C_R   0.560145 0.579331 0.921399 0.063339
C23   C     C_R   0.940959 0.281305 0.471478 -0.138603
C24   C     C_R   0.559836 0.579306 0.070480 0.092706
C25   C     C_R   0.441839 0.426749 0.079473 0.077105
C26   C     C_R   0.440812 0.426240 0.932702 0.325498
C27   C     C_R   0.670740 0.501346 0.499297 0.542480
C28   C     C_R   0.818189 0.617074 0.510032 -0.025434
C29   C     C_R   0.767308 0.505148 0.497681 -0.007035
C30   C     C_R   0.808037 0.394535 0.484367 -0.125981
C31   C     C_R   0.900585 0.392749 0.484852 0.016800
C32   C     C_R   0.953278 0.503572 0.499445 0.047136
C33   C     C_1   0.773262 0.731153 0.517037 0.193106
C34   C     C_R   0.033401 0.278532 0.472164 -0.076269
C35   C     C_1   0.110228 0.839404 0.546024 0.193302
C36   C     C_R   0.087408 0.387383 0.486647 0.067906
C37   C     C_R   0.047032 0.500958 0.500848 0.006331
C38   C     C_R   0.100151 0.611470 0.516414 -0.005429
C39   C     C_R   0.058993 0.723863 0.529757 -0.004639
C40   C     C_R   0.966103 0.725584 0.527210 -0.110926
Cu1   Cu    Cu3+1 0.499990 0.499990 0.640660 0.932954
Cu2   Cu    Cu3+1 0.500010 0.500010 0.359340 0.961626
H1    H     H_    0.495857 0.184118 0.795928 0.147156
H2    H     H_    0.235729 0.689694 0.528939 0.123691
H3    H     H_    0.936272 0.813077 0.537611 0.142794
H4    H     H_    0.543570 0.125911 0.296217 0.135724
H5    H     H_    0.445222 0.148521 0.013379 0.326917
H6    H     H_    0.563233 0.953019 0.188465 0.344001
H7    H     H_    0.731379 0.811997 0.229569 0.342688
H8    H     H_    0.778022 0.871445 0.894105 0.382129
H9    H     H_    0.388025 0.342718 0.777316 0.379466
H10   H     H_    0.283678 0.280466 0.483120 0.335051
H11   H     H_    0.348817 0.853272 0.927484 0.156140
H12   H     H_    0.371076 0.767220 0.701820 0.147979
H13   H     H_    0.394332 0.366654 0.139083 0.163284
H14   H     H_    0.622075 0.669042 0.245298 0.203282
H15   H     H_    0.626279 0.670662 0.738747 0.219591
H16   H     H_    0.767161 0.309559 0.474284 0.118794
H17   H     H_    0.900910 0.195949 0.460367 0.132194
H18   H     H_    0.062259 0.190482 0.461400 0.196790
N1    N     N_R   0.500860 0.501210 0.147910 -0.276175
N2    N     N_R   0.500890 0.501290 0.852040 -0.255192
N3    N     N_1   0.737254 0.822012 0.521990 -0.270029
N4    N     N_1   0.151213 0.931813 0.559044 -0.255919
O1    O     O_R   0.499990 0.319640 0.618810 -0.540359
O2    O     O_3   0.542251 0.888541 0.258878 -0.679006
O3    O     O_3   0.740349 0.822833 0.127617 -0.701488
O4    O     O_3   0.738946 0.819838 0.834366 -0.676420
O5    O     O_3   0.375792 0.349186 0.876573 -0.705689
O6    O     O_3   0.218092 0.271603 0.473552 -0.686469
O7    O     O_R   0.500000 0.319660 0.381240 -0.507567
O8    O     O_R   0.370250 0.499960 0.618800 -0.511030
O9    O     O_R   0.370260 0.499980 0.381230 -0.495866
O10   O     O_R   0.500000 0.680340 0.618760 -0.544921
O11   O     O_R   0.500010 0.680360 0.381190 -0.456938
O12   O     O_R   0.629740 0.500020 0.618770 -0.514482
O13   O     O_R   0.629750 0.500040 0.381200 -0.524491
O14   O     O_3   0.413488 0.066224 0.008441 -0.671737

loop_
_geom_bond_atom_site_label_1
_geom_bond_atom_site_label_2
_ccdc_geom_bond_type
C24   N1    A    
C27   C29   S    
C16   O11   A    
Cu1   Cu2   S    
C19   C20   A    
C7    C8    A    
C14   H4    S    
C23   H17   S    
C6    C11   A    
Cu2   O11   S    
C1    O7    A    
C12   C28   A    
C16   O10   A    
C21   C22   A    
C28   C29   A    
C38   C39   A    
C10   C17   A    
C18   C19   A    
Cu1   O10   S    
C8    C9    A    
C1    O1    A    
C19   O3    S    
C35   N4    T    
C18   C24   A    
C29   C30   A    
C9    C10   A    
C18   H14   S    
C13   C14   A    
C12   C32   A    
C34   H18   S    
Cu1   N2    S    
C40   H3    S    
C5    C38   A    
C39   C40   A    
C16   C17   S    
Cu1   O1    S    
C27   O13   A    
C25   C26   A    
C15   O2    S    
C23   C31   A    
C12   C40   A    
C35   C39   S    
C21   H15   S    
C37   C38   A    
C22   N2    A    
C31   C32   A    
C33   N3    T    
C23   C34   A    
C25   N1    A    
C32   C37   A    
Cu2   N1    S    
C4    O9    A    
Cu1   O8    S    
C5    H2    S    
C28   C33   S    
C6    H1    S    
C7    O14   S    
C22   C24   A    
C1    C13   S    
C3    C4    S    
C4    O8    A    
C2    C36   A    
C15   C17   A    
C36   C37   A    
Cu2   O9    S    
H7    O3    S    
C20   O4    S    
C25   H13   S    
C3    C5    A    
C8    H11   S    
C6    C7    A    
C2    C3    A    
C26   N2    A    
Cu1   O12   S    
C11   C13   A    
C30   C31   A    
C30   H16   S    
Cu2   O7    S    
C34   C36   A    
H10   O6    S    
C10   C11   A    
C20   C21   A    
Cu2   O13   S    
C26   O5    S    
C14   C15   A    
C9    H12   S    
H9    O5    S    
H5    O14   S    
H6    O2    S    
C2    O6    S    
H8    O4    S    
C27   O12   A    
