data_mof_unit_13962.cif
_audit_creation_date              2012-12-11T15:52:27-0500
_audit_creation_method            fapswitch 2.2
_symmetry_space_group_name_H-M    P1
_symmetry_Int_Tables_number       1
_space_group_crystal_system       triclinic
_cell_length_a                    6.926846
_cell_length_b                    14.55455
_cell_length_c                    16.016985
_cell_angle_alpha                 90.271732
_cell_angle_beta                  90.013499
_cell_angle_gamma                 90.002331
_cell_volume                      1614.76819566

loop_
_atom_site_label
_atom_site_type_symbol
_atom_type_description
_atom_site_fract_x
_atom_site_fract_y
_atom_site_fract_z
_atom_type_partial_charge
O1    O     O_R   0.494400 0.415640 0.412830 -0.539624
O2    O     O_R   0.823920 0.405510 0.586560 -0.543521
O3    O     O_R   0.994250 0.584360 0.587170 -0.540464
C1    C     C_R   0.654879 0.383201 0.615392 0.684403
O4    O     O_R   0.824110 0.404610 0.413450 -0.542704
O5    O     O_R   0.994440 0.583460 0.412820 -0.539929
C2    C     C_R   0.655035 0.382184 0.384333 0.689008
O6    O     O_R   0.494210 0.416540 0.587180 -0.540369
O7    O     O_3   0.660810 0.558680 0.500000 -0.369708
V1    V     V_3+5 0.935650 0.489110 0.500000 1.390580
O8    O     O_R   0.324150 0.594490 0.413440 -0.543131
C3    C     C_R   0.155081 0.616653 0.384347 0.685591
O9    O     O_R   0.323970 0.595390 0.586550 -0.544386
C4    C     C_R   0.155157 0.617711 0.615579 0.653590
V2    V     V_3+5 0.435660 0.510890 0.500000 1.388050
O10   O     O_3   0.160630 0.441320 0.500000 -0.367257
C5    C     C_3   0.046877 0.645150 0.764486 -0.318913
H1    H     H_    0.898939 0.621009 0.748414 0.136823
H2    H     H_    0.130301 0.584125 0.785448 0.123001
C6    C     C_3   0.034211 0.716332 0.836977 -0.322669
H3    H     H_    0.111584 0.689392 0.892614 0.123868
H4    H     H_    0.880354 0.725938 0.855029 0.138658
H5    H     H_    0.876857 0.751909 0.641574 0.141096
H6    H     H_    0.858294 0.856537 0.748397 0.137383
C7    C     C_3   0.025290 0.773153 0.660001 -0.318872
C8    C     C_3   0.349065 0.721298 0.712537 -0.317176
C9    C     C_3   0.144642 0.687685 0.686345 0.116083
H7    H     H_    0.423220 0.753280 0.658296 0.136325
H8    H     H_    0.438624 0.661913 0.732773 0.134500
C10   C     C_3   0.123100 0.809726 0.810727 0.115156
C11   C     C_3   0.012631 0.844269 0.732543 -0.323138
C12   C     C_3   0.336638 0.791994 0.784578 -0.306374
H9    H     H_    0.420556 0.766063 0.838874 0.138057
H10   H     H_    0.405133 0.857438 0.764421 0.133228
H11   H     H_    0.092949 0.805818 0.604568 0.123204
H12   H     H_    0.074163 0.910997 0.711806 0.123551
C13   C     C_R   0.953229 0.773777 0.215908 -0.158672
H13   H     H_    0.812380 0.792075 0.191835 0.116146
C14   C     C_R   0.964258 0.710627 0.281491 -0.153501
C15   C     C_R   0.143950 0.684622 0.315140 -0.048478
C16   C     C_R   0.312296 0.723574 0.281272 -0.158748
H14   H     H_    0.453145 0.705275 0.305344 0.116151
C17   C     C_R   0.301267 0.786727 0.215692 -0.153581
H15   H     H_    0.434163 0.815273 0.191459 0.118401
C18   C     C_R   0.121575 0.812730 0.182041 -0.048501
C19   C     C_R   0.812257 0.274213 0.716205 -0.161000
H16   H     H_    0.953018 0.292716 0.692193 0.116473
C20   C     C_R   0.801304 0.209509 0.780390 -0.156304
H17   H     H_    0.934148 0.180064 0.803796 0.118012
C21   C     C_R   0.621662 0.183194 0.813744 -0.046140
C22   C     C_R   0.453267 0.223293 0.781097 -0.161181
H18   H     H_    0.312504 0.204790 0.805109 0.116502
C23   C     C_R   0.464219 0.287992 0.716909 -0.156510
H19   H     H_    0.331372 0.317427 0.693497 0.118010
C24   C     C_R   0.643859 0.314302 0.683551 -0.046186
C25   C     C_R   0.812195 0.274189 0.281276 -0.157320
H20   H     H_    0.953056 0.292753 0.305330 0.116690
C26   C     C_R   0.801132 0.210319 0.215733 -0.151941
H21   H     H_    0.934021 0.181511 0.191509 0.118905
C27   C     C_R   0.621423 0.183950 0.182106 -0.047659
C28   C     C_R   0.453088 0.223262 0.215962 -0.157324
H22   H     H_    0.312233 0.204694 0.191904 0.116690
C29   C     C_R   0.464151 0.287135 0.281508 -0.151999
H23   H     H_    0.331270 0.315946 0.305736 0.118837
C30   C     C_R   0.643865 0.313500 0.315135 -0.047743
O11   O     O_R   0.771300 0.080930 0.910090 -0.540330
O12   O     O_R   0.441270 0.092800 0.083770 -0.542631
O13   O     O_R   0.271080 0.913920 0.084380 -0.539938
C31   C     C_R   0.610310 0.115260 0.112911 0.689209
O14   O     O_R   0.441580 0.091910 0.910670 -0.543560
O15   O     O_R   0.271390 0.913020 0.910040 -0.541307
C32   C     C_R   0.610630 0.114261 0.881874 0.684362
O16   O     O_R   0.770990 0.081830 0.084440 -0.539741
O17   O     O_3   0.604750 0.938760 0.997250 -0.369809
V3    V     V_3+5 0.329850 0.008280 0.997210 1.390141
O18   O     O_R   0.941680 0.901940 0.910610 -0.543702
C33   C     C_R   0.110946 0.879666 0.881558 0.653231
O19   O     O_R   0.941370 0.902830 0.083720 -0.543103
C34   C     C_R   0.110440 0.880700 0.112835 0.685691
V4    V     V_3+5 0.829860 0.986420 0.997150 1.388308
O20   O     O_3   0.104830 0.056030 0.997180 -0.367158
H24   H     H_    0.831362 0.682081 0.305724 0.118394

loop_
_geom_bond_atom_site_label_1
_geom_bond_atom_site_label_2
_ccdc_geom_bond_type
C7    C11   S    
C10   C12   S    
C29   C30   A    
C8    C12   S    
C16   H14   S    
C1    O6    A    
C6    C10   S    
C23   H19   S    
O13   V3    S    
C8    C9    S    
O5    C3    A    
C10   C11   S    
O19   V4    S    
C26   C27   A    
C25   C30   A    
C5    C6    S    
C25   H20   S    
C28   C29   A    
C21   C32   S    
C10   C33   S    
O8    V2    S    
O11   C32   A    
C19   C24   A    
C31   O16   A    
O1    V2    S    
C4    C9    S    
O7    V1    S    
O13   C34   A    
C20   C21   A    
O17   V4    S    
O9    C4    A    
C16   C17   A    
C21   C22   A    
C23   C24   A    
C19   C20   A    
O17   V3    S    
C22   H18   S    
C5    C9    S    
O18   C33   A    
C14   C15   A    
O4    C2    A    
O19   C34   A    
V3    O20   S    
C26   H21   S    
C27   C28   A    
O12   C31   A    
C12   H10   S    
C3    C15   S    
O2    C1    A    
C17   H15   S    
C13   H13   S    
C2    C30   S    
C5    H1    S    
C18   C34   S    
C17   C18   A    
O3    C4    A    
C7    H11   S    
C20   H17   S    
C6    H4    S    
O6    V2    S    
O9    V2    S    
C1    C24   S    
O12   V3    S    
C13   C18   A    
O2    V1    S    
O15   C33   A    
C19   H16   S    
C15   C16   A    
O1    C2    A    
O18   V4    S    
C14   H24   S    
V4    O20   S    
O5    V1    S    
O8    C3    A    
C7    C9    S    
O11   V4    S    
C8    H7    S    
C12   H9    S    
O7    V2    S    
H6    C11   S    
O4    V1    S    
C13   C14   A    
O3    V1    S    
V1    O10   S    
O15   V3    S    
C27   C31   S    
C5    H2    S    
O16   V4    S    
C25   C26   A    
H5    C7    S    
C28   H22   S    
C29   H23   S    
C6    H3    S    
C8    H8    S    
O14   V3    S    
C11   H12   S    
O14   C32   A    
C22   C23   A    
V2    O10   S    
