data_mof_unit_35132.cif
_audit_creation_date              2012-12-10T19:42:58-0500
_audit_creation_method            fapswitch 2.2
_symmetry_space_group_name_H-M    P1
_symmetry_Int_Tables_number       1
_space_group_crystal_system       triclinic
_cell_length_a                    10.810956
_cell_length_b                    12.996097
_cell_length_c                    11.654966
_cell_angle_alpha                 99.873815
_cell_angle_beta                  93.780285
_cell_angle_gamma                 90.649625
_cell_volume                      1609.33284485

loop_
_atom_site_label
_atom_site_type_symbol
_atom_type_description
_atom_site_fract_x
_atom_site_fract_y
_atom_site_fract_z
_atom_type_partial_charge
C1    C     C_R   0.498248 0.299016 0.478591 0.810189
C2    C     C_R   0.501752 0.700984 0.521409 0.810165
C3    C     C_R   0.871593 0.496288 0.499851 -0.068022
C4    C     C_R   0.128407 0.503724 0.500151 -0.068033
C5    C     C_R   0.943819 0.455242 0.586149 0.057284
C6    C     C_R   0.056178 0.544760 0.413847 0.057233
C7    C     C_R   0.502285 0.814388 0.533835 -0.048763
C8    C     C_R   0.497714 0.185612 0.466165 -0.048761
C9    C     C_R   0.498216 0.015008 0.344215 -0.221963
C10   C     C_R   0.501783 0.984992 0.655785 -0.221969
C11   C     C_R   0.497161 0.123145 0.355197 -0.187514
C12   C     C_R   0.502840 0.876855 0.644803 -0.187510
C13   C     C_R   0.498440 0.139317 0.566123 -0.281987
C14   C     C_R   0.501556 0.860683 0.433877 -0.281986
C15   C     C_R   0.500017 0.031313 0.555911 0.173576
C16   C     C_R   0.499980 0.968687 0.444088 0.173602
C17   C     C_R   0.391749 0.394734 0.020800 -0.322252
C18   C     C_R   0.608255 0.605263 0.979200 -0.322124
C19   C     C_R   0.401134 0.405622 0.143260 0.088342
C20   C     C_R   0.598868 0.594376 0.856739 0.088317
C21   C     C_R   0.545283 0.546682 0.157664 0.037035
C22   C     C_R   0.454718 0.453316 0.842335 0.036999
C23   C     C_R   0.262247 0.502211 0.500334 0.803344
C24   C     C_R   0.737753 0.497791 0.499666 0.803352
C25   C     C_R   0.538918 0.538557 0.034621 0.049022
C26   C     C_R   0.461085 0.461441 0.965378 0.049010
C27   C     C_R   0.215171 0.754014 0.286325 -0.119737
C28   C     C_R   0.784835 0.245822 0.713481 -0.119694
C29   C     C_R   0.159638 0.700046 0.363642 -0.152873
C30   C     C_R   0.840385 0.299865 0.636221 -0.152892
C31   C     C_R   0.112032 0.597903 0.326117 0.031818
C32   C     C_R   0.887957 0.402023 0.673832 0.031787
C33   C     C_R   0.120965 0.548976 0.207940 0.049264
C34   C     C_R   0.878972 0.450890 0.792040 0.049222
C35   C     C_R   0.177979 0.605189 0.131781 -0.135162
C36   C     C_R   0.821935 0.394604 0.868141 -0.135090
C37   C     C_R   0.224723 0.706570 0.170800 -0.157689
C38   C     C_R   0.775228 0.293208 0.829037 -0.157657
C39   C     C_R   0.928004 0.540416 0.414646 -0.175946
C40   C     C_R   0.071994 0.459599 0.585359 -0.175911
Cu1   Cu    Cu3+1 0.509250 0.507730 0.615930 0.952560
Cu2   Cu    Cu3+1 0.490750 0.492270 0.384070 0.952563
H1    H     H_    0.268649 0.748401 0.111160 0.135871
H2    H     H_    0.731286 0.251319 0.888633 0.135809
H3    H     H_    0.394567 0.394619 0.788240 0.117234
H4    H     H_    0.605433 0.605380 0.211760 0.117226
H5    H     H_    0.652528 0.646234 0.814876 0.135982
H6    H     H_    0.347474 0.353764 0.185124 0.135971
H7    H     H_    0.330793 0.334617 0.970012 0.157724
H8    H     H_    0.669212 0.665379 0.029988 0.157713
H9    H     H_    0.251010 0.832812 0.316121 0.140017
H10   H     H_    0.749024 0.167012 0.683618 0.140029
H11   H     H_    0.153895 0.737884 0.453444 0.133039
H12   H     H_    0.846167 0.262072 0.546393 0.133060
H13   H     H_    0.187744 0.570499 0.041602 0.187000
H14   H     H_    0.812125 0.429248 0.958341 0.186981
H15   H     H_    0.872254 0.573675 0.349904 0.143845
H16   H     H_    0.127743 0.426334 0.650097 0.143838
H17   H     H_    0.501725 0.812878 0.347921 0.152825
H18   H     H_    0.498266 0.187122 0.652079 0.152845
H19   H     H_    0.503600 0.842255 0.723022 0.157369
H20   H     H_    0.496402 0.157745 0.276978 0.157371
H21   H     H_    0.497896 0.967758 0.257997 0.133155
H22   H     H_    0.502103 0.032242 0.742002 0.133158
N1    N     N_R   0.523180 0.519350 0.790130 -0.182256
N2    N     N_R   0.476820 0.480650 0.209870 -0.182242
O1    O     O_R   0.506570 0.354460 0.582000 -0.587872
O2    O     O_R   0.493430 0.645540 0.418000 -0.587881
O3    O     O_R   0.490940 0.341410 0.386200 -0.594166
O4    O     O_R   0.509060 0.658590 0.613800 -0.594164
O5    O     O_R   0.327460 0.506540 0.597900 -0.586631
O6    O     O_R   0.672540 0.493460 0.402100 -0.586626
O7    O     O_R   0.311830 0.493480 0.402100 -0.574471
O8    O     O_R   0.688170 0.506520 0.597900 -0.574476
C41   C     C_2   0.075960 0.439850 0.161419 0.807794
O9    O     O_2   0.040731 0.382837 0.226486 -0.605287
O10   O     O_R   0.075879 0.401266 0.041739 -0.782362
H23   H     H_    0.044623 0.326104 0.020468 0.330658
C42   C     C_2   0.923941 0.560025 0.838651 0.807724
O11   O     O_2   0.959208 0.617091 0.773640 -0.605265
O12   O     O_R   0.923947 0.598555 0.958353 -0.782308
H24   H     H_    0.955179 0.673731 0.979690 0.330625

loop_
_geom_bond_atom_site_label_1
_geom_bond_atom_site_label_2
_ccdc_geom_bond_type
C8    C13   A    
C21   N2    A    
C27   C29   A    
C1    C8    S    
Cu1   Cu2   S    
C2    C7    S    
C11   H20   S    
O12   H24   S    
Cu1   O1    S    
C13   H18   S    
O10   H23   S    
C14   H17   S    
C30   H12   S    
C24   O6    A    
C17   C26   A    
C35   C37   A    
C9    C16   A    
C2    O2    A    
C10   C15   A    
C15   C16   A    
C39   H15   S    
C19   N2    A    
C33   C35   A    
Cu1   O8    S    
C33   C41   S    
C7    C14   A    
C4    C40   A    
C31   C33   A    
C34   C36   A    
Cu1   O5    S    
C5    C32   S    
C6    C31   S    
C3    C39   A    
Cu2   O2    S    
C3    C24   S    
C18   C25   A    
C23   O7    A    
C27   H9    S    
C7    C12   A    
C40   H16   S    
C35   H13   S    
C23   O5    A    
C20   N1    A    
C4    C6    A    
C17   H7    S    
C42   O12   S    
C4    C23   S    
C19   H6    S    
Cu1   N1    S    
C25   C26   A    
Cu2   O3    S    
C1    O3    A    
C32   C34   A    
C37   H1    S    
C41   O9    D    
C22   N1    A    
C38   H2    S    
C36   H14   S    
C34   C42   S    
C9    C11   A    
C28   C38   A    
Cu2   O6    S    
C41   O10   S    
C10   C12   A    
C13   C15   A    
C14   C16   A    
C18   H8    S    
C21   H4    S    
C21   C25   A    
Cu2   O7    S    
C9    H21   S    
C10   H22   S    
C3    C5    A    
C1    O1    A    
C28   C30   A    
C29   C31   A    
C30   C32   A    
C12   H19   S    
C28   H10   S    
C24   O8    A    
C29   H11   S    
C27   C37   A    
C8    C11   A    
C36   C38   A    
C17   C19   A    
C18   C20   A    
C20   H5    S    
C42   O11   D    
C22   H3    S    
C22   C26   A    
C5    C40   A    
Cu2   N2    S    
C6    C39   A    
C2    O4    A    
Cu1   O4    S    
