data_mof_unit_54099.cif
_audit_creation_date              2012-12-10T17:58:20-0500
_audit_creation_method            fapswitch 2.2
_symmetry_space_group_name_H-M    P1
_symmetry_Int_Tables_number       1
_space_group_crystal_system       triclinic
_cell_length_a                    9.688512
_cell_length_b                    10.735636
_cell_length_c                    15.334755
_cell_angle_alpha                 86.941919
_cell_angle_beta                  75.018113
_cell_angle_gamma                 89.239525
_cell_volume                      1538.5913671

loop_
_atom_site_label
_atom_site_type_symbol
_atom_type_description
_atom_site_fract_x
_atom_site_fract_y
_atom_site_fract_z
_atom_type_partial_charge
C1    C     C_R   0.000759 0.262926 0.499916 0.968535
C2    C     C_R   0.999241 0.737074 0.500084 0.968535
C3    C     C_R   0.580028 0.479782 0.098404 0.404500
C4    C     C_R   0.419972 0.520218 0.901596 0.404500
C5    C     C_R   0.716989 0.439440 0.056486 0.715374
C6    C     C_R   0.283011 0.560560 0.943514 0.715374
C7    C     C_R   0.928437 0.060596 0.577572 0.619135
C8    C     C_R   0.071563 0.939404 0.422428 0.619136
C9    C     C_R   0.925729 0.931202 0.578192 0.251376
C10   C     C_R   0.074270 0.068797 0.421808 0.251375
C11   C     C_R   0.997720 0.871075 0.500351 -0.389823
C12   C     C_R   0.002280 0.128925 0.499649 -0.389823
C13   C     C_R   0.556304 0.409076 0.547292 0.398650
C14   C     C_R   0.443696 0.590924 0.452708 0.398649
C15   C     C_R   0.410399 0.406810 0.544910 0.399926
C16   C     C_R   0.589601 0.593190 0.455090 0.399927
C17   C     C_R   0.918863 0.496743 0.672872 0.939662
C18   C     C_R   0.081137 0.503257 0.327128 0.939663
C19   C     C_R   0.873160 0.483713 0.773575 -0.335441
C20   C     C_R   0.126839 0.516287 0.226424 -0.335441
C21   C     C_R   0.904262 0.406600 0.919572 0.740909
C22   C     C_R   0.095738 0.593400 0.080428 0.740909
C23   C     C_R   0.955968 0.421743 0.825871 0.278801
C24   C     C_R   0.044032 0.578257 0.174129 0.278801
C25   C     C_R   0.735905 0.524990 0.818059 0.684733
C26   C     C_R   0.264095 0.475010 0.181941 0.684733
C27   C     C_R   0.672647 0.488386 0.909558 -0.144958
C28   C     C_R   0.327353 0.511614 0.090442 -0.144958
C29   C     C_R   0.763994 0.441691 0.962168 -0.323624
C30   C     C_R   0.236006 0.558308 0.037832 -0.323624
C31   C     C_R   0.523905 0.503321 0.951727 -0.092843
C32   C     C_R   0.476095 0.496679 0.048272 -0.092843
Cu1   Cu    Cu3+1 0.140660 0.500020 0.500000 1.164159
Cu2   Cu    Cu3+1 0.859340 0.499980 0.500000 1.164159
N1    N     N_R   0.352080 0.500030 0.499980 -0.296067
N2    N     N_R   0.647920 0.499970 0.500020 -0.296068
O1    O     O_R   0.118740 0.319660 0.500000 -0.525575
O2    O     O_R   0.881260 0.680340 0.500000 -0.525574
O3    O     O_R   0.881170 0.319630 0.500010 -0.545640
O4    O     O_R   0.118830 0.680370 0.499990 -0.545641
O5    O     O_R   0.055570 0.500030 0.629830 -0.541962
O6    O     O_R   0.944430 0.499970 0.370170 -0.541962
O7    O     O_R   0.818000 0.500000 0.629840 -0.502155
O8    O     O_R   0.182000 0.500000 0.370160 -0.502155
F1    F     F_    0.808462 0.410170 0.108369 -0.541464
F2    F     F_    0.191538 0.589830 0.891631 -0.541464
F3    F     F_    0.328094 0.387370 0.225351 -0.556994
F4    F     F_    0.671906 0.612630 0.774649 -0.556994
Cl1   Cl    Cl    0.875158 0.639802 0.221021 -0.304701
Cl2   Cl    Cl    0.124842 0.360198 0.778979 -0.304701
F5    F     F_    0.990745 0.353997 0.968440 -0.531270
F6    F     F_    0.009255 0.646003 0.031560 -0.531270
Cl3   Cl    Cl    0.557141 0.533106 0.208196 -0.347130
Cl4   Cl    Cl    0.442859 0.466894 0.791804 -0.347130
F7    F     F_    0.861943 0.119826 0.653227 -0.549513
F8    F     F_    0.138056 0.880174 0.346773 -0.549513
Cl5   Cl    Cl    0.835731 0.846657 0.677816 -0.348478
Cl6   Cl    Cl    0.164266 0.153343 0.322183 -0.348478
Cl7   Cl    Cl    0.614884 0.295818 0.617346 -0.333216
Cl8   Cl    Cl    0.385116 0.704182 0.382654 -0.333216
Cl9   Cl    Cl    0.311349 0.274313 0.595866 -0.354903
Cl10  Cl    Cl    0.688651 0.725687 0.404134 -0.354902

loop_
_geom_bond_atom_site_label_1
_geom_bond_atom_site_label_2
_ccdc_geom_bond_type
C18   C20   S    
C19   C23   A    
C17   O7    A    
C13   Cl7   S    
C18   O8    A    
C27   C29   A    
C14   Cl8   S    
C2    O2    A    
C26   C28   A    
C31   C32   A    
Cu2   O6    S    
C13   C15   A    
C7    F7    S    
C21   F5    S    
Cu1   O5    S    
C8    F8    S    
C28   C30   A    
Cu1   Cu2   S    
C15   Cl9   S    
C3    C5    A    
C20   C26   A    
C5    F1    S    
C6    C30   A    
C16   N2    A    
C9    C11   A    
C25   F4    S    
C3    Cl3   S    
C7    C12   A    
C1    C12   S    
C10   C12   A    
C26   F3    S    
C8    C11   A    
C2    C11   S    
C24   Cl1   S    
C22   C24   A    
C15   N1    A    
Cu1   N1    S    
Cu2   N2    S    
Cu1   O1    S    
C5    C29   A    
C18   O6    A    
C21   C23   A    
C6    F2    S    
C3    C32   A    
C19   C25   A    
C14   C16   A    
Cu1   O4    S    
C25   C27   A    
C1    O3    A    
C27   C31   A    
Cu2   O3    S    
C4    C31   A    
C2    O4    A    
C28   C32   A    
C13   N2    A    
C22   F6    S    
C4    C6    A    
C14   N1    A    
C7    C9    A    
C9    Cl5   S    
C23   Cl2   S    
C22   C30   A    
C17   O5    A    
C17   C19   S    
Cu2   O2    S    
Cu1   O8    S    
C21   C29   A    
C16   Cl10  S    
C8    C10   A    
C4    Cl4   S    
Cu2   O7    S    
C20   C24   A    
C1    O1    A    
C10   Cl6   S    
