data_mof_unit_8352.cif
_audit_creation_date              2012-12-11T15:48:01-0500
_audit_creation_method            fapswitch 2.2
_symmetry_space_group_name_H-M    P1
_symmetry_Int_Tables_number       1
_space_group_crystal_system       triclinic
_cell_length_a                    6.932344
_cell_length_b                    17.594436
_cell_length_c                    19.445901
_cell_angle_alpha                 108.49979
_cell_angle_beta                  89.541953
_cell_angle_gamma                 90.591651
_cell_volume                      2249.11732926

loop_
_atom_site_label
_atom_site_type_symbol
_atom_type_description
_atom_site_fract_x
_atom_site_fract_y
_atom_site_fract_z
_atom_type_partial_charge
O1    O     O_R   0.494330 0.415710 0.413720 -0.535653
O2    O     O_R   0.819360 0.430070 0.560210 -0.546215
O3    O     O_R   0.994320 0.584290 0.586280 -0.545705
C1    C     C_R   0.650189 0.415303 0.582138 0.695914
O4    O     O_R   0.823740 0.406290 0.412670 -0.545772
O5    O     O_R   0.998730 0.560340 0.437690 -0.538858
C2    C     C_R   0.654764 0.383124 0.384674 0.719920
O6    O     O_R   0.489920 0.439660 0.562310 -0.543937
O7    O     O_3   0.662330 0.550570 0.508380 -0.363779
V1    V     V_3+5 0.935370 0.490620 0.498440 1.421485
O8    O     O_R   0.328720 0.569930 0.439790 -0.503981
C3    C     C_R   0.160974 0.584666 0.417766 0.779232
O9    O     O_R   0.324340 0.593710 0.587330 -0.548746
C4    C     C_R   0.155187 0.616883 0.615316 0.667101
V2    V     V_3+5 0.435940 0.509380 0.501560 1.464606
O10   O     O_3   0.159110 0.449430 0.491620 -0.379440
C5    C     C_R   0.312249 0.723880 0.718536 -0.156815
H1    H     H_    0.453119 0.704838 0.695404 0.115444
C6    C     C_R   0.301013 0.787671 0.783494 -0.152672
H2    H     H_    0.433818 0.815914 0.808272 0.118499
C7    C     C_R   0.121236 0.814649 0.815866 -0.046308
C8    C     C_R   0.953023 0.776048 0.781393 -0.156651
H3    H     H_    0.812145 0.795084 0.804519 0.116630
C9    C     C_R   0.964259 0.712263 0.716440 -0.152255
H4    H     H_    0.831441 0.684026 0.691668 0.117592
C10   C     C_R   0.144028 0.685283 0.684064 -0.041660
C11   C     C_R   0.309024 0.632770 0.319919 0.552840
C12   C     C_R   0.154363 0.633525 0.367869 -0.203292
C13   C     C_R   0.991550 0.680546 0.367397 -0.267516
C14   C     C_R   0.982900 0.727234 0.320810 0.094802
C15   C     C_R   0.137293 0.725798 0.272681 -0.029038
C16   C     C_R   0.300386 0.678075 0.271908 -0.022083
C17   C     C_R   0.822466 0.775554 0.321601 -0.149049
C18   C     C_R   0.813796 0.821403 0.274591 -0.199401
C19   C     C_R   0.965189 0.819687 0.225785 0.092936
C20   C     C_R   0.128399 0.772134 0.225144 0.087590
C21   C     C_R   0.282845 0.770943 0.177100 0.096319
C22   C     C_R   0.442988 0.722531 0.176079 -0.216957
C23   C     C_R   0.451534 0.676441 0.222835 -0.124346
C24   C     C_R   0.956630 0.864915 0.177886 -0.224944
C25   C     C_R   0.111465 0.864999 0.130588 -0.085442
C26   C     C_R   0.274517 0.818080 0.130883 -0.220673
H5    H     H_    0.872271 0.681656 0.404108 0.170073
H6    H     H_    0.702842 0.777538 0.358329 0.133852
H7    H     H_    0.687840 0.857883 0.276125 0.134348
H8    H     H_    0.830979 0.901292 0.178405 0.125109
H9    H     H_    0.394038 0.817419 0.094392 0.129614
H10   H     H_    0.562582 0.720654 0.139358 0.137333
H11   H     H_    0.577793 0.640021 0.220832 0.188342
C27   C     C_R   0.784459 0.181562 0.866043 -0.219878
C28   C     C_R   0.622670 0.133287 0.867913 -0.083108
C29   C     C_R   0.465649 0.131746 0.821894 -0.217448
C30   C     C_R   0.469502 0.177279 0.774276 0.089038
C31   C     C_R   0.630655 0.226608 0.773605 0.053606
C32   C     C_R   0.788276 0.229039 0.819899 0.089788
C33   C     C_R   0.314902 0.174379 0.727289 -0.186343
C34   C     C_R   0.318351 0.220911 0.680740 -0.186549
C35   C     C_R   0.476514 0.271168 0.680279 0.090981
C36   C     C_R   0.634128 0.273603 0.726574 0.053568
C37   C     C_R   0.795293 0.322919 0.725890 0.087435
C38   C     C_R   0.949891 0.325813 0.772873 -0.184297
C39   C     C_R   0.946445 0.279287 0.819429 -0.182710
C40   C     C_R   0.480348 0.318633 0.634127 -0.224320
C41   C     C_R   0.642158 0.366885 0.632235 -0.079117
C42   C     C_R   0.799173 0.368430 0.678252 -0.217218
H12   H     H_    0.905575 0.183376 0.901489 0.128632
H13   H     H_    0.340952 0.094225 0.822507 0.123887
H14   H     H_    0.190372 0.136501 0.726899 0.134078
H15   H     H_    0.196519 0.217936 0.645383 0.134320
H16   H     H_    0.359242 0.316813 0.598679 0.125653
H17   H     H_    0.923891 0.405925 0.677613 0.123905
H18   H     H_    0.074427 0.363674 0.773249 0.135222
H19   H     H_    0.068290 0.282252 0.854778 0.136646
C43   C     C_R   0.811542 0.276284 0.281587 -0.151701
H20   H     H_    0.952203 0.295430 0.304834 0.116155
C44   C     C_R   0.800446 0.212495 0.216626 -0.148729
H21   H     H_    0.933093 0.184359 0.191963 0.118578
C45   C     C_R   0.620985 0.185380 0.184111 -0.047969
C46   C     C_R   0.452925 0.223850 0.218434 -0.153640
H22   H     H_    0.312273 0.204699 0.195181 0.117110
C47   C     C_R   0.464023 0.287646 0.283398 -0.135110
H23   H     H_    0.331389 0.315792 0.308066 0.119429
C48   C     C_R   0.643488 0.314745 0.315919 -0.046897
O11   O     O_R   0.774940 0.060470 0.937800 -0.539216
O12   O     O_R   0.440880 0.093730 0.087350 -0.542822
O13   O     O_R   0.266130 0.939630 0.062280 -0.539800
C49   C     C_R   0.609800 0.116969 0.115375 0.688293
O14   O     O_R   0.445480 0.069960 0.939820 -0.542087
O15   O     O_R   0.270770 0.915690 0.913690 -0.542047
C50   C     C_R   0.614662 0.084810 0.917959 0.713766
O16   O     O_R   0.770300 0.084410 0.086380 -0.541864
O17   O     O_3   0.602600 0.949510 0.991670 -0.370505
V3    V     V_3+5 0.329470 0.009370 0.001550 1.401198
O18   O     O_R   0.940760 0.906160 0.912560 -0.543864
C51   C     C_R   0.109978 0.883047 0.884613 0.684379
O19   O     O_R   0.936150 0.929930 0.060100 -0.542099
C52   C     C_R   0.104097 0.914743 0.081655 0.712841
V4    V     V_3+5 0.828930 0.990450 0.998310 1.399943
O20   O     O_3   0.105670 0.050490 0.008320 -0.369056
F1    F     F_    0.465709 0.586454 0.318591 -0.698445

loop_
_geom_bond_atom_site_label_1
_geom_bond_atom_site_label_2
_ccdc_geom_bond_type
C45   C49   S    
C2    C48   S    
C49   O16   A    
C25   C26   A    
O12   V3    S    
C19   C20   A    
C43   C48   A    
C1    O6    A    
C47   H23   S    
O17   V4    S    
C30   C31   A    
C24   H8    S    
C21   C22   A    
C43   C44   A    
C3    C12   S    
C5    C10   A    
C12   C13   A    
C6    C7    A    
C44   C45   A    
C15   C20   A    
C28   C50   S    
O5    C3    A    
C14   C15   A    
O18   V4    S    
V2    O10   S    
C32   C39   A    
C33   C34   A    
C5    H1    S    
C18   C19   A    
C16   C23   A    
C21   C26   A    
O13   C52   A    
O14   V3    S    
O8    V2    S    
C6    H2    S    
O19   V4    S    
C39   H19   S    
O1    V2    S    
O7    V1    S    
V3    O20   S    
C22   H10   S    
C36   C37   A    
O9    C4    A    
C13   H5    S    
C38   C39   A    
O11   C50   A    
C47   C48   A    
C27   C28   A    
C31   C36   A    
O12   C49   A    
C11   F1    S    
C43   H20   S    
C28   C29   A    
C9    H4    S    
C46   C47   A    
C45   C46   A    
C7    C51   S    
C35   C36   A    
C33   H14   S    
C4    C10   S    
C46   H22   S    
C37   C38   A    
O15   C51   A    
O2    C1    A    
C13   C14   A    
O13   V3    S    
C15   C16   A    
C40   H16   S    
O19   C52   A    
C17   C18   A    
C18   H7    S    
C44   H21   S    
C27   H12   S    
O3    C4    A    
C38   H18   S    
C24   C25   A    
C23   H11   S    
O14   C50   A    
C37   C42   A    
O6    V2    S    
O9    V2    S    
C25   C52   S    
O2    V1    S    
C29   C30   A    
O4    C2    A    
C30   C33   A    
C35   C40   A    
C31   C32   A    
C20   C21   A    
C14   C17   A    
C11   C16   A    
O1    C2    A    
C17   H6    S    
C9    C10   A    
O5    V1    S    
O8    C3    A    
C1    C41   S    
C27   C32   A    
O11   V4    S    
C41   C42   A    
C19   C24   A    
O7    V2    S    
O4    V1    S    
O3    V1    S    
C42   H17   S    
C34   C35   A    
C22   C23   A    
C29   H13   S    
O17   V3    S    
C5    C6    A    
C8    C9    A    
C26   H9    S    
O16   V4    S    
O15   V3    S    
O18   C51   A    
C40   C41   A    
V4    O20   S    
C11   C12   A    
C8    H3    S    
V1    O10   S    
C34   H15   S    
C7    C8    A    
