data_mof_unit_42527.cif
_audit_creation_date              2012-12-11T14:10:55-0500
_audit_creation_method            fapswitch 2.2
_symmetry_space_group_name_H-M    P1
_symmetry_Int_Tables_number       1
_space_group_crystal_system       triclinic
_cell_length_a                    19.716471
_cell_length_b                    17.215631
_cell_length_c                    15.418115
_cell_angle_alpha                 89.999405
_cell_angle_beta                  52.489059
_cell_angle_gamma                 90.000632
_cell_volume                      4151.32195984

loop_
_atom_site_label
_atom_site_type_symbol
_atom_type_description
_atom_site_fract_x
_atom_site_fract_y
_atom_site_fract_z
_atom_type_partial_charge
C1    C     C_R   0.374225 0.196966 0.995120 -0.091866
C2    C     C_3   0.754102 0.774346 0.447627 -0.022900
C3    C     C_3   0.662638 0.278585 0.467048 -0.022131
C4    C     C_3   0.337311 0.721487 0.533014 -0.022080
C5    C     C_3   0.837505 0.778823 0.532753 -0.022094
C6    C     C_3   0.162620 0.221371 0.467086 -0.022149
C7    C     C_3   0.254229 0.725343 0.447441 -0.022847
C8    C     C_3   0.745804 0.274592 0.552512 -0.022863
C9    C     C_2   0.190533 0.743232 0.095022 -0.196167
C10   C     C_2   0.809469 0.256767 0.904976 -0.196206
C11   C     C_2   0.713448 0.687437 0.045803 -0.198796
C12   C     C_R   0.625778 0.803034 0.004877 -0.091950
C13   C     C_2   0.286550 0.312561 0.954202 -0.198701
C14   C     C_2   0.786556 0.187436 0.954192 -0.198699
C15   C     C_2   0.213444 0.812563 0.045808 -0.198661
C16   C     C_2   0.309463 0.243232 0.904985 -0.196191
C17   C     C_2   0.690539 0.756768 0.095015 -0.196083
C18   C     C_R   0.391230 0.802701 0.213673 -0.134907
C19   C     C_R   0.608765 0.197300 0.786328 -0.135051
C20   C     C_R   0.651958 0.828911 0.778868 -0.101545
C21   C     C_R   0.348031 0.171075 0.221124 -0.101477
C22   C     C_R   0.848021 0.328934 0.221121 -0.101503
C23   C     C_R   0.660841 0.175032 0.950898 -0.100164
C24   C     C_R   0.151978 0.671066 0.778883 -0.101496
C25   C     C_R   0.108761 0.302701 0.786330 -0.135110
C26   C     C_R   0.891280 0.697310 0.213650 -0.134876
C27   C     C_R   0.329781 0.913220 0.951219 -0.133278
C28   C     C_R   0.670219 0.086779 0.048781 -0.133331
C29   C     C_R   0.634607 0.889947 0.103091 -0.149147
C30   C     C_R   0.365393 0.110053 0.896908 -0.149153
C31   C     C_R   0.865395 0.389947 0.896906 -0.149158
C32   C     C_R   0.134606 0.610052 0.103093 -0.149197
C33   C     C_R   0.170217 0.413219 0.048785 -0.133330
C34   C     C_R   0.339159 0.824967 0.049101 -0.100143
C35   C     C_R   0.829781 0.586780 0.951219 -0.133369
C36   C     C_R   0.356608 0.079034 0.316907 -0.123074
C37   C     C_R   0.643375 0.920953 0.683086 -0.122803
C38   C     C_R   0.601903 0.105065 0.690043 -0.103556
C39   C     C_R   0.398089 0.894936 0.309961 -0.103617
C40   C     C_R   0.898152 0.605076 0.309927 -0.103263
C41   C     C_R   0.101896 0.394936 0.690046 -0.103509
C42   C     C_R   0.143406 0.579026 0.683099 -0.123168
C43   C     C_R   0.856596 0.420976 0.316901 -0.123033
C44   C     C_R   0.346790 0.185694 0.932769 0.151134
C45   C     C_R   0.839159 0.675029 0.049104 -0.100118
C46   C     C_R   0.653212 0.814306 0.067228 0.151114
C47   C     C_R   0.712680 0.147955 0.976534 0.152941
C48   C     C_R   0.287321 0.852044 0.023465 0.152912
C49   C     C_R   0.787321 0.647954 0.023465 0.152933
C50   C     C_R   0.212676 0.352043 0.976541 0.152934
C51   C     C_R   0.153207 0.685695 0.067235 0.151165
C52   C     C_R   0.846793 0.314305 0.932765 0.151153
C53   C     C_R   0.375228 0.819743 0.311537 0.077060
C54   C     C_R   0.624758 0.180260 0.688469 0.076993
C55   C     C_R   0.693615 0.862318 0.676699 0.121588
C56   C     C_R   0.160839 0.324967 0.950903 -0.100195
C57   C     C_R   0.306356 0.137655 0.323289 0.121605
C58   C     C_R   0.806337 0.362360 0.323282 0.121655
C59   C     C_R   0.193667 0.637639 0.676722 0.121643
C60   C     C_R   0.124748 0.319741 0.688474 0.076992
C61   C     C_R   0.875336 0.680280 0.311482 0.077122
C62   C     C_3   0.209734 0.151152 0.539231 -0.208333
C63   C     C_3   0.790073 0.848790 0.460799 -0.208414
C64   C     C_3   0.698490 0.204244 0.481103 -0.202250
C65   C     C_3   0.301422 0.795777 0.518919 -0.202183
C66   C     C_3   0.801818 0.704311 0.518797 -0.202207
C67   C     C_R   0.125774 0.696967 0.004883 -0.091866
C68   C     C_3   0.198440 0.295749 0.481116 -0.202240
C69   C     C_3   0.290396 0.651112 0.460761 -0.208314
C70   C     C_3   0.709673 0.348872 0.539234 -0.208295
C71   C     C_3   0.717693 0.746741 0.562613 -0.208420
C72   C     C_3   0.282427 0.253113 0.437449 -0.208291
C73   C     C_3   0.375260 0.694429 0.415619 -0.202406
C74   C     C_3   0.624759 0.305625 0.584431 -0.202376
C75   C     C_3   0.124787 0.194345 0.584460 -0.202431
C76   C     C_3   0.875156 0.805805 0.415423 -0.202684
C77   C     C_3   0.782442 0.246934 0.437471 -0.208321
C78   C     C_R   0.874225 0.303033 0.995118 -0.091833
C79   C     C_3   0.217520 0.753019 0.562496 -0.208359
C80   C     C_3   0.754204 0.820806 0.576260 0.086669
C81   C     C_3   0.245786 0.179183 0.423724 0.086468
C82   C     C_3   0.337312 0.767836 0.403543 0.102103
C83   C     C_3   0.662672 0.232166 0.596464 0.102137
C84   C     C_3   0.162668 0.267840 0.596467 0.102143
C85   C     C_3   0.837404 0.732176 0.403493 0.102167
C86   C     C_3   0.745771 0.320828 0.423718 0.086427
C87   C     C_3   0.254227 0.679176 0.576290 0.086411
C88   C     C_2   0.294066 0.228979 0.598914 0.995486
C89   C     C_3   0.245835 0.225467 0.552481 -0.022880
C90   C     C_2   0.705757 0.770622 0.401361 0.995435
C91   C     C_2   0.615445 0.281224 0.419370 0.982865
C92   C     C_2   0.384458 0.718932 0.580753 0.982769
C93   C     C_2   0.884808 0.781735 0.580271 0.983031
C94   C     C_2   0.115404 0.218674 0.419441 0.982917
C95   C     C_2   0.206069 0.728715 0.400908 0.995439
C96   C     C_2   0.794004 0.271149 0.598990 0.995421
H1    H     H_    0.381484 0.251633 0.022986 0.076020
H2    H     H_    0.610474 0.254044 0.815020 0.091533
H3    H     H_    0.671569 0.778029 0.799377 0.111616
H4    H     H_    0.328426 0.221960 0.200614 0.111722
H5    H     H_    0.828416 0.278048 0.200613 0.111750
H6    H     H_    0.171581 0.721953 0.799392 0.111757
H7    H     H_    0.110474 0.245957 0.815021 0.091523
H8    H     H_    0.889559 0.754051 0.184959 0.091287
H9    H     H_    0.309441 0.946943 0.911595 0.105242
H10   H     H_    0.690559 0.053056 0.088405 0.105183
H11   H     H_    0.638233 0.916032 0.163999 0.118407
H12   H     H_    0.618521 0.748367 0.977008 0.076028
H13   H     H_    0.361767 0.083968 0.836000 0.118474
H14   H     H_    0.861770 0.416033 0.835997 0.118438
H15   H     H_    0.138231 0.583966 0.164001 0.118449
H16   H     H_    0.190557 0.446941 0.088409 0.105248
H17   H     H_    0.809441 0.553058 0.911594 0.105223
H18   H     H_    0.345495 0.044927 0.383212 0.108201
H19   H     H_    0.654482 0.955066 0.616789 0.108157
H20   H     H_    0.596356 0.077093 0.631838 0.099839
H21   H     H_    0.403633 0.922906 0.368169 0.099903
H22   H     H_    0.903702 0.577095 0.368124 0.099649
H23   H     H_    0.670786 0.224335 0.901328 0.099047
H24   H     H_    0.096351 0.422910 0.631841 0.099793
H25   H     H_    0.154525 0.544920 0.616790 0.108262
H26   H     H_    0.845477 0.455088 0.383206 0.108244
H27   H     H_    0.652357 0.723046 0.623551 0.143301
H28   H     H_    0.347837 0.276687 0.376584 0.143461
H29   H     H_    0.441057 0.672366 0.353301 0.142339
H30   H     H_    0.558985 0.327729 0.646783 0.142349
H31   H     H_    0.059029 0.172209 0.646833 0.142334
H32   H     H_    0.940843 0.828062 0.352978 0.142353
H33   H     H_    0.847869 0.223391 0.376626 0.143474
H34   H     H_    0.329215 0.775664 0.098671 0.099042
H35   H     H_    0.152070 0.776519 0.623307 0.143502
H36   H     H_    0.214565 0.091358 0.561975 0.148449
H37   H     H_    0.785067 0.908534 0.438083 0.148390
H38   H     H_    0.693928 0.144752 0.457288 0.132227
H39   H     H_    0.305917 0.855286 0.542743 0.132301
H40   H     H_    0.806615 0.644882 0.542561 0.132263
H41   H     H_    0.193832 0.355229 0.457307 0.132289
H42   H     H_    0.285670 0.591288 0.438011 0.148508
H43   H     H_    0.714459 0.408680 0.561979 0.148515
H44   H     H_    0.211915 0.723014 0.141308 0.148931
H45   H     H_    0.829213 0.724328 0.098679 0.098936
H46   H     H_    0.788090 0.276983 0.858685 0.148994
H47   H     H_    0.690059 0.666431 0.002153 0.128721
H48   H     H_    0.309937 0.333566 0.997855 0.128721
H49   H     H_    0.809942 0.166431 0.997845 0.128689
H50   H     H_    0.190055 0.833570 0.002158 0.128694
H51   H     H_    0.288083 0.223017 0.858695 0.149028
H52   H     H_    0.711920 0.776985 0.141302 0.148990
H53   H     H_    0.354975 0.295609 0.639433 0.338569
H54   H     H_    0.645178 0.703698 0.360621 0.338423
H55   H     H_    0.609426 0.322901 0.302030 0.329155
H56   H     H_    0.170782 0.275665 0.901334 0.099035
H57   H     H_    0.390489 0.677278 0.698091 0.329146
H58   H     H_    0.890843 0.823617 0.697509 0.329164
H59   H     H_    0.109376 0.176943 0.302132 0.329157
H60   H     H_    0.145212 0.795190 0.360180 0.338732
H61   H     H_    0.854929 0.204602 0.639562 0.338598
H62   H     H_    0.118514 0.751635 0.977018 0.075994
H63   H     H_    0.881485 0.248365 0.022984 0.075989
H64   H     H_    0.389523 0.745957 0.184980 0.091470
N1    N     N_R   0.408680 0.130810 0.995780 -0.043813
N2    N     N_R   0.578590 0.132790 0.846380 -0.038831
N3    N     N_R   0.578590 0.867210 0.846380 -0.054673
N4    N     N_R   0.421410 0.132790 0.153620 -0.054691
N5    N     N_R   0.921410 0.367210 0.153620 -0.054696
N6    N     N_R   0.078590 0.632790 0.846380 -0.054696
N7    N     N_R   0.078590 0.367210 0.846380 -0.038817
N8    N     N_R   0.921410 0.632790 0.153620 -0.038798
N9    N     N_R   0.403840 0.921910 0.935760 -0.044996
N10   N     N_R   0.596160 0.078090 0.064240 -0.044992
N11   N     N_R   0.596160 0.921910 0.064240 -0.043252
N12   N     N_R   0.591320 0.869190 0.004220 -0.043802
N13   N     N_R   0.403840 0.078090 0.935760 -0.043268
N14   N     N_R   0.903840 0.421910 0.935760 -0.043257
N15   N     N_R   0.096160 0.578090 0.064240 -0.043269
N16   N     N_R   0.096160 0.421910 0.064240 -0.044999
N17   N     N_R   0.903840 0.578090 0.935760 -0.044997
N18   N     N_R   0.426250 0.076100 0.213650 -0.047095
N19   N     N_R   0.573750 0.923900 0.786350 -0.047108
N20   N     N_R   0.573750 0.076100 0.786350 -0.040703
N21   N     N_R   0.426250 0.923900 0.213650 -0.040702
N22   N     N_R   0.926250 0.576100 0.213650 -0.040696
N23   N     N_R   0.591320 0.130810 0.004220 -0.050999
N24   N     N_R   0.073750 0.423900 0.786350 -0.040688
N25   N     N_R   0.073750 0.576100 0.786350 -0.047106
N26   N     N_R   0.926250 0.423900 0.213650 -0.047117
N27   N     N_R   0.408680 0.869190 0.995780 -0.051004
N28   N     N_R   0.908680 0.630810 0.995780 -0.050988
N29   N     N_R   0.091320 0.369190 0.004220 -0.050990
N30   N     N_R   0.091320 0.630810 0.004220 -0.043813
N31   N     N_R   0.908680 0.369190 0.995780 -0.043804
N32   N     N_R   0.421410 0.867210 0.153620 -0.038839
Ni1   Ni    Ni4+2 0.500000 0.131570 0.000000 0.215239
Ni2   Ni    Ni4+2 0.500000 0.868430 0.000000 0.215254
Ni3   Ni    Ni4+2 0.000000 0.631570 0.000000 0.215212
Ni4   Ni    Ni4+2 0.000000 0.368430 0.000000 0.215233
Ni5   Ni    Ni4+2 0.488900 1.000000 0.862310 0.231925
Ni6   Ni    Ni4+2 0.511100 1.000000 0.137690 0.231885
Ni7   Ni    Ni4+2 0.988900 0.500000 0.862310 0.231822
Ni8   Ni    Ni4+2 0.011100 0.500000 0.137690 0.231841
O1    O     O_2   0.306670 0.169598 0.630605 -0.655206
O2    O     O_R   0.853388 0.826665 0.673117 -0.806549
O3    O     O_2   0.049377 0.255862 0.462374 -0.630923
O4    O     O_R   0.146759 0.173736 0.326622 -0.806592
O5    O     O_2   0.193537 0.669276 0.369253 -0.655394
O6    O     O_R   0.175993 0.800065 0.393830 -0.782686
O7    O     O_2   0.806537 0.330559 0.630709 -0.655330
O8    O     O_R   0.824115 0.199773 0.605949 -0.782769
O9    O     O_R   0.324130 0.300391 0.605855 -0.782846
O10   O     O_2   0.692637 0.829979 0.370167 -0.654708
O11   O     O_R   0.676159 0.699046 0.394032 -0.783105
O12   O     O_2   0.549441 0.244001 0.462289 -0.630877
O13   O     O_R   0.646792 0.326149 0.326541 -0.806610
O14   O     O_2   0.450362 0.756278 0.537949 -0.630703
O15   O     O_R   0.353176 0.673949 0.673514 -0.806644
O16   O     O_2   0.950960 0.744726 0.537215 -0.630967

loop_
_geom_bond_atom_site_label_1
_geom_bond_atom_site_label_2
_ccdc_geom_bond_type
C27   C48   A    
C95   O5    D    
C40   H22   S    
N11   N12   A    
C28   C47   A    
C35   N17   A    
C65   C79   S    
C32   H15   S    
N10   N23   A    
C8    C83   S    
C64   C77   S    
N12   Ni2   S    
C9    C51   S    
C65   H39   S    
H57   O15   S    
C74   C83   S    
C10   C52   S    
N15   N30   A    
C79   C87   S    
N16   Ni8   S    
C67   N30   A    
C6    C75   S    
C12   N12   A    
C4    C87   S    
C39   C53   A    
C3    C64   S    
C25   N7    A    
C23   N23   A    
C14   H49   S    
C18   N32   A    
N14   Ni7   S    
C26   N8    A    
C22   H5    S    
C2    C85   S    
C16   H51   S    
C63   H37   S    
C71   H27   S    
C26   C61   A    
H53   O9    S    
N11   Ni6   S    
C23   H23   S    
C90   O11   S    
N21   N32   A    
C75   C84   S    
C96   O8    S    
C12   H12   S    
C63   C76   S    
C27   H9    S    
N6    N25   A    
C62   C89   S    
C38   H20   S    
N2    Ni1   S    
C92   O15   S    
C3    C91   S    
N7    Ni4   S    
C13   H48   S    
C33   N16   A    
C3    C74   S    
C70   C74   S    
C71   C80   S    
N20   Ni5   S    
C18   C53   A    
C26   H8    S    
N31   Ni4   S    
C22   N5    A    
C65   C82   S    
N7    N24   A    
N28   Ni3   S    
C28   H10   S    
C6    C94   S    
N8    Ni3   S    
C8    C96   S    
C35   C49   A    
C7    C79   S    
C41   N24   A    
C69   C73   S    
C25   C60   A    
C88   O1    D    
C56   H56   S    
H60   O6    S    
C27   N9    A    
C30   N13   A    
N2    N20   A    
C72   C81   S    
C69   C87   S    
N14   N31   A    
C95   O6    S    
C6    C68   S    
N18   Ni6   S    
C36   H18   S    
C70   H43   S    
C21   N4    A    
C72   H28   S    
C93   O16   D    
C45   H45   S    
C30   C44   A    
C68   H41   S    
H61   O8    S    
C15   C48   S    
C66   C85   S    
C20   C55   A    
C52   C78   A    
N21   Ni6   S    
C58   C86   S    
C54   C83   S    
H58   O2    S    
C19   H2    S    
C40   N22   A    
C63   C80   S    
N23   Ni1   S    
C37   N19   A    
C32   N15   A    
C64   H38   S    
C38   N20   A    
C30   H13   S    
N13   Ni5   S    
C68   C84   S    
N22   Ni8   S    
C62   H36   S    
C17   H52   S    
C36   N18   A    
N6    Ni3   S    
N9    N27   A    
C12   C46   A    
C36   C57   A    
C10   C14   D    
C1    H1    S    
C90   O10   D    
C21   H4    S    
N4    Ni1   S    
C25   H7    S    
C96   O7    D    
C77   H33   S    
N19   Ni5   S    
N3    Ni2   S    
C33   C50   A    
C39   H21   S    
C20   N3    A    
H55   O13   S    
C29   N11   A    
C40   C61   A    
C53   C82   S    
C19   N2    A    
N32   Ni2   S    
C24   N6    A    
C64   C83   S    
C21   C57   A    
C11   C49   S    
N1    N13   A    
C1    C44   A    
C66   C71   S    
C38   C54   A    
C45   C49   A    
C68   C72   S    
N24   Ni7   S    
C79   H35   S    
N1    Ni1   S    
C33   H16   S    
C51   C67   A    
C17   C46   S    
C5    C80   S    
C92   O14   D    
C93   O2    S    
N17   N28   A    
C43   H26   S    
C4    C73   S    
C39   N21   A    
C61   C85   S    
N30   Ni3   S    
C66   H40   S    
C19   C54   A    
C28   N10   A    
C62   C81   S    
C77   C86   S    
N8    N22   A    
C88   O9    S    
N27   Ni2   S    
N3    N19   A    
C8    C77   S    
C76   H32   S    
C57   C81   S    
C62   C75   S    
C94   O4    S    
C84   C89   S    
H59   O4    S    
C70   C86   S    
N5    Ni4   S    
C73   C82   S    
N10   Ni6   S    
N4    N18   A    
C2    C63   S    
C42   N25   A    
N9    Ni5   S    
C32   C51   A    
C69   H42   S    
C16   C44   S    
C56   N29   A    
C11   C17   D    
C78   N31   A    
N5    N26   A    
C41   C60   A    
C91   O12   D    
C42   C59   A    
C22   C58   A    
C15   H50   S    
C5    C93   S    
C45   N28   A    
C14   C47   S    
C37   H19   S    
C7    C95   S    
C8    C70   S    
N25   Ni7   S    
C43   N26   A    
C31   C52   A    
C29   C46   A    
H54   O11   S    
C23   C47   A    
C7    C69   S    
C9    C15   D    
C91   O13   S    
C50   C56   A    
C5    C66   S    
C55   C80   S    
C60   C84   S    
N29   Ni4   S    
N16   N29   A    
C74   H30   S    
C20   H3    S    
C5    C76   S    
C24   C59   A    
C73   H29   S    
C4    C65   S    
C9    H44   S    
C31   H14   S    
C35   H17   S    
C67   H62   S    
C24   H6    S    
C41   H24   S    
C34   N27   A    
C59   C87   S    
N15   Ni8   S    
C18   H64   S    
C1    N1    A    
C13   C50   S    
C37   C55   A    
C3    C86   S    
C78   H63   S    
C7    C82   S    
C34   C48   A    
C88   C89   S    
C34   H34   S    
C2    C90   S    
N17   Ni7   S    
C13   C16   D    
C6    C81   S    
N26   Ni8   S    
C43   C58   A    
C29   H11   S    
C72   C89   S    
C94   O3    D    
C4    C92   S    
C11   H47   S    
C76   C85   S    
C31   N14   A    
C2    C71   S    
C42   H25   S    
C10   H46   S    
C75   H31   S    
