data_mof_unit_57863.cif
_audit_creation_date              2012-12-10T20:51:46-0500
_audit_creation_method            fapswitch 2.2
_symmetry_space_group_name_H-M    P1
_symmetry_Int_Tables_number       1
_space_group_crystal_system       triclinic
_cell_length_a                    8.114934
_cell_length_b                    8.92323
_cell_length_c                    16.613143
_cell_angle_alpha                 89.593826
_cell_angle_beta                  95.805839
_cell_angle_gamma                 90.131931
_cell_volume                      1196.77891759

loop_
_atom_site_label
_atom_site_type_symbol
_atom_type_description
_atom_site_fract_x
_atom_site_fract_y
_atom_site_fract_z
_atom_type_partial_charge
C1    C     C_R   0.499882 0.218030 0.500138 0.975903
C2    C     C_R   0.490879 0.355282 0.135371 -0.089803
C3    C     C_R   0.580657 0.521139 0.908711 0.098679
C4    C     C_R   0.419318 0.478934 0.091289 0.098650
C5    C     C_R   0.642156 0.398728 0.869830 -0.171543
C6    C     C_R   0.357911 0.601374 0.130181 -0.171488
C7    C     C_R   0.623601 0.391027 0.786291 0.335189
C8    C     C_R   0.376476 0.609052 0.213719 0.335184
C9    C     C_1   0.499823 0.065215 0.500054 -0.070915
C10   C     C_1   0.500177 0.934785 0.499946 -0.070905
C11   C     C_2   0.544073 0.222887 0.090270 0.542290
C12   C     C_R   0.500118 0.781969 0.499862 0.975916
C13   C     C_2   0.455731 0.777122 0.909705 0.542322
C14   C     C_R   0.523445 0.499021 0.654043 0.995657
C15   C     C_R   0.476555 0.500981 0.345958 0.995689
C16   C     C_R   0.544001 0.508357 0.741262 -0.254057
C17   C     C_R   0.455997 0.491670 0.258739 -0.254080
C18   C     C_R   0.490869 0.637639 0.779449 0.334039
C19   C     C_R   0.509041 0.362367 0.220541 0.334043
C20   C     C_R   0.509017 0.644746 0.864618 -0.089800
Cl1   Cl    Cl    0.588763 0.208932 0.280705 -0.491218
Cl2   Cl    Cl    0.411065 0.791033 0.719276 -0.491260
Cl3   Cl    Cl    0.692747 0.228605 0.740081 -0.522991
Cl4   Cl    Cl    0.307441 0.771500 0.259945 -0.522956
H1    H     H_    0.696303 0.305262 0.905096 0.195640
H2    H     H_    0.303825 0.694874 0.094922 0.195637
H3    H     H_    0.495721 0.206986 0.027573 0.070619
H4    H     H_    0.504113 0.793089 0.972393 0.070611
N1    N     N_1   0.073640 0.500030 0.499990 0.004355
N2    N     N_1   0.926360 0.499970 0.500010 0.004354
N3    N     N_2   0.572834 0.509127 0.992281 -0.166282
N4    N     N_2   0.427137 0.490949 0.007719 -0.166310
O1    O     O_R   0.636850 0.285340 0.500000 -0.592915
O2    O     O_2   0.355252 0.867537 0.879032 -0.476658
O3    O     O_R   0.363150 0.714660 0.500000 -0.592904
O4    O     O_R   0.363100 0.285350 0.500000 -0.619622
O5    O     O_R   0.636900 0.714650 0.500000 -0.619626
O6    O     O_R   0.652140 0.498630 0.616140 -0.595905
O7    O     O_R   0.347860 0.501370 0.383860 -0.595930
O8    O     O_R   0.378390 0.498650 0.616130 -0.592053
O9    O     O_R   0.621610 0.501350 0.383870 -0.592072
O10   O     O_2   0.644442 0.132378 0.120944 -0.476656
Zn1   Zn    Zn3+2 0.682780 0.499990 0.500010 1.091583
Zn2   Zn    Zn3+2 0.317220 0.500010 0.499990 1.091585

loop_
_geom_bond_atom_site_label_1
_geom_bond_atom_site_label_2
_ccdc_geom_bond_type
O5    Zn1   S    
C2    C4    A    
C13   H4    S    
C15   C17   S    
N1    N2    T    
C14   O6    A    
C9    C10   T    
N3    N4    D    
C11   H3    S    
C1    O1    A    
C3    C20   A    
C6    H2    S    
C12   O3    A    
C3    N3    S    
O3    Zn2   S    
O9    Zn1   S    
C15   O7    A    
C4    N4    S    
C10   C12   S    
C7    Cl3   S    
C2    C11   S    
C4    C6    A    
C7    C16   A    
C19   Cl1   S    
C18   C20   A    
N1    Zn2   S    
C14   C16   S    
N2    Zn1   S    
O4    Zn2   S    
O7    Zn2   S    
C14   O8    A    
O1    Zn1   S    
O8    Zn2   S    
C1    C9    S    
C15   O9    A    
C11   O10   D    
C16   C18   A    
C13   O2    D    
C12   O5    A    
C5    C7    A    
C17   C19   A    
C6    C8    A    
C13   C20   S    
C8    Cl4   S    
C2    C19   A    
C18   Cl2   S    
O6    Zn1   S    
C8    C17   A    
C1    O4    A    
C3    C5    A    
C5    H1    S    
