data_mof_unit_8699.cif
_audit_creation_date              2012-12-11T14:29:34-0500
_audit_creation_method            fapswitch 2.2
_symmetry_space_group_name_H-M    P1
_symmetry_Int_Tables_number       1
_space_group_crystal_system       triclinic
_cell_length_a                    6.938309
_cell_length_b                    14.74725
_cell_length_c                    16.237099
_cell_angle_alpha                 90.507134
_cell_angle_beta                  90.245642
_cell_angle_gamma                 89.863169
_cell_volume                      1661.31090422

loop_
_atom_site_label
_atom_site_type_symbol
_atom_type_description
_atom_site_fract_x
_atom_site_fract_y
_atom_site_fract_z
_atom_type_partial_charge
O1    O     O_R   0.494400 0.416610 0.413880 -0.547462
O2    O     O_R   0.823920 0.406790 0.585520 -0.546020
O3    O     O_R   0.994250 0.583390 0.586120 -0.527084
C1    C     C_R   0.654967 0.384347 0.612770 0.711959
O4    O     O_R   0.824110 0.405730 0.414490 -0.544926
O5    O     O_R   0.994440 0.582310 0.413870 -0.523407
C2    C     C_R   0.654765 0.383683 0.386324 0.730910
O6    O     O_R   0.494210 0.417690 0.586130 -0.540956
O7    O     O_3   0.660810 0.557940 0.500000 -0.350515
V1    V     V_3+5 0.935650 0.489250 0.500000 1.466791
O8    O     O_R   0.324160 0.593210 0.414480 -0.549609
C3    C     C_R   0.154087 0.617292 0.388245 0.769319
O9    O     O_R   0.323970 0.594270 0.585510 -0.541554
C4    C     C_R   0.155172 0.616068 0.613955 0.707299
V2    V     V_3+5 0.435660 0.510750 0.500000 1.461899
O10   O     O_3   0.160630 0.442060 0.500000 -0.381236
C5    C     C_R   0.019053 0.566696 0.775881 -0.138792
C6    C     C_R   0.951758 0.540638 0.852798 -0.102325
C7    C     C_R   0.940132 0.603607 0.916720 -0.119809
C8    C     C_R   0.995474 0.693164 0.904210 -0.142482
C9    C     C_R   0.061981 0.722110 0.826449 0.067260
C10   C     C_R   0.074258 0.657452 0.760843 0.065705
C11   C     C_R   0.119855 0.813181 0.813985 -0.153337
C12   C     C_R   0.189970 0.839405 0.735673 0.070232
C13   C     C_R   0.202140 0.774752 0.670060 -0.017698
C14   C     C_R   0.144615 0.683668 0.682594 -0.142659
C15   C     C_R   0.244878 0.930161 0.720553 -0.250572
C16   C     C_R   0.311708 0.956237 0.643548 -0.203868
C17   C     C_R   0.323179 0.893272 0.579576 0.694550
C18   C     C_R   0.268092 0.803687 0.592203 -0.185153
H1    H     H_    0.028681 0.514528 0.728846 0.108193
H2    H     H_    0.909863 0.470967 0.862997 0.130173
H3    H     H_    0.889267 0.582823 0.976583 0.115806
H4    H     H_    0.986826 0.738938 0.956461 0.105801
H5    H     H_    0.235304 0.982318 0.767601 0.148963
H6    H     H_    0.353326 0.025950 0.633378 0.154201
H7    H     H_    0.276391 0.757820 0.540001 0.144896
C19   C     C_2   0.988900 0.737316 0.302403 0.003420
C20   C     C_2   0.143795 0.683399 0.319749 -0.301713
H8    H     H_    0.266847 0.682714 0.278883 0.105875
C21   C     C_2   0.975035 0.791595 0.225051 -0.208331
C22   C     C_2   0.127613 0.819932 0.181383 -0.289520
H9    H     H_    0.832441 0.814861 0.206847 0.131461
H10   H     H_    0.272645 0.802608 0.200866 0.134630
C23   C     C_2   0.774696 0.207959 0.781227 -0.225862
C24   C     C_2   0.612613 0.185745 0.822273 0.442222
H11   H     H_    0.907873 0.172298 0.795208 0.122557
C25   C     C_2   0.789062 0.281637 0.719265 -0.099726
C26   C     C_2   0.638726 0.312581 0.674967 -0.254338
H12   H     H_    0.931917 0.308595 0.707798 0.144533
H13   H     H_    0.496839 0.283447 0.682002 0.205845
C27   C     C_2   0.779400 0.208938 0.214149 -0.118830
C28   C     C_2   0.614257 0.181843 0.177391 -0.296990
H14   H     H_    0.915314 0.180222 0.193464 0.138942
H15   H     H_    0.476674 0.209882 0.195940 0.128105
C29   C     C_2   0.791654 0.277455 0.282080 -0.126135
C30   C     C_2   0.638141 0.315409 0.319551 -0.296653
H16   H     H_    0.935615 0.296604 0.302066 0.134992
H17   H     H_    0.493012 0.296922 0.301511 0.130485
O11   O     O_R   0.770210 0.079270 0.910680 -0.561124
O12   O     O_R   0.440150 0.091160 0.082270 -0.543615
O13   O     O_R   0.269970 0.914530 0.082860 -0.544509
C31   C     C_R   0.608922 0.113244 0.110504 0.748525
O14   O     O_R   0.440480 0.090100 0.911240 -0.514191
O15   O     O_R   0.270310 0.913460 0.910610 -0.538448
C32   C     C_R   0.608820 0.112879 0.884117 0.648953
O16   O     O_R   0.769870 0.080340 0.082930 -0.539899
O17   O     O_3   0.603660 0.938980 0.996790 -0.372939
V3    V     V_3+5 0.328750 0.007610 0.996740 1.459081
O18   O     O_R   0.940600 0.902510 0.911180 -0.540507
C33   C     C_R   0.109396 0.880781 0.882690 0.688151
O19   O     O_R   0.940270 0.903570 0.082200 -0.543471
C34   C     C_R   0.110007 0.882792 0.111062 0.740342
V4    V     V_3+5 0.828770 0.986010 0.996670 1.424441
O20   O     O_3   0.103730 0.054750 0.996710 -0.368263
F1    F     F_    0.386475 0.919277 0.504512 -0.669754
F2    F     F_    0.446676 0.233610 0.811864 -0.700112
C35   C     C_2   0.822741 0.747681 0.359267 0.462257
H18   H     H_    0.680390 0.761911 0.334484 0.023443
O21   O     O_2   0.844657 0.746572 0.433922 -0.507826

loop_
_geom_bond_atom_site_label_1
_geom_bond_atom_site_label_2
_ccdc_geom_bond_type
C21   C22   D    
C7    C8    A    
C12   C15   A    
C1    O6    A    
C17   F1    S    
C23   C24   D    
C16   C17   A    
C24   C32   S    
O5    C3    A    
C19   C20   D    
C35   O21   D    
C30   H17   S    
O17   V4    S    
V2    O10   S    
C29   C30   D    
C6    C7    A    
C23   H11   S    
O12   C31   A    
O8    V2    S    
O17   V3    S    
C26   H13   S    
O18   V4    S    
C11   C12   A    
O13   C34   A    
O18   C33   A    
O1    V2    S    
O7    V1    S    
C8    H4    S    
C25   H12   S    
O11   C32   A    
C9    C10   A    
C21   H9    S    
C22   H10   S    
C27   H14   S    
C28   H15   S    
C31   O16   A    
V4    O20   S    
C11   C33   S    
C12   C13   A    
C19   C21   S    
O19   V4    S    
C7    H3    S    
C20   H8    S    
O4    C2    A    
C35   H18   S    
C19   C35   S    
C15   H5    S    
C13   C14   A    
O15   C33   A    
O13   V3    S    
O14   C32   A    
O2    C1    A    
C17   C18   A    
C5    C6    A    
O16   V4    S    
O14   V3    S    
C4    C14   S    
C16   H6    S    
O3    C4    A    
C25   C26   D    
O6    V2    S    
O9    V2    S    
C5    H1    S    
C6    H2    S    
O2    V1    S    
C27   C28   D    
C23   C25   S    
O12   V3    S    
C13   C18   A    
C22   C34   S    
O1    C2    A    
O19   C34   A    
O5    V1    S    
C24   F2    S    
O8    C3    A    
C5    C10   A    
C1    C26   S    
C3    C20   S    
C9    C11   A    
O7    V2    S    
O4    V1    S    
O3    V1    S    
V1    O10   S    
C28   C31   S    
O15   V3    S    
O11   V4    S    
C29   H16   S    
V3    O20   S    
C8    C9    A    
C18   H7    S    
C10   C14   A    
C15   C16   A    
O9    C4    A    
C2    C30   S    
C27   C29   S    
