data_mof_unit_60570.cif
_audit_creation_date              2012-12-10T18:26:53-0500
_audit_creation_method            fapswitch 2.2
_symmetry_space_group_name_H-M    P1
_symmetry_Int_Tables_number       1
_space_group_crystal_system       triclinic
_cell_length_a                    21.52453
_cell_length_b                    21.610165
_cell_length_c                    21.447416
_cell_angle_alpha                 91.004434
_cell_angle_beta                  119.203566
_cell_angle_gamma                 119.492655
_cell_volume                      7130.32299529

loop_
_atom_site_label
_atom_site_type_symbol
_atom_type_description
_atom_site_fract_x
_atom_site_fract_y
_atom_site_fract_z
_atom_type_partial_charge
C1    C     C_R   0.502764 0.414889 0.416665 0.845940
C2    C     C_R   0.709689 0.731799 0.809168 -0.162772
C3    C     C_R   0.248579 0.759200 0.178287 0.448551
C4    C     C_R   0.279509 0.737652 0.142975 -0.017739
C5    C     C_R   0.331032 0.711390 0.180656 -0.277627
C6    C     C_R   0.350195 0.704416 0.251266 -0.113814
C7    C     C_R   0.319041 0.724233 0.286018 0.399679
C8    C     C_R   0.324612 0.806530 0.066475 -0.203858
C9    C     C_R   0.313996 0.812136 0.997699 -0.091594
C10   C     C_R   0.239753 0.753161 0.928682 -0.014674
C11   C     C_R   0.173738 0.690765 0.929083 0.129025
C12   C     C_R   0.185060 0.685441 0.998898 -0.106571
C13   C     C_R   0.795174 0.550761 0.820562 -0.202651
C14   C     C_R   0.261328 0.743432 0.067946 -0.019193
C15   C     C_R   0.197803 0.784641 0.809258 -0.102007
C16   C     C_R   0.197018 0.787171 0.743821 -0.103368
C17   C     C_R   0.233204 0.757251 0.725896 -0.110270
C18   C     C_R   0.269399 0.723957 0.772891 -0.153007
C19   C     C_R   0.270548 0.721169 0.838576 0.166748
C20   C     C_R   0.235570 0.752615 0.857603 0.082762
C21   C     C_R   0.813723 0.498870 0.811856 -0.100326
C22   C     C_R   0.767773 0.447816 0.738304 0.014326
C23   C     C_R   0.698685 0.445414 0.676942 0.118604
C24   C     C_R   0.684507 0.500822 0.686199 -0.099374
C25   C     C_R   0.733607 0.554626 0.758238 0.008138
C26   C     C_R   0.844876 0.433341 0.689825 -0.156442
C27   C     C_R   0.874530 0.395662 0.672695 -0.162484
C28   C     C_R   0.856885 0.327947 0.686312 0.157776
C29   C     C_R   0.618394 0.501540 0.620174 0.824417
C30   C     C_R   0.807660 0.296683 0.716718 0.133351
C31   C     C_R   0.776795 0.334673 0.733425 0.153503
C32   C     C_R   0.797181 0.404259 0.721324 0.059794
C33   C     C_R   0.426048 0.121144 0.119801 -0.298735
C34   C     C_R   0.504007 0.137060 0.134380 -0.088428
C35   C     C_R   0.584378 0.199503 0.196260 0.367577
C36   C     C_R   0.585827 0.248389 0.242450 0.014050
C37   C     C_R   0.506582 0.230440 0.228984 0.036859
C38   C     C_R   0.426769 0.166292 0.167646 0.072897
C39   C     C_R   0.663862 0.315500 0.300202 -0.180547
C40   C     C_R   0.499318 0.585410 0.585145 0.790690
C41   C     C_R   0.664287 0.361807 0.346290 -0.129158
C42   C     C_R   0.586728 0.343142 0.336164 0.082827
C43   C     C_R   0.506921 0.276842 0.276446 0.031147
C44   C     C_R   0.427392 0.256840 0.263812 0.040751
C45   C     C_R   0.348124 0.192236 0.202318 0.154749
C46   C     C_R   0.348531 0.148000 0.154671 -0.180155
C47   C     C_R   0.586992 0.389538 0.383497 0.127315
C48   C     C_R   0.507111 0.368121 0.370970 -0.104708
C49   C     C_R   0.429006 0.302283 0.312395 -0.247784
C50   C     C_R   0.531568 0.575532 0.270013 0.438799
C51   C     C_R   0.381452 0.499139 0.380315 0.797741
C52   C     C_R   0.466419 0.574755 0.270711 -0.095909
C53   C     C_R   0.389064 0.506324 0.248571 0.038185
C54   C     C_R   0.376600 0.437903 0.225361 -0.179953
C55   C     C_R   0.440444 0.437854 0.223458 -0.189820
C56   C     C_R   0.518062 0.505891 0.245768 0.118960
C57   C     C_R   0.257152 0.508003 0.186173 0.104245
C58   C     C_R   0.187987 0.501423 0.185676 -0.134703
C59   C     C_R   0.182969 0.492367 0.248532 -0.004442
C60   C     C_R   0.246798 0.491175 0.311097 -0.172678
C61   C     C_R   0.315312 0.498465 0.312318 -0.097631
C62   C     C_R   0.728665 0.728121 0.756047 0.177065
C63   C     C_R   0.320645 0.505929 0.249714 -0.027580
C64   C     C_R   0.120495 0.544883 0.283403 -0.181399
C65   C     C_R   0.059689 0.536979 0.296052 0.207820
C66   C     C_R   0.988968 0.465105 0.277320 -0.215401
C67   C     C_R   0.977245 0.400812 0.243757 0.156490
C68   C     C_R   0.036983 0.407751 0.229250 0.392861
C69   C     C_R   0.110501 0.481066 0.250683 -0.061397
C70   C     C_R   0.498825 0.808265 0.876657 -0.232967
C71   C     C_R   0.505878 0.873626 0.864479 -0.130428
C72   C     C_R   0.511599 0.894191 0.804160 0.165468
C73   C     C_R   0.735682 0.670110 0.738522 -0.163944
C74   C     C_R   0.510607 0.846849 0.755646 0.000776
C75   C     C_R   0.498830 0.778202 0.767257 -0.047289
C76   C     C_R   0.492000 0.759249 0.827310 0.030313
C77   C     C_R   0.521938 0.865582 0.696965 0.394150
C78   C     C_R   0.518386 0.815814 0.649740 0.063178
C79   C     C_R   0.507096 0.748414 0.662288 0.027112
C80   C     C_R   0.495140 0.728510 0.719884 -0.005652
C81   C     C_R   0.479607 0.658615 0.730270 0.014424
C82   C     C_R   0.466005 0.638492 0.787158 0.412614
C83   C     C_R   0.476262 0.690420 0.836862 -0.137867
C84   C     C_R   0.720457 0.613606 0.771897 0.007842
C85   C     C_R   0.508112 0.700372 0.618680 -0.145327
C86   C     C_R   0.496201 0.633365 0.630656 -0.074519
C87   C     C_R   0.481284 0.612164 0.685506 -0.221456
C88   C     C_R   0.877554 0.381406 0.996889 0.820571
C89   C     C_R   0.881200 0.499970 0.880441 0.811984
C90   C     C_R   0.118591 0.618730 0.999665 0.826372
C91   C     C_R   0.119909 0.500927 0.118934 0.811873
C92   C     C_R   0.381178 0.880243 0.999113 0.790273
C93   C     C_R   0.501039 0.086381 0.085693 0.883351
C94   C     C_R   0.618827 0.117267 0.998816 0.886034
C95   C     C_R   0.701917 0.618226 0.825503 -0.179627
C96   C     C_R   0.502870 0.917702 0.914109 0.811946
C97   C     C_R   0.779627 0.505660 0.041166 0.207289
C98   C     C_R   0.788092 0.445855 0.052382 0.409458
C99   C     C_R   0.731713 0.376872 0.990720 -0.229460
C100  C     C_R   0.659695 0.366266 0.922744 0.190680
C101  C     C_R   0.650993 0.426299 0.913047 0.397959
C102  C     C_R   0.712520 0.496323 0.972042 -0.406454
C103  C     C_R   0.684309 0.249110 0.004686 0.415292
C104  C     C_R   0.686192 0.185168 0.000572 -0.086835
C105  C     C_R   0.751391 0.186836 0.998217 -0.045908
C106  C     C_R   0.697711 0.677519 0.844792 0.181372
C107  C     C_R   0.811768 0.251888 0.996276 -0.155371
C108  C     C_R   0.808859 0.315047 0.996508 -0.099174
C109  C     C_R   0.743161 0.313829 0.998750 -0.051710
C110  C     C_R   0.783993 0.100415 0.062203 -0.060489
C111  C     C_R   0.794327 0.041425 0.062373 -0.154645
C112  C     C_R   0.783430 0.005781 0.999382 -0.125036
C113  C     C_R   0.763009 0.029582 0.936340 0.205110
C114  C     C_R   0.750902 0.087644 0.935413 -0.159912
C115  C     C_R   0.759246 0.122333 0.997699 0.041397
C116  C     C_R   0.268103 0.751530 0.249110 -0.215512
Cu1   Cu    Cu3+1 0.561810 0.561800 0.500000 1.041404
Cu2   Cu    Cu3+1 0.438190 0.438200 0.500000 1.041871
Cu3   Cu    Cu3+1 0.999940 0.544420 0.044440 1.047684
Cu4   Cu    Cu3+1 0.000020 0.455540 0.955560 1.063348
Cu5   Cu    Cu3+1 0.561770 0.999920 0.061770 1.023451
Cu6   Cu    Cu3+1 0.438130 0.999980 0.938230 1.045174
H1    H     H_    0.705990 0.777511 0.823815 0.182159
H2    H     H_    0.364731 0.072006 0.072292 0.167034
H3    H     H_    0.725530 0.334037 0.309932 0.169709
H4    H     H_    0.726654 0.412462 0.389534 0.186321
H5    H     H_    0.369213 0.288380 0.303930 0.192250
H6    H     H_    0.287253 0.098769 0.107415 0.175604
H7    H     H_    0.476250 0.627757 0.288888 0.157875
H8    H     H_    0.317179 0.384631 0.208271 0.172214
H9    H     H_    0.429480 0.384541 0.204478 0.184116
H10   H     H_    0.243243 0.484860 0.359582 0.163700
H11   H     H_    0.176449 0.600822 0.300247 0.186890
H12   H     H_    0.755642 0.670720 0.700906 0.182831
H13   H     H_    0.942483 0.459148 0.288108 0.200866
H14   H     H_    0.494510 0.793791 0.923221 0.180502
H15   H     H_    0.518750 0.714241 0.575140 0.193449
H16   H     H_    0.475192 0.560998 0.694820 0.166070
H17   H     H_    0.693307 0.576944 0.853884 0.152284
H18   H     H_    0.469112 0.675569 0.882094 0.200307
H19   H     H_    0.706711 0.543114 0.965356 0.197549
H20   H     H_    0.862738 0.253549 0.995780 0.182294
H21   H     H_    0.796261 0.129463 0.112706 0.186329
H22   H     H_    0.812223 0.024179 0.111894 0.163946
H23   H     H_    0.792667 0.960815 0.000230 0.171988
H24   H     H_    0.735849 0.106203 0.886607 0.194866
H25   H     H_    0.243866 0.767429 0.275643 0.174298
H26   H     H_    0.356732 0.696479 0.155194 0.208630
H27   H     H_    0.389749 0.683692 0.279272 0.172445
H28   H     H_    0.382720 0.851501 0.119430 0.169533
H29   H     H_    0.831339 0.590918 0.876224 0.180139
H30   H     H_    0.170180 0.808527 0.822940 0.148257
H31   H     H_    0.168611 0.812587 0.707121 0.152700
H32   H     H_    0.232777 0.759478 0.675323 0.162027
H33   H     H_    0.296468 0.700198 0.758152 0.161687
H34   H     H_    0.859112 0.485665 0.678427 0.190546
H35   H     H_    0.911726 0.419482 0.648821 0.187795
O1    O     O_R   0.552240 0.487330 0.435160 -0.558684
O2    O     O_R   0.909830 0.372260 0.962460 -0.578825
O3    O     O_R   0.909760 0.537510 0.947350 -0.591746
O4    O     O_R   0.909840 0.462450 0.872290 -0.577211
O5    O     O_R   0.090130 0.627700 0.037540 -0.578302
O6    O     O_R   0.090200 0.552640 0.962480 -0.536662
O7    O     O_R   0.090120 0.537500 0.127710 -0.579340
O8    O     O_R   0.090190 0.462450 0.052650 -0.554368
O9    O     O_R   0.461980 0.909780 0.052210 -0.580232
O10   O     O_R   0.357580 0.909820 0.947890 -0.597344
O11   O     O_R   0.552230 0.064830 0.117080 -0.548900
O12   O     O_R   0.447840 0.382940 0.435160 -0.567969
O13   O     O_R   0.447820 0.064870 0.012750 -0.579893
O14   O     O_R   0.642320 0.090080 0.052110 -0.595520
O15   O     O_R   0.537920 0.090120 0.947790 -0.528668
O16   O     O_R   0.552080 0.935030 0.987250 -0.585120
O17   O     O_R   0.447680 0.935070 0.882920 -0.566675
O18   O     O_R   0.642380 0.552190 0.590170 -0.583242
O19   O     O_R   0.537980 0.447810 0.590180 -0.552447
O20   O     O_R   0.552160 0.617060 0.564840 -0.575181
O21   O     O_R   0.447760 0.512670 0.564840 -0.586107
O22   O     O_R   0.462020 0.552190 0.409820 -0.579701
O23   O     O_R   0.357620 0.447810 0.409830 -0.583554
O24   O     O_R   0.909760 0.447310 0.037520 -0.562591
I1    I     I_    0.906727 0.276552 0.658752 -0.208890
I2    I     I_    0.781010 0.193009 0.737589 -0.174065
I3    I     I_    0.699891 0.288158 0.776469 -0.233282
O25   O     O_3   0.659445 0.212152 0.208240 -0.689981
H36   H     H_    0.703295 0.230690 0.263624 0.332144
I4    I     I_    0.708455 0.489530 0.475933 -0.305654
I5    I     I_    0.224103 0.157392 0.175403 -0.308665
I6    I     I_    0.750647 0.812144 0.705019 -0.252303
I7    I     I_    0.609477 0.497410 0.239975 -0.287126
O26   O     O_3   0.606158 0.645068 0.293080 -0.698532
H37   H     H_    0.647205 0.638078 0.291027 0.360398
I8    I     I_    0.270153 0.523398 0.093295 -0.281264
I9    I     I_    0.076302 0.633783 0.345492 -0.259922
I10   I     I_    0.868323 0.293319 0.216090 -0.300388
O27   O     O_3   0.022143 0.342298 0.195930 -0.705579
H38   H     H_    0.064545 0.354976 0.183335 0.330693
I11   I     I_    0.523016 0.997905 0.792215 -0.208523
O28   O     O_3   0.536919 0.932729 0.685954 -0.657678
H39   H     H_    0.580172 0.953609 0.673363 0.371730
I12   I     I_    0.522770 0.841725 0.554909 -0.227757
O29   O     O_3   0.444537 0.569764 0.797442 -0.684643
H40   H     H_    0.406335 0.530306 0.747147 0.329238
I13   I     I_    0.866864 0.611287 0.129345 -0.154570
O30   O     O_3   0.851466 0.456924 0.124157 -0.686070
H41   H     H_    0.842942 0.408118 0.127358 0.336456
I14   I     I_    0.555186 0.258192 0.836209 -0.122518
O31   O     O_3   0.580960 0.414665 0.845868 -0.667773
H42   H     H_    0.582252 0.461147 0.849237 0.336682
O32   O     O_3   0.623747 0.245863 0.014377 -0.695989
H43   H     H_    0.639928 0.297384 0.031903 0.341115
I15   I     I_    0.679928 0.687874 0.931788 -0.300378
I16   I     I_    0.754888 0.980254 0.844590 -0.291739
O33   O     O_3   0.340180 0.717143 0.356136 -0.707939
H44   H     H_    0.314480 0.734421 0.373501 0.337479
O34   O     O_3   0.199620 0.787716 0.146362 -0.696135
H45   H     H_    0.192167 0.792239 0.097752 0.333444
I17   I     I_    0.055994 0.607236 0.822888 -0.352504
I18   I     I_    0.323385 0.667189 0.905939 -0.319405
I19   I     I_    0.614343 0.355160 0.570798 -0.266667

loop_
_geom_bond_atom_site_label_1
_geom_bond_atom_site_label_2
_ccdc_geom_bond_type
C44   C49   A    
Cu3   O3    S    
C55   C56   A    
C26   C32   A    
C101  C102  A    
C39   H3    S    
C85   H15   S    
C31   I3    S    
C53   C63   S    
C41   C42   A    
C26   H34   S    
C19   C20   A    
C51   C61   S    
C78   I12   S    
C113  I16   S    
C43   C44   A    
C60   H10   S    
C97   C98   A    
C88   O24   A    
Cu3   O7    S    
C39   C41   A    
C21   C89   S    
C45   C46   A    
C52   C53   A    
Cu5   O9    S    
C105  C107  A    
C26   C27   A    
C96   O17   A    
C90   O5    A    
C52   H7    S    
C12   C90   S    
C1    O1    A    
C95   C106  A    
C18   C19   A    
C3    C116  A    
C68   O27   S    
Cu3   O24   S    
C5    C6    A    
C88   C108  S    
C31   C32   A    
C51   O22   A    
C66   H13   S    
C65   I9    S    
C15   C16   A    
C99   C109  S    
C108  C109  A    
C9    C92   S    
C17   C18   A    
C34   C35   A    
C30   I2    S    
C88   O2    A    
C40   C86   S    
C61   C63   A    
C28   I1    S    
C24   C29   S    
C112  C113  A    
C73   H12   S    
Cu4   O6    S    
C94   O15   A    
C110  C111  A    
C6    H27   S    
Cu5   O16   S    
C111  C112  A    
C93   O11   A    
C10   C20   S    
C8    C9    A    
Cu6   O13   S    
C74   C77   A    
Cu4   O2    S    
C25   C84   S    
C50   C52   A    
C107  C108  A    
C34   C93   S    
C98   O30   S    
C57   C63   A    
C70   C71   A    
C102  H19   S    
C75   C80   A    
C73   C84   A    
C97   C102  A    
C77   C78   A    
Cu1   O18   S    
C66   C67   A    
Cu2   O19   S    
C59   C60   A    
C5    H26   S    
C21   C22   A    
C58   C91   S    
C70   H14   S    
C13   C25   A    
C29   O18   A    
C67   I10   S    
C17   H32   S    
C76   C83   A    
C89   O4    A    
C83   H18   S    
C100  I14   S    
Cu1   O20   S    
Cu4   O8    S    
C81   C82   A    
C62   I6    S    
C57   C58   A    
C53   C54   A    
C15   C20   A    
C49   H5    S    
C56   I7    S    
C93   O13   A    
C96   O16   A    
C67   C68   A    
C80   C81   A    
O34   H45   S    
C114  H24   S    
C72   C74   A    
O29   H40   S    
C82   O29   S    
O33   H44   S    
O31   H42   S    
C54   H8    S    
C71   C96   S    
Cu2   O12   S    
C58   C59   A    
C85   C86   A    
C2    C106  A    
C45   I5    S    
C50   C56   A    
C3    C4    A    
C40   O20   A    
C57   I8    S    
C60   C61   A    
C84   C95   A    
C7    C116  A    
C37   C43   A    
C8    H28   S    
C75   C76   A    
C37   C38   A    
C101  O31   S    
C92   O9    A    
C94   O14   A    
C33   H2    S    
C47   C48   A    
C30   C31   A    
C35   O25   S    
C106  I15   S    
C33   C34   A    
C23   I19   S    
Cu3   Cu4   S    
C13   C21   A    
C87   H16   S    
C62   C73   A    
C64   C69   A    
C24   C25   A    
C107  H20   S    
C50   O26   S    
C77   O28   S    
C11   I17   S    
C13   H29   S    
Cu5   Cu6   S    
C81   C87   A    
C22   C32   S    
Cu4   O4    S    
C59   C69   S    
Cu3   O5    S    
C111  H22   S    
C48   C49   A    
Cu5   O14   S    
C12   C14   A    
C82   C83   A    
Cu6   O15   S    
C70   C76   A    
C40   O21   A    
C91   O7    A    
C19   I18   S    
C42   C43   A    
C97   I13   S    
C47   I4    S    
C51   O23   A    
Cu2   O21   S    
C79   C85   A    
C44   C45   A    
C89   O3    A    
C113  C114  A    
C64   H11   S    
C46   H6    S    
O26   H37   S    
Cu5   O11   S    
O30   H41   S    
C54   C55   A    
C36   C37   A    
C8    C14   A    
Cu6   O10   S    
Cu1   O1    S    
C86   C87   A    
C95   H17   S    
C41   H4    S    
C91   O8    A    
C36   C39   A    
O27   H38   S    
C16   H31   S    
C104  C105  A    
C116  H25   S    
C11   C12   A    
C1    C48   S    
C114  C115  A    
C6    C7    A    
C27   H35   S    
C55   H9    S    
C33   C38   A    
C99   C100  A    
C105  C115  S    
C90   O6    A    
C103  C109  A    
C64   C65   A    
C28   C30   A    
C3    O34   S    
C112  H23   S    
C71   C72   A    
C65   C66   A    
Cu6   O17   S    
Cu1   Cu2   S    
C78   C79   A    
C92   O10   A    
O25   H36   S    
C16   C17   A    
C15   H30   S    
C4    C5    A    
C1    O12   A    
C100  C101  A    
C9    C10   A    
C42   C47   A    
O32   H43   S    
C4    C14   S    
C110  H21   S    
C68   C69   A    
C38   C46   A    
C7    O33   S    
C10   C11   A    
C23   C24   A    
C72   I11   S    
C79   C80   A    
C103  O32   S    
O28   H39   S    
C94   C104  S    
C74   C75   A    
C98   C99   A    
C103  C104  A    
C22   C23   A    
C35   C36   A    
C29   O19   A    
C2    C62   A    
C110  C115  A    
C2    H1    S    
C18   H33   S    
Cu1   O22   S    
C27   C28   A    
Cu2   O23   S    
