data_mof_unit_43071.cif
_audit_creation_date              2012-12-11T15:31:39-0500
_audit_creation_method            fapswitch 2.2
_symmetry_space_group_name_H-M    P1
_symmetry_Int_Tables_number       1
_space_group_crystal_system       triclinic
_cell_length_a                    6.985872
_cell_length_b                    14.827956
_cell_length_c                    21.370964
_cell_angle_alpha                 74.250022
_cell_angle_beta                  88.702237
_cell_angle_gamma                 90.40571
_cell_volume                      2129.87517513

loop_
_atom_site_label
_atom_site_type_symbol
_atom_type_description
_atom_site_fract_x
_atom_site_fract_y
_atom_site_fract_z
_atom_type_partial_charge
O1    O     O_R   0.648150 0.130050 0.214300 -0.547146
O2    O     O_R   0.351850 0.869950 0.785700 -0.544920
O3    O     O_R   0.320490 0.006660 0.340150 -0.533179
O4    O     O_R   0.679510 0.993340 0.659850 -0.533767
O5    O     O_R   0.146100 0.869940 0.285700 -0.533420
O6    O     O_R   0.853900 0.130060 0.714300 -0.536337
C1    C     C_R   0.485021 0.003630 0.366449 0.805117
C2    C     C_R   0.515214 0.997106 0.633397 0.803741
O7    O     O_R   0.318690 0.137980 0.218120 -0.535256
O8    O     O_R   0.681310 0.862020 0.781880 -0.544245
O9    O     O_R   0.144280 0.002190 0.162800 -0.536191
O10   O     O_R   0.855720 0.997810 0.837200 -0.530995
C3    C     C_R   0.489061 0.175473 0.205486 0.813237
C4    C     C_R   0.510636 0.824293 0.794285 0.795895
O11   O     O_R   0.649960 0.997790 0.337200 -0.535735
O12   O     O_R   0.350040 0.002210 0.662800 -0.536164
O13   O     O_3   0.479300 0.955290 0.231990 -0.374234
O14   O     O_3   0.520700 0.044710 0.768010 -0.365586
V1    V     V_3+5 0.206040 0.008290 0.253340 1.527615
V2    V     V_3+5 0.793960 0.991710 0.746660 1.524932
O15   O     O_R   0.814320 0.993320 0.159850 -0.520207
O16   O     O_R   0.185680 0.006680 0.840150 -0.513929
C5    C     C_R   0.983562 0.003124 0.132386 0.730024
C6    C     C_R   0.016520 0.001341 0.867066 0.706646
O17   O     O_R   0.816120 0.862000 0.281880 -0.549947
O18   O     O_R   0.183880 0.138000 0.718120 -0.547908
C7    C     C_R   0.984065 0.824535 0.293860 0.751868
C8    C     C_R   0.016457 0.175261 0.705047 0.746659
V3    V     V_3+5 0.705540 0.991700 0.246660 1.500911
V4    V     V_3+5 0.294460 0.008300 0.753340 1.517589
O19   O     O_3   0.982150 0.044700 0.268010 -0.381876
O20   O     O_3   0.017850 0.955300 0.731990 -0.382661
C9    C     C_R   0.993872 0.722634 0.320117 -0.135431
C10   C     C_R   0.009589 0.277045 0.678250 -0.119504
C11   C     C_R   0.083949 0.571372 0.307994 -0.191933
C12   C     C_R   0.946137 0.430664 0.691169 -0.176597
C13   C     C_R   0.054103 0.666970 0.280463 0.423774
C14   C     C_R   0.960044 0.334065 0.718109 0.408460
C15   C     C_R   0.968223 0.683654 0.386858 -0.229763
C16   C     C_R   0.038542 0.315913 0.611541 -0.229182
C17   C     C_R   0.002708 0.587620 0.416598 0.072044
C18   C     C_R   0.019040 0.413250 0.582398 0.068245
C19   C     C_R   0.061170 0.530474 0.375753 0.018253
C20   C     C_R   0.970035 0.471391 0.623513 0.024500
C21   C     C_R   0.988142 0.548182 0.485717 0.080700
C22   C     C_R   0.038430 0.453241 0.513481 0.077771
C23   C     C_R   0.104929 0.400622 0.471594 -0.256368
C24   C     C_R   0.928998 0.601618 0.528040 -0.253695
C25   C     C_R   0.106806 0.435565 0.404031 -0.004627
C26   C     C_R   0.933029 0.567253 0.595513 -0.006084
H1    H     H_    0.065286 0.266992 0.583525 0.114394
H2    H     H_    0.930093 0.732199 0.414078 0.116265
H3    H     H_    0.131303 0.531294 0.275489 0.199168
H4    H     H_    0.907192 0.471527 0.724090 0.194442
H5    H     H_    0.158557 0.330939 0.490295 0.112312
H6    H     H_    0.879934 0.672022 0.510115 0.108927
C27   C     C_3   0.862657 0.947796 0.988425 -0.198692
C28   C     C_3   0.139323 0.062211 0.010627 -0.195766
C29   C     C_3   0.025015 0.918363 0.038339 -0.288251
C30   C     C_3   0.978265 0.091582 0.960297 -0.243260
H7    H     H_    0.048198 0.847207 0.070709 0.132387
H8    H     H_    0.956680 0.162989 0.928029 0.121631
H9    H     H_    0.756300 0.897235 0.979792 0.162374
H10   H     H_    0.247005 0.111322 0.020489 0.166482
C31   C     C_3   0.991699 0.007001 0.061380 -0.007697
C32   C     C_3   0.010488 0.002559 0.937411 -0.009921
C33   C     C_3   0.831521 0.036704 0.011809 0.096471
C34   C     C_3   0.171284 0.973813 0.987035 0.071656
C35   C     C_3   0.653134 0.042154 0.465215 0.327721
C36   C     C_3   0.347837 0.959182 0.534484 0.325750
C37   C     C_3   0.521498 0.088277 0.506347 -0.210991
C38   C     C_3   0.479635 0.913004 0.493402 -0.211679
C39   C     C_3   0.520632 0.997103 0.563160 -0.253895
C40   C     C_3   0.480316 0.004151 0.436565 -0.253985
C41   C     C_3   0.654862 0.950867 0.521465 0.359253
C42   C     C_3   0.346215 0.050475 0.478238 0.360506
C43   C     C_R   0.507739 0.277054 0.177659 -0.185791
C44   C     C_R   0.494653 0.722143 0.821800 -0.179189
C45   C     C_R   0.650838 0.424097 0.183276 0.536385
C46   C     C_R   0.423874 0.567471 0.807586 0.546722
C47   C     C_R   0.609936 0.329038 0.211163 -0.359645
C48   C     C_R   0.455211 0.664827 0.781528 -0.336858
C49   C     C_R   0.446058 0.319268 0.114679 0.434254
C50   C     C_R   0.494944 0.683370 0.889188 0.399237
C51   C     C_R   0.519266 0.409834 0.080232 -0.126991
C52   C     C_R   0.500329 0.584508 0.915631 -0.129007
C53   C     C_R   0.614933 0.464332 0.116339 -0.123840
C54   C     C_R   0.451009 0.526327 0.875198 -0.098262
C55   C     C_R   0.500457 0.447677 0.011486 0.028946
C56   C     C_R   0.542442 0.543280 0.982210 0.035804
C57   C     C_R   0.642168 0.593723 0.018289 -0.242487
C58   C     C_R   0.460547 0.390945 0.970141 -0.256272
C59   C     C_R   0.674627 0.557175 0.084799 0.470689
C60   C     C_R   0.430803 0.428426 0.903147 0.463500
H11   H     H_    0.436622 0.697514 0.730337 0.124371
H12   H     H_    0.657479 0.295572 0.259659 0.139249
H13   H     H_    0.708124 0.660398 0.993935 0.170254
H14   H     H_    0.470388 0.316119 0.988280 0.190580
C61   C     C_2   0.161134 0.368874 0.365937 0.303518
H15   H     H_    0.265764 0.315191 0.384907 0.063673
O21   O     O_2   0.081019 0.368534 0.315835 -0.530199
C62   C     C_2   0.891914 0.635429 0.633735 0.269990
H16   H     H_    0.794772 0.692727 0.614889 0.079993
O22   O     O_2   0.974215 0.632411 0.684020 -0.535127
O23   O     O_3   0.815405 0.082474 0.426987 -0.537822
C63   C     C_3   0.771531 0.169535 0.383179 -0.092803
H17   H     H_    0.801694 0.227557 0.405168 0.124373
H18   H     H_    0.621243 0.174738 0.366551 0.041450
H19   H     H_    0.866629 0.180132 0.339457 0.182103
O24   O     O_3   0.185871 0.918902 0.572893 -0.538861
C64   C     C_3   0.230527 0.831821 0.616569 -0.082274
H20   H     H_    0.380137 0.827319 0.633711 0.039648
H21   H     H_    0.203746 0.774041 0.594081 0.121911
H22   H     H_    0.134173 0.820226 0.660059 0.187274
O25   O     O_3   0.816262 0.895745 0.543025 -0.543817
C65   C     C_3   0.911629 0.876270 0.489003 -0.076195
H23   H     H_    0.003247 0.936461 0.462601 0.216261
H24   H     H_    0.813991 0.857347 0.454210 0.083481
H25   H     H_    0.007091 0.816138 0.506592 0.132727
O26   O     O_3   0.185240 0.105829 0.456561 -0.541561
C66   C     C_3   0.090624 0.126156 0.510409 -0.071339
H26   H     H_    0.188699 0.142688 0.546002 0.082378
H27   H     H_    0.995245 0.067082 0.536156 0.214002
H28   H     H_    0.000027 0.188244 0.492660 0.132037
O27   O     O_3   0.778451 0.608558 0.118491 -0.511108
C67   C     C_3   0.712947 0.701561 0.106000 -0.163075
H29   H     H_    0.556174 0.707343 0.098046 0.090286
H30   H     H_    0.791431 0.746782 0.063220 0.122020
H31   H     H_    0.743287 0.728241 0.148511 0.184268
O28   O     O_3   0.403164 0.370330 0.862686 -0.545816
C68   C     C_3   0.274943 0.295410 0.890166 -0.180774
H32   H     H_    0.146733 0.318283 0.913469 0.147791
H33   H     H_    0.348923 0.237518 0.924647 0.102476
H34   H     H_    0.225774 0.266208 0.850752 0.203722
O29   O     O_3   0.469103 0.742306 0.928974 -0.557953
C69   C     C_3   0.275597 0.735474 0.951239 -0.177665
H35   H     H_    0.213582 0.663172 0.963048 0.121607
H36   H     H_    0.186273 0.783533 0.914651 0.144376
H37   H     H_    0.266516 0.756622 0.997078 0.137576
O30   O     O_3   0.319379 0.269520 0.087379 -0.560114
C70   C     C_3   0.132951 0.302576 0.093521 -0.225618
H38   H     H_    0.119653 0.377335 0.065587 0.143388
H39   H     H_    0.090465 0.293194 0.145465 0.159386
H40   H     H_    0.030877 0.261011 0.073143 0.152938
O31   O     O_3   0.744435 0.475009 0.219389 -0.501294
C71   C     C_3   0.629232 0.478658 0.273836 -0.121039
H41   H     H_    0.644384 0.413740 0.314105 0.124249
H42   H     H_    0.475672 0.490880 0.261686 0.091595
H43   H     H_    0.679157 0.538252 0.291563 0.157010
O32   O     O_3   0.345818 0.513391 0.770149 -0.508278
C72   C     C_3   0.437737 0.530400 0.708497 -0.159247
H44   H     H_    0.594878 0.539902 0.710942 0.104881
H45   H     H_    0.374147 0.591616 0.673490 0.144436
H46   H     H_    0.413774 0.468569 0.689691 0.159808
O33   O     O_3   0.930594 0.295376 0.784139 -0.580859
C73   C     C_3   0.732084 0.288816 0.797848 -0.234036
H47   H     H_    0.660319 0.241602 0.772839 0.155550
H48   H     H_    0.665355 0.359010 0.784048 0.190744
H49   H     H_    0.708575 0.258517 0.850947 0.170373
O34   O     O_3   0.075466 0.706045 0.214099 -0.554492
C74   C     C_3   0.272084 0.713643 0.196974 -0.241409
H50   H     H_    0.330920 0.644123 0.197250 0.147014
H51   H     H_    0.356436 0.746094 0.229065 0.139652
H52   H     H_    0.288743 0.760076 0.146846 0.138937
C75   C     C_2   0.644538 0.082117 0.018199 0.301209
H53   H     H_    0.556784 0.104479 0.975780 0.049414
O35   O     O_2   0.593277 0.097607 0.069140 -0.525828
C76   C     C_2   0.365945 0.936407 0.980164 0.322182
H54   H     H_    0.440154 0.899960 0.023612 0.028582
O36   O     O_2   0.443279 0.947313 0.926908 -0.512021
C77   C     C_2   0.547495 0.186538 0.511756 0.346332
H55   H     H_    0.521292 0.245460 0.470166 0.040657
O37   O     O_2   0.596140 0.200819 0.562736 -0.542246
C78   C     C_2   0.454660 0.814607 0.488156 0.345774
H56   H     H_    0.484293 0.755869 0.529529 0.042695
O38   O     O_2   0.403177 0.800020 0.437570 -0.541222

loop_
_geom_bond_atom_site_label_1
_geom_bond_atom_site_label_2
_ccdc_geom_bond_type
C32   C34   S    
C77   H55   S    
C50   O29   S    
C67   H29   S    
C11   H3    S    
C39   C41   S    
C64   H20   S    
C27   C32   S    
O4    C2    A    
C68   H34   S    
V1    O19   S    
C45   C53   A    
O31   C71   S    
C58   H14   S    
O29   C69   S    
C45   O31   S    
C75   H53   S    
C21   C22   A    
C7    C9    S    
C37   C77   S    
C46   O32   S    
C77   O37   D    
O9    V1    S    
C60   O28   S    
C40   C42   S    
C10   C16   A    
C13   O34   S    
C73   H47   S    
C11   C13   A    
C50   C52   A    
O3    C1    A    
C70   H39   S    
C37   C42   S    
C52   C54   A    
C27   C29   S    
C25   C61   S    
C63   H17   S    
C43   C49   A    
C28   C30   S    
O25   C65   S    
C4    C44   S    
O13   V3    S    
C65   H23   S    
C30   H8    S    
C18   C22   A    
C72   H46   S    
O9    C5    A    
C35   C37   S    
O7    C3    A    
C78   H56   S    
C66   H28   S    
C36   O24   S    
O5    C7    A    
C73   H48   S    
O7    V1    S    
O6    C8    A    
C30   C33   S    
O8    V2    S    
C31   C33   S    
C67   H30   S    
C72   H44   S    
O3    V1    S    
O14   V4    S    
C38   C78   S    
C11   C19   A    
C6    C32   S    
C33   C75   S    
C24   C26   A    
C15   H2    S    
C8    C10   S    
C2    O12   A    
O17   V3    S    
C17   C19   A    
C18   C20   A    
C14   O33   S    
C27   C33   S    
C38   C41   S    
C58   C60   A    
C49   O30   S    
C74   H51   S    
O11   V3    S    
C1    C40   S    
C71   H42   S    
C51   C53   A    
C28   H10   S    
C3    C43   S    
C29   H7    S    
O30   C70   S    
C38   C40   S    
C52   C56   A    
C70   H40   S    
C45   C47   A    
C47   H12   S    
C35   O23   S    
C19   C25   A    
C1    O11   A    
C67   H31   S    
O15   V3    S    
C9    C13   A    
O24   C64   S    
C69   H37   S    
C29   C34   S    
C57   C59   A    
C71   H43   S    
C9    C15   A    
C44   C48   A    
C28   C31   S    
C16   C18   A    
C61   H15   S    
C43   C47   A    
V3    O19   S    
O10   V2    S    
C36   C39   S    
O1    V3    S    
C35   C40   S    
C64   H21   S    
C78   O38   D    
C42   O26   S    
C57   H13   S    
C55   C58   A    
C62   O22   D    
C66   H26   S    
C34   C76   S    
C28   C34   S    
C76   H54   S    
C49   C51   A    
C23   C25   A    
C26   C62   S    
O15   C5    A    
C36   C42   S    
O27   C67   S    
O16   C6    A    
C12   C20   A    
O1    C3    A    
C68   H32   S    
C74   H52   S    
O26   C66   S    
C69   H36   S    
C23   H5    S    
C71   H41   S    
V2    O20   S    
C21   C24   A    
C20   C26   A    
C24   H6    S    
C22   C23   A    
C51   C55   A    
C48   H11   S    
O16   V4    S    
C61   O21   D    
C10   C14   A    
C73   H49   S    
C27   H9    S    
C69   H35   S    
C68   H33   S    
O18   V4    S    
O5    V1    S    
O17   C7    A    
C16   H1    S    
O6    V2    S    
O23   C63   S    
O10   C6    A    
O18   C8    A    
C65   H25   S    
O2    V4    S    
O34   C74   S    
C5    C31   S    
C12   C14   A    
O28   C68   S    
C46   C54   A    
C74   H50   S    
C70   H38   S    
C29   C31   S    
V4    O20   S    
C56   C57   A    
C63   H18   S    
C53   C59   A    
C76   O36   D    
C2    C39   S    
O13   V1    S    
C46   C48   A    
C65   H24   S    
C35   C41   S    
C64   H22   S    
O14   V2    S    
C72   H45   S    
C62   H16   S    
O2    C4    A    
C59   O27   S    
C66   H27   S    
C12   H4    S    
C30   C32   S    
O4    V2    S    
C44   C50   A    
C41   O25   S    
C15   C17   A    
C75   O35   D    
C37   C39   S    
O33   C73   S    
C54   C60   A    
C17   C21   A    
O32   C72   S    
C36   C38   S    
C55   C56   A    
O12   V4    S    
O8    C4    A    
C63   H19   S    
