data_mof_unit_26606.cif
_audit_creation_date              2013-03-05T15:51:39-0500
_audit_creation_method            fapswitch 2.2
_symmetry_space_group_name_H-M    P1
_symmetry_Int_Tables_number       1
_space_group_crystal_system       triclinic
_cell_length_a                    10.642121
_cell_length_b                    10.859256
_cell_length_c                    9.580948
_cell_angle_alpha                 90.483947
_cell_angle_beta                  90.50682
_cell_angle_gamma                 92.802111
_cell_volume                      1105.81636786

loop_
_atom_site_label
_atom_site_type_symbol
_atom_site_description
_atom_site_fract_x
_atom_site_fract_y
_atom_site_fract_z
_atom_type_partial_charge
O1    O     O_R   0.499990 0.319640 0.618810 -0.594165
O2    O     O_R   0.500000 0.319660 0.381240 -0.573102
C1    C     C_R   0.510530 0.263269 0.500261 0.811612
O3    O     O_R   0.316850 0.499960 0.618770 -0.577947
O4    O     O_R   0.316860 0.499980 0.381190 -0.583353
C2    C     C_R   0.259520 0.499267 0.499308 0.830379
Cu1   Cu    Cu3+1 0.499990 0.499990 0.640660 0.951726
Cu2   Cu    Cu3+1 0.500010 0.500010 0.359340 0.954176
O5    O     O_R   0.500000 0.680340 0.618760 -0.623943
O6    O     O_R   0.500010 0.680360 0.381190 -0.605608
O7    O     O_R   0.683140 0.500020 0.618810 -0.573066
O8    O     O_R   0.683150 0.500040 0.381230 -0.576469
C3    C     C_R   0.493721 0.737692 0.501622 0.772091
C4    C     C_R   0.740471 0.499478 0.500780 0.811669
C5    C     C_3   0.038960 0.393699 0.559401 -0.255814
C6    C     C_3   0.952750 0.400034 0.428823 0.167372
H1    H     H_    0.072317 0.309071 0.609023 0.165530
C7    C     C_3   0.877133 0.498033 0.502218 -0.120362
C8    C     C_3   0.963023 0.492751 0.629975 0.383644
C9    C     C_3   0.048695 0.597583 0.572097 -0.210795
C10   C     C_3   0.962321 0.602257 0.440921 -0.259054
C11   C     C_3   0.039295 0.503736 0.366662 -0.100846
C12   C     C_3   0.122919 0.498618 0.498103 -0.090084
H2    H     H_    0.090345 0.677895 0.631756 0.164305
H3    H     H_    0.928437 0.687062 0.392159 0.158484
H4    H     H_    0.073306 0.507922 0.257495 0.180940
H5    H     H_    0.493769 0.109023 0.279163 0.167099
C13   C     C_R   0.587715 0.124452 0.753430 -0.129812
H6    H     H_    0.638294 0.213155 0.751466 0.198995
C14   C     C_R   0.575075 0.067243 0.882414 -0.140747
H7    H     H_    0.610054 0.113850 0.976335 0.163168
C15   C     C_R   0.512917 0.952237 0.890684 -0.158990
H8    H     H_    0.496091 0.910506 0.991483 0.140880
C16   C     C_R   0.475363 0.889150 0.768804 -0.167614
H9    H     H_    0.422545 0.802935 0.782517 0.172314
C17   C     C_R   0.500603 0.940384 0.635443 0.093894
C18   C     C_R   0.538320 0.066375 0.630236 0.084389
C19   C     C_R   0.523031 0.129694 0.502660 -0.100702
C20   C     C_R   0.502219 0.062942 0.378434 -0.179398
H10   H     H_    0.481783 0.886787 0.281365 0.163566
C21   C     C_R   0.491458 0.935679 0.380220 -0.209200
C22   C     C_R   0.489968 0.872550 0.507201 -0.108860
H11   H     H_    0.358592 0.358994 0.126589 0.142227
C23   C     C_R   0.667018 0.665274 0.147055 -0.143957
H12   H     H_    0.675828 0.672823 0.257176 0.195856
C24   C     C_R   0.747767 0.746502 0.076026 -0.197601
H13   H     H_    0.811209 0.809913 0.133329 0.160541
C25   C     C_R   0.747634 0.746275 0.932221 -0.115960
H14   H     H_    0.810849 0.809578 0.876937 0.160463
C26   C     C_R   0.666956 0.664630 0.858580 -0.090464
H15   H     H_    0.675071 0.671606 0.748653 0.190274
C27   C     C_R   0.582058 0.581081 0.926592 0.204462
C28   C     C_R   0.582026 0.581209 0.076288 0.219677
N1    N     N_R   0.501210 0.501210 0.147910 -0.199308
C29   C     C_R   0.422273 0.422481 0.072447 -0.050019
H16   H     H_    0.358686 0.358983 0.867798 0.148288
C30   C     C_R   0.422309 0.422512 0.924425 -0.039426
N2    N     N_R   0.501250 0.501290 0.852040 -0.205697
I1    I     I_    0.874939 0.243435 0.315650 -0.366819
N3    N     N_R   0.921825 0.484708 0.774371 0.128991
O9    O     O_R   0.963838 0.566048 0.865926 -0.377654
O10   O     O_R   0.852863 0.389716 0.814969 -0.360177

loop_
_geom_bond_atom_site_label_1
_geom_bond_atom_site_label_2
_geom_bond_distance
_ccdc_geom_bond_type
O4    Cu2   1.962139 S    
C26   C27   1.415736 A    
C5    C8    1.532845 S    
H10   C21   1.083489 S    
C18   C19   1.419469 A    
C8    N3    1.456994 S    
C7    C10   1.538860 S    
C21   C22   1.401319 A    
C4    C7    1.455161 S    
Cu1   N2    2.025073 S    
C17   C22   1.428003 A    
C8    C9    1.533888 S    
C9    C12   1.536720 S    
Cu2   O8    1.958388 S    
C15   H8    1.082876 S    
C5    C12   1.537016 S    
C26   H15   1.060544 S    
Cu1   Cu2   2.695316 S    
C20   C21   1.381393 A    
C6    C7    1.534823 S    
C24   H13   1.083062 S    
C28   N1    1.383012 A    
C9    C10   1.553140 S    
C14   C15   1.387579 A    
C25   C26   1.387558 A    
C13   H6    1.080615 S    
C30   N2    1.366977 A    
C14   H7    1.082782 S    
C27   N2    1.380706 A    
C13   C18   1.418184 A    
N3    O9    1.300349 A    
O3    Cu1   1.958389 S    
C2    C12   1.453344 S    
H11   C29   1.081776 S    
C17   C18   1.408297 A    
O8    C4    1.293144 A    
C3    C22   1.467482 S    
O2    C1    1.305432 A    
C16   C17   1.420473 A    
C29   C30   1.418195 A    
O4    C2    1.290363 A    
Cu2   O6    1.967865 S    
O7    C4    1.289784 A    
C24   C25   1.377767 A    
O3    C2    1.292037 A    
H16   C30   1.081770 S    
H5    C20   1.083520 S    
C5    C6    1.548843 S    
Cu1   O5    1.971430 S    
C19   C20   1.398628 A    
C27   C28   1.434224 A    
N3    O10   1.300679 A    
C16   H9    1.077806 S    
C11   H4    1.110374 S    
Cu2   N1    2.026001 S    
C5    H1    1.110360 S    
C7    C8    1.524328 S    
C10   H3    1.110473 S    
N1    C29   1.366728 A    
C25   H14   1.083012 S    
Cu1   O7    1.962138 S    
O5    C3    1.290904 A    
C23   C24   1.387801 A    
C10   C11   1.550793 S    
O1    Cu1   1.967864 S    
C23   C28   1.417441 A    
O6    C3    1.310259 A    
C11   C12   1.538558 S    
O2    Cu2   1.971432 S    
C23   H12   1.060523 S    
C9    H2    1.110447 S    
C1    C19   1.463431 S    
C6    C11   1.546206 S    
C13   C14   1.392468 A    
O1    C1    1.294062 A    
C6    I1    2.137423 S    
C15   C16   1.394310 A    
