data_mof_unit_18089.cif
_audit_creation_date              2013-03-05T15:51:06-0500
_audit_creation_method            fapswitch 2.2
_symmetry_space_group_name_H-M    P1
_symmetry_Int_Tables_number       1
_space_group_crystal_system       triclinic
_cell_length_a                    10.529729
_cell_length_b                    11.995104
_cell_length_c                    12.888808
_cell_angle_alpha                 93.213682
_cell_angle_beta                  90.051119
_cell_angle_gamma                 86.07001
_cell_volume                      1621.53425148

loop_
_atom_site_label
_atom_site_type_symbol
_atom_site_description
_atom_site_fract_x
_atom_site_fract_y
_atom_site_fract_z
_atom_type_partial_charge
O1    O     O_R   0.506270 0.421700 0.658830 -0.613530
O2    O     O_R   0.493730 0.578300 0.341170 -0.613529
O3    O     O_R   0.491200 0.609310 0.646410 -0.635852
O4    O     O_R   0.508800 0.390690 0.353590 -0.635851
C1    C     C_R   0.498005 0.521912 0.700448 0.928076
C2    C     C_R   0.501995 0.478088 0.299552 0.928075
O5    O     O_R   0.693580 0.406210 0.506230 -0.633113
O6    O     O_R   0.306420 0.593790 0.493770 -0.633113
O7    O     O_R   0.678510 0.593830 0.493810 -0.601749
O8    O     O_R   0.321490 0.406170 0.506190 -0.601749
C3    C     C_R   0.742486 0.499846 0.499117 0.966112
C4    C     C_R   0.257514 0.500154 0.500883 0.966112
Zn1   Zn    Zn3+2 0.510060 0.374730 0.508290 0.989936
Zn2   Zn    Zn3+2 0.489940 0.625270 0.491710 0.989936
C5    C     C_3   0.966552 0.394845 0.514442 -0.228807
C6    C     C_3   0.033448 0.605155 0.485558 -0.228807
C7    C     C_3   0.041493 0.467924 0.590498 0.369719
C8    C     C_3   0.958507 0.532076 0.409502 0.369719
H1    H     H_    0.936985 0.309687 0.527845 0.196782
H2    H     H_    0.063014 0.690313 0.472155 0.196782
C9    C     C_3   0.123032 0.500607 0.501336 -0.142686
C10   C     C_3   0.876968 0.499393 0.498664 -0.142686
C11   C     C_3   0.049487 0.428505 0.423009 -0.274864
C12   C     C_3   0.950513 0.571494 0.576991 -0.274865
H3    H     H_    0.092795 0.371817 0.359629 0.191550
H4    H     H_    0.907205 0.628183 0.640371 0.191550
C13   C     C_R   0.502620 0.465169 0.188235 -0.045975
C14   C     C_R   0.497380 0.534831 0.811765 -0.045974
C15   C     C_R   0.512895 0.648925 0.970012 -0.157402
C16   C     C_R   0.487105 0.351075 0.029988 -0.157401
C17   C     C_R   0.508480 0.639935 0.862607 -0.176332
C18   C     C_R   0.491519 0.360065 0.137393 -0.176331
C19   C     C_R   0.488814 0.439123 0.867588 -0.180205
C20   C     C_R   0.511186 0.560877 0.132412 -0.180205
C21   C     C_R   0.493809 0.447171 0.974231 0.160233
C22   C     C_R   0.506191 0.552828 0.025769 0.160233
H5    H     H_    0.520963 0.642243 0.171692 0.177996
H6    H     H_    0.479037 0.357756 0.828308 0.177996
H7    H     H_    0.484695 0.285633 0.180405 0.176043
H8    H     H_    0.515305 0.714366 0.819595 0.176043
H9    H     H_    0.522150 0.730282 0.009284 0.160954
H10   H     H_    0.477850 0.269718 0.990716 0.160955
N1    N     N_R   0.523490 0.207800 0.519350 -0.123964
N2    N     N_R   0.476510 0.792200 0.480650 -0.123964
C23   C     C_R   0.374078 0.955457 0.408243 0.066638
C24   C     C_R   0.625922 0.044543 0.591757 0.066638
C25   C     C_R   0.387701 0.839109 0.416717 -0.002449
C26   C     C_R   0.612299 0.160891 0.583283 -0.002450
C27   C     C_R   0.554857 0.857099 0.538289 -0.008882
C28   C     C_R   0.445143 0.142901 0.461711 -0.008882
C29   C     C_R   0.546055 0.975025 0.533101 0.000548
C30   C     C_R   0.453945 0.024975 0.466899 0.000548
H11   H     H_    0.376530 0.184118 0.411777 0.160708
H12   H     H_    0.623470 0.815882 0.588223 0.160708
H13   H     H_    0.673409 0.214448 0.627798 0.161451
H14   H     H_    0.326591 0.785552 0.372202 0.161451
N3    N     N_R   0.086092 0.432734 0.691448 0.216837
O9    O     O_R   0.004317 0.406026 0.759798 -0.356808
O10   O     O_R   0.206270 0.430316 0.715012 -0.398285
N4    N     N_R   0.913908 0.567266 0.308552 0.216837
O11   O     O_R   0.995683 0.593974 0.240202 -0.356808
O12   O     O_R   0.793730 0.569684 0.284988 -0.398285
I1    I     I_    0.230865 0.017885 0.306313 -0.342680
I2    I     I_    0.769135 0.982115 0.693687 -0.342680

loop_
_geom_bond_atom_site_label_1
_geom_bond_atom_site_label_2
_geom_bond_distance
_ccdc_geom_bond_type
N2    C27   1.364035 A    
C26   H13   1.081956 S    
C16   C18   1.383469 A    
O7    Zn2   1.995979 S    
N1    C28   1.364035 A    
C5    C7    1.532689 S    
C6    C9    1.539458 S    
C20   H5    1.085247 S    
C1    C14   1.434396 S    
N1    C26   1.359628 A    
C3    C10   1.415712 S    
C28   C30   1.416543 A    
C21   C22   1.411579 A    
N2    C25   1.359627 A    
C6    H2    1.110696 S    
O6    C4    1.275155 A    
Zn1   N1    2.010683 S    
C5    C11   1.554974 S    
C29   C30   1.415591 A    
C6    C12   1.554974 S    
C27   H12   1.080052 S    
C8    C10   1.519842 S    
N4    O12   1.299881 A    
O5    C3    1.275155 A    
O7    C3    1.278224 A    
C15   C22   1.397939 A    
N3    O9    1.300364 A    
O2    C2    1.285957 A    
O3    Zn2   2.013670 S    
O8    C4    1.278225 A    
C16   C21   1.397939 A    
N4    O11   1.300364 A    
C15   C17   1.383469 A    
O1    C1    1.285957 A    
C24   C29   1.413662 A    
C8    N4    1.457729 S    
C13   C20   1.396671 A    
C19   C21   1.373697 A    
C12   H4    1.110644 S    
C14   C19   1.396671 A    
Zn2   N2    2.010683 S    
C20   C22   1.373697 A    
C11   H3    1.110644 S    
C9    C11   1.536036 S    
O2    Zn2   1.989523 S    
C10   C12   1.536036 S    
N3    O10   1.299881 A    
C28   H11   1.080051 S    
O1    Zn1   1.989525 S    
C8    C11   1.533709 S    
C7    C12   1.533709 S    
C24   C26   1.403509 A    
O3    C1    1.288698 A    
O5    Zn1   1.994682 S    
C17   H8    1.083490 S    
C6    C8    1.532689 S    
O4    C2    1.288699 A    
C5    C10   1.539458 S    
C23   C25   1.403509 A    
C7    N3    1.457729 S    
O4    Zn1   2.013667 S    
C18   H7    1.083490 S    
C16   H10   1.084255 S    
C19   H6    1.085247 S    
O6    Zn2   1.994684 S    
C23   C30   1.413662 A    
C15   H9    1.084255 S    
C13   C18   1.399986 A    
C5    H1    1.110696 S    
C4    C9    1.415712 S    
C23   I1    2.124316 S    
C14   C17   1.399986 A    
C7    C9    1.519842 S    
C2    C13   1.434396 S    
C24   I2    2.124316 S    
C25   H14   1.081956 S    
C27   C29   1.416542 A    
O8    Zn1   1.995979 S    
