data_mof_unit_49660.cif
_audit_creation_date              2012-12-10T17:54:27-0500
_audit_creation_method            fapswitch 2.2
_symmetry_space_group_name_H-M    P1
_symmetry_Int_Tables_number       1
_space_group_crystal_system       triclinic
_cell_length_a                    27.701013
_cell_length_b                    10.67446
_cell_length_c                    9.904742
_cell_angle_alpha                 90.248925
_cell_angle_beta                  89.600361
_cell_angle_gamma                 93.352914
_cell_volume                      2923.6591635

loop_
_atom_site_label
_atom_site_type_symbol
_atom_type_description
_atom_site_fract_x
_atom_site_fract_y
_atom_site_fract_z
_atom_type_partial_charge
C1    C     C_R   0.502797 0.258948 0.500666 0.871654
C2    C     C_R   0.972851 0.404709 0.466095 -0.032122
C3    C     C_R   0.976574 0.628315 0.530735 0.071995
C4    C     C_R   0.406132 0.502281 0.500322 0.880367
C5    C     C_R   0.949327 0.515325 0.497024 0.026333
C6    C     C_R   0.945292 0.287991 0.463364 0.170536
C7    C     C_R   0.894071 0.285193 0.458361 0.055678
C8    C     C_R   0.870700 0.400856 0.464224 -0.094132
C9    C     C_R   0.898332 0.513467 0.493954 -0.077451
C10   C     C_R   0.874922 0.625361 0.519990 0.006187
C11   C     C_R   0.824610 0.623809 0.516544 0.496478
C12   C     C_R   0.277050 0.501172 0.622620 0.152508
C13   C     C_R   0.820328 0.409324 0.447022 0.504210
C14   C     C_R   0.723248 0.437909 0.584055 -0.143005
C15   C     C_R   0.672805 0.424379 0.588315 0.073105
C16   C     C_R   0.508423 0.738312 0.500646 0.901044
C17   C     C_R   0.671008 0.573067 0.401056 -0.263411
C18   C     C_R   0.721145 0.580890 0.395368 -0.107712
C19   C     C_R   0.747187 0.513591 0.487269 0.298622
C20   C     C_R   0.023655 0.413603 0.445798 0.056782
C21   C     C_R   0.050908 0.521862 0.490816 0.061055
C22   C     C_R   0.027587 0.628121 0.538376 0.044910
C23   C     C_R   0.253155 0.518716 0.499117 0.307903
C24   C     C_R   0.048065 0.319563 0.377195 -0.176445
C25   C     C_R   0.106398 0.730374 0.591027 -0.140347
C26   C     C_R   0.951841 0.738116 0.554938 -0.219055
C27   C     C_R   0.901942 0.736223 0.550489 -0.164886
C28   C     C_R   0.593751 0.496799 0.499701 0.825649
C29   C     C_R   0.056281 0.730845 0.590740 -0.223295
C30   C     C_R   0.499020 0.106009 0.758620 -0.207782
C31   C     C_R   0.511132 0.047230 0.877736 -0.205835
C32   C     C_R   0.534816 0.936565 0.873326 0.267520
C33   C     C_R   0.541597 0.878515 0.748521 -0.189867
C34   C     C_R   0.101966 0.523592 0.487958 -0.055071
C35   C     C_R   0.526769 0.935192 0.627802 0.075619
C36   C     C_R   0.512543 0.058616 0.630189 0.073642
C37   C     C_R   0.513189 0.126170 0.504449 -0.163077
C38   C     C_R   0.529658 0.065637 0.384823 0.097147
C39   C     C_R   0.528526 0.935801 0.384038 -0.247132
C40   C     C_R   0.175800 0.421605 0.438381 0.482867
C41   C     C_R   0.522876 0.870525 0.504422 -0.161238
C42   C     C_R   0.420346 0.369624 0.133546 0.238963
C43   C     C_R   0.378110 0.345360 0.058162 -0.238524
C44   C     C_R   0.381255 0.339117 0.919681 -0.247285
C45   C     C_R   0.125414 0.421134 0.433493 -0.016369
C46   C     C_R   0.424649 0.373655 0.856824 -0.178074
C47   C     C_R   0.462265 0.438484 0.926972 0.136787
C48   C     C_R   0.461621 0.436750 0.071777 0.117597
C49   C     C_R   0.537166 0.554191 0.071151 -0.159604
C50   C     C_R   0.537187 0.553913 0.928140 -0.128836
C51   C     C_R   0.180032 0.625518 0.539134 0.489937
C52   C     C_R   0.279470 0.531322 0.378486 -0.124012
C53   C     C_R   0.329293 0.525452 0.378713 -0.240799
C54   C     C_R   0.327401 0.498278 0.621694 -0.248850
C55   C     C_3   0.551365 0.131822 0.260339 -0.404707
C56   C     C_R   0.098169 0.321757 0.373951 -0.160994
C57   C     C_3   0.600629 0.197540 0.292211 -0.315785
C58   C     C_3   0.620681 0.273200 0.171852 -0.841343
C59   C     C_3   0.250051 0.481128 0.754912 -0.437274
C60   C     C_3   0.230410 0.344557 0.768789 -0.352052
C61   C     C_3   0.205264 0.322517 0.904914 -0.843152
C62   C     C_3   0.598763 0.870613 0.016796 -0.865742
C63   C     C_3   0.425054 0.160278 0.220915 -0.790338
C64   C     C_3   0.650061 0.330277 0.688225 -0.446229
C65   C     C_3   0.663023 0.195647 0.654041 -0.340853
C66   C     C_3   0.646438 0.105224 0.765902 -0.873668
C67   C     C_R   0.129602 0.627676 0.539309 -0.016650
C68   C     C_3   0.865520 0.158246 0.460342 -0.347390
C69   C     C_3   0.858283 0.105653 0.316651 -0.327781
C70   C     C_3   0.826056 0.984773 0.317014 -0.804982
C71   C     C_3   0.982285 0.147350 0.618642 -0.785315
C72   C     C_R   0.353571 0.508409 0.500307 -0.073988
C73   C     C_R   0.646390 0.496736 0.497622 -0.058526
H1    H     H_    0.346072 0.486462 0.715764 0.170654
H2    H     H_    0.502444 0.088847 0.973695 0.137218
H3    H     H_    0.559069 0.790583 0.746132 0.152789
H4    H     H_    0.532937 0.885354 0.289986 0.180734
H5    H     H_    0.567378 0.599401 0.124527 0.152525
H6    H     H_    0.345688 0.304505 0.106346 0.162138
H7    H     H_    0.351395 0.296951 0.862129 0.163885
H8    H     H_    0.428498 0.343484 0.754864 0.198132
H9    H     H_    0.567565 0.598398 0.874251 0.145233
H10   H     H_    0.115418 0.245347 0.324354 0.190059
H11   H     H_    0.744490 0.386960 0.654469 0.130287
H12   H     H_    0.261015 0.544672 0.284026 0.144958
H13   H     H_    0.028891 0.244686 0.322365 0.164618
H14   H     H_    0.348732 0.534885 0.283734 0.168462
H15   H     H_    0.625187 0.210849 0.083139 0.248920
H16   H     H_    0.595889 0.347134 0.145218 0.271068
H17   H     H_    0.656441 0.318957 0.198088 0.260967
H18   H     H_    0.597450 0.261306 0.379893 0.223292
H19   H     H_    0.626540 0.125931 0.318504 0.214744
H20   H     H_    0.557436 0.062801 0.178957 0.214893
H21   H     H_    0.527037 0.197226 0.214093 0.238401
H22   H     H_    0.231122 0.342438 0.988627 0.266840
H23   H     H_    0.126887 0.810832 0.632784 0.189070
H24   H     H_    0.174399 0.383823 0.915696 0.262292
H25   H     H_    0.191286 0.223116 0.911968 0.257597
H26   H     H_    0.204098 0.320786 0.687269 0.247866
H27   H     H_    0.260664 0.280934 0.759749 0.229673
H28   H     H_    0.274703 0.504453 0.840802 0.206021
H29   H     H_    0.220121 0.545246 0.763907 0.230084
H30   H     H_    0.527553 0.796525 0.013852 0.238595
H31   H     H_    0.604839 0.831293 0.118457 0.239610
H32   H     H_    0.617484 0.965348 0.012023 0.265609
H33   H     H_    0.614389 0.808436 0.939827 0.241090
H34   H     H_    0.970093 0.828287 0.574024 0.138342
H35   H     H_    0.395390 0.304689 0.316271 0.224533
H36   H     H_    0.433890 0.109442 0.314049 0.243827
H37   H     H_    0.452245 0.142939 0.141948 0.230427
H38   H     H_    0.389229 0.121389 0.185486 0.235203
H39   H     H_    0.667270 0.126713 0.859407 0.255565
H40   H     H_    0.607468 0.113571 0.787329 0.280298
H41   H     H_    0.652317 0.007314 0.734313 0.260746
H42   H     H_    0.645086 0.165261 0.558602 0.219193
H43   H     H_    0.702645 0.189804 0.640196 0.239257
H44   H     H_    0.663207 0.356277 0.791025 0.210722
H45   H     H_    0.651318 0.627846 0.330424 0.154942
H46   H     H_    0.610225 0.329732 0.691779 0.235573
H47   H     H_    0.843177 0.911367 0.375875 0.270093
H48   H     H_    0.790086 0.001731 0.361518 0.281673
H49   H     H_    0.820886 0.950409 0.211842 0.239245
H50   H     H_    0.841673 0.175245 0.251203 0.265497
H51   H     H_    0.893776 0.085954 0.270945 0.193430
H52   H     H_    0.883796 0.089199 0.522370 0.178216
H53   H     H_    0.830648 0.163816 0.514876 0.235983
H54   H     H_    0.956326 0.096983 0.426816 0.220291
H55   H     H_    0.003443 0.062195 0.620397 0.230597
H56   H     H_    0.884629 0.822893 0.570412 0.176168
H57   H     H_    0.949310 0.130557 0.681955 0.230961
H58   H     H_    0.005014 0.226686 0.661757 0.260015
H59   H     H_    0.739764 0.639032 0.319793 0.146322
H60   H     H_    0.041055 0.811819 0.635846 0.139096
H61   H     H_    0.477599 0.184688 0.772990 0.180977
N1    N     N_R   0.201781 0.521570 0.493650 -0.352413
N2    N     N_R   0.798685 0.516958 0.480422 -0.342579
N3    N     N_R   0.499540 0.498800 0.142780 -0.113885
N4    N     N_R   0.499520 0.498720 0.857170 -0.112693
N5    N     N_2   0.547453 0.879120 0.995783 -0.330325
N6    N     N_2   0.423680 0.293475 0.249919 -0.240383
N7    N     N_2   0.969220 0.174200 0.481032 -0.322358
O1    O     O_R   0.500000 0.316780 0.614690 -0.655568
O2    O     O_R   0.571250 0.499990 0.614680 -0.638904
O3    O     O_R   0.571240 0.499970 0.385350 -0.623577
O4    O     O_2   0.198748 0.322522 0.389933 -0.574803
O5    O     O_2   0.792787 0.313281 0.394287 -0.592359
O6    O     O_2   0.207213 0.725859 0.584526 -0.567804
O7    O     O_2   0.801581 0.727761 0.549785 -0.586745
O8    O     O_R   0.500000 0.316750 0.385360 -0.578907
O9    O     O_R   0.428760 0.500030 0.614650 -0.627786
O10   O     O_R   0.428750 0.500010 0.385320 -0.619577
O11   O     O_R   0.500000 0.683250 0.614640 -0.612203
O12   O     O_R   0.500000 0.683220 0.385310 -0.612799
Zn1   Zn    Zn3+2 0.500000 0.500020 0.653130 0.927016
Zn2   Zn    Zn3+2 0.500000 0.499980 0.346870 0.949024

loop_
_geom_bond_atom_site_label_1
_geom_bond_atom_site_label_2
_ccdc_geom_bond_type
C10   C27   A    
C29   H60   S    
C8    C13   A    
C57   H19   S    
C49   N3    A    
C63   N6    S    
C18   H59   S    
C61   H25   S    
C25   C67   A    
C14   H11   S    
C55   H20   S    
C60   H26   S    
C57   C58   S    
C7    C8    A    
C39   C41   A    
C62   H32   S    
C31   C32   A    
C12   C23   A    
C26   C27   A    
C64   H46   S    
C48   N3    A    
C39   H4    S    
C36   C37   A    
C22   C29   A    
C30   C31   A    
C11   O7    S    
C69   H50   S    
C43   H6    S    
C49   H5    S    
N3    Zn2   S    
C18   C19   A    
H54   N7    S    
C1    O1    A    
C7    C68   S    
C54   H1    S    
C12   C59   S    
C51   N1    A    
C38   C55   S    
C20   C24   A    
C45   C56   A    
C70   H47   S    
C8    C9    A    
C30   H61   S    
C15   C64   S    
C1    O8    A    
C28   O3    A    
O10   Zn2   S    
C62   N5    S    
O12   Zn2   S    
C66   H41   S    
C9    C10   A    
C1    C37   S    
C71   N7    S    
N4    Zn1   S    
C59   C60   S    
C21   C22   A    
C17   C73   A    
C65   H42   S    
C2    C6    A    
C13   O5    S    
C55   H21   S    
C28   C73   S    
C44   C46   A    
C62   H31   S    
C25   C29   A    
C40   C45   A    
C40   N1    A    
C42   N6    S    
C59   H28   S    
C44   H7    S    
C32   N5    S    
C16   O11   A    
H35   N6    S    
C68   C69   S    
O2    Zn1   S    
C42   C48   A    
C21   C34   A    
C69   H51   S    
C60   H27   S    
C19   N2    S    
C2    C20   A    
C64   H44   S    
C60   C61   S    
C35   C36   A    
C63   H36   S    
C43   C44   A    
C5    C9    A    
C37   C38   A    
H30   N5    S    
C46   H8    S    
C70   H49   S    
C33   H3    S    
C31   H2    S    
C47   C48   A    
C51   O6    S    
C50   N4    A    
C17   C18   A    
C53   H14   S    
C28   O2    A    
C51   C67   A    
O1    Zn1   S    
C6    N7    S    
C58   H17   S    
C34   C45   A    
C17   H45   S    
C40   O4    S    
C15   C73   A    
O11   Zn1   S    
C49   C50   A    
C66   H40   S    
C55   C57   S    
C27   H56   S    
C65   H43   S    
C71   H55   S    
C2    C5    A    
C42   C43   A    
C68   H53   S    
C4    C72   S    
C52   C53   A    
C50   H9    S    
C56   H10   S    
C4    O10   A    
C46   C47   A    
C52   H12   S    
C13   N2    A    
C57   H18   S    
C59   H29   S    
C14   C19   A    
C3    C26   A    
C61   H24   S    
C3    C5    A    
C58   H15   S    
C26   H34   S    
C61   H22   S    
C6    C7    A    
C62   H33   S    
C30   C36   A    
C24   C56   A    
C4    O9    A    
C23   N1    S    
C64   C65   S    
C63   H37   S    
O8    Zn2   S    
C11   N2    A    
C32   C33   A    
C71   H57   S    
C70   H48   S    
C23   C52   A    
C38   C39   A    
O3    Zn2   S    
C16   C41   S    
C47   N4    A    
C33   C35   A    
C63   H38   S    
C69   C70   S    
C35   C41   A    
C58   H16   S    
C10   C11   A    
C71   H58   S    
C34   C67   A    
C54   C72   A    
C20   C21   A    
C25   H23   S    
C65   C66   S    
O9    Zn1   S    
C16   O12   A    
C14   C15   A    
C3    C22   A    
C66   H39   S    
C53   C72   A    
C24   H13   S    
C68   H52   S    
C12   C54   A    
