data_mof_unit_8077.cif
_audit_creation_date              2012-12-11T17:14:08-0500
_audit_creation_method            fapswitch 2.2
_symmetry_space_group_name_H-M    P1
_symmetry_Int_Tables_number       1
_space_group_crystal_system       triclinic
_cell_length_a                    18.189525
_cell_length_b                    7.10286
_cell_length_c                    13.09519
_cell_angle_alpha                 90.00006
_cell_angle_beta                  72.38949
_cell_angle_gamma                 90.000014
_cell_volume                      1612.57870139

loop_
_atom_site_label
_atom_site_type_symbol
_atom_type_description
_atom_site_fract_x
_atom_site_fract_y
_atom_site_fract_z
_atom_type_partial_charge
O1    O     O_R   0.453880 0.506200 0.150010 -0.544727
O2    O     O_R   0.546120 0.006200 0.849990 -0.544728
O3    O     O_R   0.604080 0.177770 0.007280 -0.537725
O4    O     O_R   0.395920 0.677770 0.992720 -0.537725
C1    C     C_R   0.636492 0.344306 0.999053 0.804296
C2    C     C_R   0.363508 0.844306 0.000947 0.804295
O5    O     O_R   0.458010 0.176640 0.159130 -0.535718
O6    O     O_R   0.541990 0.676640 0.840870 -0.535716
O7    O     O_R   0.399010 0.004010 0.002930 -0.522085
O8    O     O_R   0.600990 0.504010 0.997070 -0.522084
C3    C     C_R   0.443798 0.344747 0.201464 0.860017
C4    C     C_R   0.556203 0.844747 0.798536 0.860017
O9    O     O_3   0.480810 0.338440 0.948570 -0.394594
O10   O     O_3   0.519190 0.838440 0.051430 -0.394592
V1    V     V_3+5 0.503560 0.064490 0.009540 1.576565
V2    V     V_3+5 0.496440 0.564490 0.990460 1.576568
C5    C     C_R   0.572811 0.829337 0.504940 -0.121287
C6    C     C_R   0.427189 0.329343 0.495060 -0.121293
H1    H     H_    0.535054 0.804360 0.456860 0.186468
H2    H     H_    0.464946 0.304370 0.543140 0.186470
C7    C     C_R   0.587132 0.850099 0.681454 -0.212515
C8    C     C_R   0.412867 0.350100 0.318546 -0.212514
C9    C     C_R   0.944809 0.889366 0.383890 -0.172368
C10   C     C_R   0.055191 0.389362 0.616109 -0.172369
C11   C     C_R   0.912711 0.937922 0.490540 -0.157531
C12   C     C_R   0.087288 0.437916 0.509460 -0.157531
C13   C     C_R   0.832807 0.957175 0.534762 -0.021657
C14   C     C_R   0.167193 0.457170 0.465238 -0.021658
C15   C     C_R   0.783036 0.893397 0.475540 0.019813
C16   C     C_R   0.216964 0.393395 0.524460 0.019813
C17   C     C_R   0.815795 0.871900 0.362189 -0.007117
C18   C     C_R   0.184205 0.371900 0.637811 -0.007117
C19   C     C_R   0.701802 0.864415 0.523379 -0.058078
C20   C     C_R   0.298198 0.364415 0.476621 -0.058077
C21   C     C_R   0.653185 0.844074 0.457211 0.002448
C22   C     C_R   0.346815 0.344077 0.542789 0.002447
C23   C     C_R   0.685064 0.840270 0.344795 -0.027942
C24   C     C_R   0.314935 0.340271 0.655204 -0.027942
C25   C     C_R   0.765078 0.863748 0.298131 -0.084811
C26   C     C_R   0.234922 0.363749 0.701869 -0.084808
C27   C     C_R   0.667465 0.843252 0.635435 0.556743
C28   C     C_R   0.332535 0.343251 0.364565 0.556742
C29   C     C_R   0.538624 0.845963 0.615329 -0.134675
C30   C     C_R   0.461376 0.345967 0.384670 -0.134674
C31   C     C_R   0.898315 0.868714 0.317176 -0.068645
C32   C     C_R   0.101685 0.368713 0.682824 -0.068646
H3    H     H_    0.007124 0.886237 0.350727 0.134692
H4    H     H_    0.992876 0.386232 0.649273 0.134693
H5    H     H_    0.951179 0.977074 0.536078 0.149659
H6    H     H_    0.048821 0.477065 0.463922 0.149659
C33   C     C_1   0.215538 0.859202 0.003939 -0.065130
C34   C     C_1   0.784461 0.359202 0.996061 -0.065132
C35   C     C_1   0.282824 0.852643 0.002937 -0.085415
C36   C     C_1   0.717176 0.352642 0.997063 -0.085417
O11   O     O_R   0.899030 0.205490 0.002790 -0.532347
O12   O     O_R   0.100970 0.705490 0.997210 -0.532348
O13   O     O_R   0.042000 0.536370 0.840840 -0.536699
O14   O     O_R   0.958000 0.036370 0.159160 -0.536698
C37   C     C_R   0.061071 0.369225 0.798951 0.695243
C38   C     C_R   0.938929 0.869225 0.201049 0.695242
O15   O     O_R   0.895930 0.535070 0.992690 -0.526315
O16   O     O_R   0.104070 0.035070 0.007310 -0.526314
O17   O     O_R   0.953870 0.707520 0.150040 -0.533196
O18   O     O_R   0.046130 0.207520 0.849960 -0.533195
C39   C     C_R   0.864627 0.366811 0.996638 0.787876
C40   C     C_R   0.135373 0.866811 0.003362 0.787875
O19   O     O_3   0.019200 0.374340 0.051340 -0.378297
O20   O     O_3   0.980800 0.874340 0.948660 -0.378298
V3    V     V_3+5 0.996440 0.648350 0.990470 1.542418
V4    V     V_3+5 0.003560 0.148350 0.009530 1.542420
C41   C     C_2   0.452547 0.850588 0.656880 0.826710
O21   O     O_2   0.414728 0.877105 0.595137 -0.557883
O22   O     O_R   0.413969 0.822344 0.765155 -0.660481
H7    H     H_    0.355912 0.819366 0.780478 0.323887
C42   C     C_2   0.547452 0.350594 0.343120 0.826705
O23   O     O_2   0.585272 0.377109 0.404863 -0.557883
O24   O     O_R   0.586031 0.322354 0.234844 -0.660483
H8    H     H_    0.644087 0.319377 0.219521 0.323885
C43   C     C_2   0.635228 0.818737 0.273245 0.755344
O25   O     O_2   0.651300 0.700374 0.202193 -0.539779
O26   O     O_R   0.571804 0.936678 0.285000 -0.667554
H9    H     H_    0.541911 0.904922 0.233464 0.314226
C44   C     C_2   0.364771 0.318732 0.726755 0.755345
O27   O     O_2   0.348699 0.200364 0.797804 -0.539780
O28   O     O_R   0.428196 0.436671 0.715003 -0.667554
H10   H     H_    0.458088 0.404911 0.766540 0.314227
F1    F     F_    0.710713 0.797593 0.700182 -0.683444
F2    F     F_    0.289287 0.297587 0.299818 -0.683443
C45   C     C_2   0.806001 0.077359 0.632488 0.888533
O29   O     O_2   0.836040 0.061124 0.703793 -0.528833
O30   O     O_R   0.748444 0.213360 0.643504 -0.637301
H11   H     H_    0.731828 0.228987 0.576827 0.262634
C46   C     C_2   0.193998 0.577352 0.367511 0.888532
O31   O     O_2   0.163959 0.561113 0.296206 -0.528832
O32   O     O_R   0.251555 0.713355 0.356494 -0.637301
H12   H     H_    0.268170 0.728985 0.423171 0.262634
C47   C     C_2   0.788803 0.939704 0.188737 0.742142
O33   O     O_2   0.789903 0.110151 0.177514 -0.573202
O34   O     O_R   0.803102 0.820035 0.100419 -0.630273
H13   H     H_    0.813909 0.891067 0.030316 0.307912
C48   C     C_2   0.211197 0.439704 0.811264 0.742140
O35   O     O_2   0.210099 0.610151 0.822486 -0.573203
O36   O     O_R   0.196896 0.320034 0.899581 -0.630274
H14   H     H_    0.186090 0.391065 0.969684 0.307912

loop_
_geom_bond_atom_site_label_1
_geom_bond_atom_site_label_2
_ccdc_geom_bond_type
C16   C18   A    
C31   C38   S    
C46   O31   D    
C9    C31   A    
C32   C37   S    
C13   C15   A    
O22   H7    S    
O32   H12   S    
O1    C3    A    
O2    C4    A    
C2    O7    A    
O26   H9    S    
O24   H8    S    
O5    C3    A    
C23   C43   S    
C37   O18   A    
C48   O35   D    
C38   O17   A    
C21   C23   A    
C10   C12   A    
C12   H6    S    
C24   C44   S    
C25   C47   S    
O14   C38   A    
C15   C19   A    
O16   V4    S    
C46   O32   S    
C47   O34   S    
C26   C48   S    
C7    C29   A    
C8    C30   A    
O34   H13   S    
O20   V3    S    
C20   C28   A    
O18   V4    S    
C45   O30   S    
C20   C22   A    
O5    V1    S    
O6    V2    S    
O11   C39   A    
C34   C36   T    
C47   O33   D    
C27   F1    S    
C9    H3    S    
C16   C20   A    
C10   H4    S    
O17   V3    S    
C1    C36   S    
O4    C2    A    
O30   H11   S    
C41   O22   S    
O16   C40   A    
O14   V4    S    
O28   H10   S    
C4    C7    S    
C14   C46   S    
C33   C35   T    
C33   C40   S    
O4    V2    S    
C30   C42   S    
C42   O23   D    
C5    C29   A    
C6    C30   A    
C44   O27   D    
O6    C4    A    
O1    V2    S    
O2    V1    S    
C42   O24   S    
C7    C27   A    
O20   V4    S    
C44   O28   S    
C28   F2    S    
C2    C35   S    
C5    H1    S    
O3    V1    S    
C43   O26   S    
O15   V3    S    
C29   C41   S    
C18   C32   A    
O3    C1    A    
C11   C13   A    
C3    C8    S    
C12   C14   A    
O19   V4    S    
C19   C27   A    
C22   C24   A    
O7    V1    S    
C10   C32   A    
C1    O8    A    
C15   C17   A    
O8    V2    S    
C24   C26   A    
C8    C28   A    
O12   C40   A    
C14   C16   A    
C19   C21   A    
C17   C25   A    
C13   C45   S    
C6    H2    S    
C18   C26   A    
C11   H5    S    
O11   V4    S    
O13   C37   A    
O19   V3    S    
C43   O25   D    
O15   C39   A    
C23   C25   A    
C9    C11   A    
C41   O21   D    
C48   O36   S    
O12   V3    S    
C17   C31   A    
O9    V2    S    
O36   H14   S    
O10   V1    S    
C5    C21   A    
O13   V3    S    
C45   O29   D    
C6    C22   A    
C34   C39   S    
