data_mof_unit_17480.cif
_audit_creation_date              2013-03-05T16:59:51-0500
_audit_creation_method            fapswitch 2.2
_symmetry_space_group_name_H-M    P1
_symmetry_Int_Tables_number       1
_space_group_crystal_system       triclinic
_cell_length_a                    10.760431
_cell_length_b                    16.258072
_cell_length_c                    16.828923
_cell_angle_alpha                 87.166711
_cell_angle_beta                  95.844298
_cell_angle_gamma                 104.564021
_cell_volume                      2833.83532631

loop_
_atom_site_label
_atom_site_type_symbol
_atom_site_description
_atom_site_fract_x
_atom_site_fract_y
_atom_site_fract_z
_atom_type_partial_charge
O1    O     O_R   0.494500 0.421750 0.612630 -0.559492
O2    O     O_R   0.505500 0.578250 0.387370 -0.598619
O3    O     O_R   0.504370 0.562470 0.618930 -0.591822
O4    O     O_R   0.495630 0.437530 0.381070 -0.600519
C1    C     C_R   0.495788 0.488309 0.652481 0.886595
C2    C     C_R   0.498802 0.511135 0.347004 0.905108
O5    O     O_R   0.679100 0.455920 0.498020 -0.588926
O6    O     O_R   0.320900 0.544080 0.501980 -0.547272
O7    O     O_R   0.688960 0.596630 0.504320 -0.553979
O8    O     O_R   0.311040 0.403370 0.495680 -0.561920
C3    C     C_R   0.743491 0.534197 0.505037 0.971849
C4    C     C_R   0.257563 0.464923 0.500151 0.968376
Zn1   Zn    Zn3+2 0.493410 0.406040 0.495790 1.082865
Zn2   Zn    Zn3+2 0.506590 0.593960 0.504210 1.098865
H1    H     H_    0.128074 0.548717 0.574763 0.221854
H2    H     H_    0.875780 0.419694 0.513179 0.224728
C5    C     C_2   0.881313 0.549806 0.522986 -0.303638
C6    C     C_2   0.121169 0.443706 0.504085 -0.274047
C7    C     C_2   0.933103 0.483369 0.527645 -0.112287
C8    C     C_2   0.069531 0.494711 0.541474 -0.167920
H3    H     H_    0.062236 0.387906 0.473248 0.195509
H4    H     H_    0.938815 0.613697 0.535384 0.201216
C9    C     C_R   0.474995 0.479572 0.736462 -0.053634
C10   C     C_R   0.481840 0.516178 0.260300 -0.048292
C11   C     C_R   0.518639 0.550846 0.784256 -0.186510
C12   C     C_R   0.468104 0.442644 0.216899 -0.164258
C13   C     C_R   0.490482 0.546164 0.862669 -0.150644
C14   C     C_R   0.441067 0.444427 0.135008 -0.143094
C15   C     C_R   0.416998 0.469693 0.894621 0.310368
C16   C     C_R   0.428999 0.520565 0.094869 0.309810
C17   C     C_R   0.372706 0.398621 0.846726 -0.152035
C18   C     C_R   0.443605 0.594008 0.138092 -0.153600
C19   C     C_R   0.400152 0.403693 0.767421 -0.136904
C20   C     C_R   0.469691 0.592057 0.220583 -0.132947
N1    N     N_2   0.399685 0.459749 0.976651 -0.181656
N2    N     N_2   0.420542 0.528641 0.010961 -0.184816
H5    H     H_    0.477781 0.383368 0.246037 0.183580
H6    H     H_    0.574260 0.610533 0.761191 0.218938
H7    H     H_    0.433408 0.386769 0.103271 0.166277
H8    H     H_    0.528884 0.601964 0.898524 0.172638
H9    H     H_    0.317206 0.339384 0.871036 0.171811
H10   H     H_    0.437225 0.653204 0.107474 0.175770
H11   H     H_    0.360463 0.349269 0.730025 0.202411
H12   H     H_    0.480019 0.649639 0.253030 0.217288
N3    N     N_R   0.515370 0.719110 0.509820 -0.216101
N4    N     N_R   0.484630 0.280890 0.490180 -0.206729
C21   C     C_R   0.443226 0.756013 0.451003 0.334496
C22   C     C_R   0.542089 0.237330 0.551786 0.316693
C23   C     C_R   0.474967 0.845944 0.436502 0.273888
C24   C     C_R   0.522368 0.146518 0.549558 0.253701
C25   C     C_R   0.546970 0.899150 0.496847 0.124290
C26   C     C_R   0.481169 0.105853 0.476144 0.142658
C27   C     C_R   0.613283 0.861766 0.557566 -0.346367
C28   C     C_R   0.424434 0.150199 0.416106 -0.365505
C29   C     C_R   0.607994 0.774113 0.559003 0.453038
C30   C     C_R   0.411893 0.233029 0.427887 0.389370
N5    N     N_2   0.563483 0.989977 0.497080 -0.030356
N6    N     N_2   0.468737 0.016375 0.466864 0.003119
H13   H     H_    0.679712 0.903456 0.599588 0.270090
H14   H     H_    0.374453 0.115098 0.364438 0.237628
S1    S     S_3+6 0.744652 0.747937 0.612780 0.056105
O9    O     O_2   0.719019 0.660812 0.650400 -0.311584
O10   O     O_2   0.846061 0.756268 0.555675 -0.281796
O11   O     O_3   0.803641 0.818090 0.685880 -0.537997
H15   H     H_    0.888705 0.808003 0.705375 0.399492
S2    S     S_3+6 0.266612 0.253849 0.380605 0.079179
O12   O     O_2   0.172047 0.242284 0.442571 -0.226344
O13   O     O_2   0.281333 0.340994 0.343559 -0.299910
O14   O     O_3   0.202431 0.183160 0.308601 -0.499880
H16   H     H_    0.258636 0.200467 0.264431 0.348056
S3    S     S_3+6 0.635988 0.287612 0.638858 0.104068
O15   O     O_2   0.547154 0.287081 0.702189 -0.269499
O16   O     O_2   0.731299 0.237519 0.669961 -0.214377
O17   O     O_3   0.722618 0.387275 0.626696 -0.553012
H17   H     H_    0.759321 0.406134 0.681104 0.375203
S4    S     S_3+6 0.288664 0.699343 0.408282 0.103895
O18   O     O_2   0.224496 0.754474 0.352569 -0.203520
O19   O     O_2   0.293374 0.623131 0.363248 -0.276600
O20   O     O_3   0.195564 0.669426 0.483578 -0.571277
H18   H     H_    0.106494 0.661697 0.458075 0.379862
S5    S     S_3+6 0.522733 0.080412 0.638450 0.119339
O21   O     O_2   0.653395 0.062560 0.656068 -0.245830
O22   O     O_2   0.490874 0.120874 0.709440 -0.181524
O23   O     O_3   0.411218 0.987641 0.624967 -0.527893
H19   H     H_    0.434057 0.949116 0.668345 0.385394
S6    S     S_3+6 0.455271 0.889918 0.338316 0.100631
O24   O     O_2   0.569947 0.962384 0.324856 -0.272383
O25   O     O_2   0.445024 0.823691 0.277058 -0.257037
O26   O     O_3   0.321473 0.926645 0.327778 -0.478123
H20   H     H_    0.322646 0.955789 0.274680 0.386421

loop_
_geom_bond_atom_site_label_1
_geom_bond_atom_site_label_2
_geom_bond_distance
_ccdc_geom_bond_type
S2    O13   1.497008 D    
C13   C15   1.409321 A    
C6    H3    1.088415 S    
C7    C8    1.428914 S    
S4    O20   1.672837 S    
S5    O21   1.503590 D    
C27   H13   1.082238 S    
C21   C23   1.429863 A    
C28   H14   1.081875 S    
O5    C3    1.291652 A    
O1    C1    1.297401 A    
S4    O19   1.498142 D    
C21   S4    1.784146 S    
O14   H16   0.991357 S    
Zn1   N4    2.019488 S    
S6    O25   1.503698 D    
S2    O14   1.683510 S    
O4    Zn1   1.973699 S    
S1    O10   1.502987 D    
N1    N2    1.244755 D    
C9    C19   1.401482 A    
C24   C26   1.407790 A    
C17   C19   1.390106 A    
C25   N5    1.442441 S    
N3    C21   1.400507 A    
S2    O12   1.502908 D    
O2    C2    1.296553 A    
S5    O22   1.500688 D    
C26   C28   1.391800 A    
Zn2   N3    2.019489 S    
N4    C22   1.405635 A    
C27   C29   1.410934 A    
H1    C8    1.086365 S    
C26   N6    1.441834 S    
C28   C30   1.412173 A    
O17   H17   0.990749 S    
C19   H11   1.082411 S    
C20   H12   1.082948 S    
O23   H19   0.990598 S    
O4    C2    1.295181 A    
S3    O16   1.502567 D    
S6    O24   1.503800 D    
C14   H7    1.082809 S    
C23   C25   1.403355 A    
S6    O26   1.682461 S    
C10   C20   1.402683 A    
C25   C27   1.389591 A    
C18   C20   1.388434 A    
S1    O11   1.683075 S    
O7    Zn2   1.951730 S    
C11   H6    1.080986 S    
C1    C9    1.447849 S    
C13   H8    1.082895 S    
O6    C4    1.296216 A    
C2    C10   1.452778 S    
S4    O18   1.501854 D    
O7    C3    1.292916 A    
O3    Zn2   1.973696 S    
O8    C4    1.282238 A    
O1    Zn1   1.993771 S    
C22   S3    1.799398 S    
N4    C30   1.387201 A    
S5    O23   1.683578 S    
C3    C5    1.442942 S    
O6    Zn2   1.955578 S    
C17   H9    1.083099 S    
C23   S6    1.781704 S    
C10   C12   1.400031 A    
O3    C1    1.291662 A    
O8    Zn1   1.951729 S    
S3    O17   1.668167 S    
C12   H5    1.083221 S    
C11   C13   1.377977 A    
C15   N1    1.407744 S    
C12   C14   1.379636 A    
C5    H4    1.085020 S    
C16   N2    1.407469 S    
O11   H15   0.990635 S    
C14   C16   1.409176 A    
S3    O15   1.500713 D    
C15   C17   1.396016 A    
C16   C18   1.395619 A    
N5    N6    1.255016 D    
H2    C7    1.088411 S    
C30   S2    1.782627 S    
C29   S1    1.779927 S    
C22   C24   1.439633 A    
C5    C7    1.329984 D    
C6    C8    1.321669 D    
C9    C11   1.397063 A    
S1    O9    1.494572 D    
O2    Zn2   1.993770 S    
O20   H18   0.989731 S    
O5    Zn1   1.955580 S    
N3    C29   1.391061 A    
C4    C6    1.428398 S    
C18   H10   1.083262 S    
O26   H20   0.990247 S    
C24   S5    1.798595 S    
