data_mof_unit_65442.cif
_audit_creation_date              2012-12-11T19:05:40-0500
_audit_creation_method            fapswitch 2.2
_symmetry_space_group_name_H-M    P1
_symmetry_Int_Tables_number       1
_space_group_crystal_system       triclinic
_cell_length_a                    8.262489
_cell_length_b                    15.119759
_cell_length_c                    22.940215
_cell_angle_alpha                 99.065583
_cell_angle_beta                  89.839483
_cell_angle_gamma                 98.3523
_cell_volume                      2799.44185779

loop_
_atom_site_label
_atom_site_type_symbol
_atom_type_description
_atom_site_fract_x
_atom_site_fract_y
_atom_site_fract_z
_atom_type_partial_charge
Ba1   Ba    Ba6+2 0.856840 0.543240 0.473380 1.695100
Ba2   Ba    Ba6+2 0.332990 0.456840 0.526630 1.669772
Br1   Br    Br    0.802018 0.114651 0.319712 -0.588949
C1    C     C_3   0.710416 0.878182 0.335827 -0.312611
C2    C     C_R   0.195398 0.512804 0.926333 -0.026693
C3    C     C_R   0.151376 0.504791 0.865699 0.644121
C4    C     C_3   0.156833 0.735302 0.319654 0.340066
C5    C     C_R   0.867098 0.481891 0.889564 0.596908
C6    C     C_R   0.908255 0.481882 0.949477 -0.016215
C7    C     C_R   0.072905 0.499582 0.968166 -0.040842
C8    C     C_R   0.359570 0.533199 0.946263 -0.056889
C9    C     C_R   0.400490 0.536910 0.005899 -0.084840
C10   C     C_R   0.279660 0.518578 0.047423 -0.019373
C11   C     C_R   0.115254 0.503465 0.028947 -0.045954
C12   C     C_3   0.678858 0.783890 0.352399 0.300749
C13   C     C_R   0.787868 0.464257 0.991288 -0.083381
C14   C     C_R   0.829011 0.471253 0.051216 -0.060191
C15   C     C_R   0.993169 0.492140 0.071023 -0.033893
C16   C     C_3   0.156395 0.761839 0.258450 -0.338910
C17   C     C_R   0.037625 0.502016 0.131790 0.588305
C18   C     C_R   0.320454 0.513643 0.106648 0.587256
C19   C     C_2   0.815282 0.416715 0.760342 -0.073076
C20   C     C_3   0.772394 0.400933 0.695084 -0.103667
C21   C     C_1   0.002827 0.519775 0.684567 0.029112
C22   C     C_2   0.037709 0.535006 0.742364 -0.097338
C23   C     C_3   0.470782 0.305686 0.342030 0.333988
C24   C     C_2   0.942574 0.479474 0.783953 0.215685
C25   C     C_R   0.401120 0.562532 0.235969 -0.092493
C26   C     C_R   0.454622 0.559364 0.293419 -0.053851
C27   C     C_R   0.191036 0.475888 0.312983 -0.015000
C28   C     C_3   0.231916 0.737100 0.607212 0.311523
C29   C     C_R   0.145419 0.468808 0.252816 -0.088232
C30   C     C_R   0.248228 0.513783 0.212806 0.192788
C31   C     C_2   0.872292 0.465187 0.660735 -0.256338
C32   C     C_R   0.341446 0.827477 0.465440 -0.009389
C33   C     C_R   0.576086 0.793599 0.516212 0.046531
C34   C     C_3   0.432903 0.266255 0.277591 -0.311905
C35   C     C_R   0.758519 0.229718 0.518943 -0.291998
C36   C     C_R   0.851592 0.171373 0.539650 0.010734
C37   C     C_R   0.792648 0.078603 0.533364 -0.141389
C38   C     C_R   0.639709 0.042501 0.504343 0.016489
C39   C     C_R   0.552415 0.102979 0.479612 -0.002135
C40   C     C_3   0.248873 0.839274 0.625906 -0.387408
C41   C     C_R   0.571323 0.948613 0.498100 0.004620
C42   C     C_R   0.415965 0.918378 0.468499 -0.028856
C43   C     C_R   0.337744 0.979428 0.443296 -0.100159
C44   C     C_R   0.405792 0.069137 0.447799 -0.019037
C45   C     C_3   0.000342 0.243805 0.680795 0.288293
C46   C     C_R   0.650091 0.883719 0.521025 -0.141686
C47   C     C_R   0.421738 0.767948 0.490504 -0.267093
C48   C     C_R   0.614133 0.196350 0.486933 0.036435
C49   C     C_3   0.967607 0.265392 0.399163 0.323964
C50   C     C_3   0.958914 0.162952 0.383547 0.090660
C51   C     C_3   0.709484 0.656319 0.649998 0.301625
C52   C     C_3   0.726398 0.678510 0.716898 -0.371086
C53   C     C_2   0.120367 0.238838 0.780525 0.523834
C54   C     C_2   0.401283 0.518503 0.391880 0.574205
C55   C     C_3   0.980771 0.202529 0.737710 -0.270729
C56   C     C_3   0.480902 0.217303 0.655975 0.363183
C57   C     C_3   0.440612 0.129950 0.681560 -0.382142
C58   C     C_R   0.347924 0.517696 0.331491 -0.314332
H1    H     H_    0.753832 0.783808 0.392465 0.098911
H2    H     H_    0.605169 0.601189 0.638791 0.080439
H3    H     H_    0.841758 0.895703 0.325910 0.167267
H4    H     H_    0.836943 0.729128 0.729660 0.117466
H5    H     H_    0.737529 0.616372 0.735691 0.079752
H6    H     H_    0.616557 0.706278 0.735480 0.138633
H7    H     H_    0.547156 0.768797 0.362509 -0.044783
H8    H     H_    0.678084 0.928480 0.373056 0.101588
H9    H     H_    0.357783 0.328740 0.361258 -0.039401
H10   H     H_    0.572928 0.362518 0.343556 0.014341
H11   H     H_    0.331130 0.208834 0.274243 0.137546
H12   H     H_    0.328184 0.860222 0.666166 0.124958
H13   H     H_    0.396061 0.319097 0.253928 0.050233
H14   H     H_    0.542841 0.241925 0.256463 0.161464
H15   H     H_    0.634718 0.881077 0.296432 0.139833
H16   H     H_    0.191387 0.706439 0.225307 0.075727
H17   H     H_    0.057943 0.315900 0.690516 0.058328
H18   H     H_    0.875440 0.240399 0.662599 -0.052649
H19   H     H_    0.864696 0.218322 0.758778 0.079277
H20   H     H_    0.971251 0.127624 0.727403 0.075064
H21   H     H_    0.612768 0.224789 0.645815 -0.083628
H22   H     H_    0.411442 0.210750 0.613891 0.103862
H23   H     H_    0.304427 0.874712 0.590334 0.061435
H24   H     H_    0.478743 0.072944 0.650476 0.075860
H25   H     H_    0.307290 0.114571 0.688452 0.137379
H26   H     H_    0.069238 0.672044 0.319025 0.096017
H27   H     H_    0.507134 0.136101 0.724344 0.111933
H28   H     H_    0.732241 0.457963 0.081856 0.175343
H29   H     H_    0.661400 0.443487 0.977379 0.122497
H30   H     H_    0.527106 0.556114 0.019938 0.110748
H31   H     H_    0.480306 0.603706 0.210028 0.137140
H32   H     H_    0.456961 0.546990 0.915869 0.164455
H33   H     H_    0.127452 0.592549 0.760309 0.105187
H34   H     H_    0.126499 0.859778 0.635348 0.128341
H35   H     H_    0.749657 0.370280 0.786741 0.126606
H36   H     H_    0.031057 0.427265 0.237951 0.139919
H37   H     H_    0.281962 0.722631 0.329822 -0.051924
H38   H     H_    0.840758 0.459544 0.614286 0.074913
H39   H     H_    0.357039 0.702897 0.494723 0.122021
H40   H     H_    0.221610 0.959119 0.420022 0.112352
H41   H     H_    0.766759 0.901108 0.543866 0.091105
H42   H     H_    0.805464 0.301189 0.523666 0.056907
H43   H     H_    0.869983 0.036861 0.550568 0.076310
H44   H     H_    0.338051 0.111712 0.426837 0.101036
H45   H     H_    0.845452 0.282660 0.411115 0.002529
H46   H     H_    0.032300 0.774521 0.246847 0.159736
H47   H     H_    0.245305 0.824130 0.257360 0.118832
H48   H     H_    0.354860 0.717860 0.598830 0.002455
H49   H     H_    0.152758 0.718220 0.566818 0.058440
H50   H     H_    0.242244 0.223866 0.770189 0.061888
H51   H     H_    0.477880 0.471754 0.402843 0.002951
H52   H     H_    0.053120 0.288979 0.437444 0.023224
H53   H     H_    0.921830 0.130045 0.422278 0.005738
H54   H     H_    0.081161 0.145902 0.369830 0.075870
H55   H     H_    0.822976 0.633323 0.631903 0.001058
N1    N     N_R   0.987749 0.489948 0.847255 -0.417941
N2    N     N_R   0.201100 0.509563 0.149890 -0.424057
O1    O     O_2   0.889550 0.449620 0.359410 -0.459802
O2    O     O_2   0.188048 0.175897 0.531094 -0.500078
O3    O     O_3   0.095505 0.194864 0.640446 -0.603995
O4    O     O_3   0.130120 0.450560 0.430480 -0.472859
O5    O     O_3   0.576410 0.610420 0.531990 -0.467094
O6    O     O_2   0.341630 0.276020 0.466390 -0.480383
O7    O     O_3   0.519217 0.239080 0.371236 -0.601646
O8    O     O_2   0.465517 0.469312 0.708979 -0.428756
O9    O     O_3   0.439887 0.291130 0.696148 -0.586060
O10   O     O_2   0.259497 0.509084 0.829412 -0.555771
O11   O     O_2   0.723130 0.476404 0.875467 -0.597454
O12   O     O_3   0.682722 0.734177 0.627714 -0.637019
O13   O     O_2   0.930029 0.505749 0.168261 -0.568737
O14   O     O_2   0.462694 0.510116 0.118876 -0.606073
O15   O     O_3   0.674100 0.616440 0.398760 -0.490494
O16   O     O_2   0.794159 0.555980 0.294337 -0.442500
O17   O     O_3   0.021075 0.304337 0.349835 -0.617735
O18   O     O_3   0.723049 0.720998 0.305382 -0.595139
O19   O     O_2   0.848070 0.724010 0.533650 -0.464116
O20   O     O_3   0.092910 0.663610 0.428710 -0.453511
O21   O     O_2   0.001482 0.824169 0.468196 -0.498318
O22   O     O_2   0.097202 0.284359 0.827828 -0.571237
O23   O     O_3   0.109015 0.805403 0.360811 -0.608628
O24   O     O_2   0.366362 0.576672 0.430401 -0.569455
O25   O     O_2   0.300150 0.550410 0.640630 -0.457168
O26   O     O_3   0.059590 0.549510 0.569530 -0.490930
O27   O     O_3   0.515610 0.383640 0.601250 -0.485132
O28   O     O_3   0.162402 0.695349 0.653162 -0.637228
O29   O     O_3   0.613300 0.389650 0.468010 -0.494109
O30   O     O_3   0.096810 0.336470 0.571300 -0.478985
P1    P     P_3+3 0.056010 0.422560 0.367570 1.010419
P2    P     P_3+3 0.670430 0.710550 0.550450 0.994055
P3    P     P_3+3 0.136300 0.781086 0.431973 0.951504
P4    P     P_3+3 0.133710 0.577520 0.632440 0.998847
P5    P     P_3+3 0.057918 0.218867 0.569862 0.945247
P6    P     P_3+3 0.662422 0.611992 0.321765 0.984291
P7    P     P_3+3 0.524874 0.275508 0.447804 0.949264
P8    P     P_3+3 0.548661 0.390231 0.676981 0.998384

loop_
_geom_bond_atom_site_label_1
_geom_bond_atom_site_label_2
_ccdc_geom_bond_type
C41   C46   A    
C40   H12   S    
C56   C57   S    
C34   H13   S    
C13   H29   S    
Ba2   O25   S    
C4    H37   S    
Ba2   O26   S    
C38   C39   A    
C11   C15   A    
C9    H30   S    
C56   H21   S    
C17   N2    Am   
C57   H27   S    
Ba1   O19   S    
O16   P6    D    
C49   H52   S    
C50   H53   S    
Ba2   O27   S    
C48   P7    S    
C35   H42   S    
O3    P5    S    
C54   O24   D    
C36   P5    S    
C45   H18   S    
C25   C26   A    
C6    C13   A    
C56   H22   S    
C2    C8    A    
C35   C36   A    
C53   O22   D    
C54   H51   S    
C51   H2    S    
Ba2   O30   S    
C29   H36   S    
Ba1   Ba2   S    
Ba1   O1    S    
C45   H17   S    
C16   H16   S    
Ba1   O4    S    
C21   P4    S    
C51   C52   S    
O27   P8    S    
C12   H1    S    
C4    H26   S    
C13   C14   A    
C44   H44   S    
C51   H55   S    
O12   P2    S    
C40   H34   S    
Ba1   P1    S    
O29   P7    S    
C6    C7    A    
C53   H50   S    
C55   H19   S    
C39   C48   A    
C16   H47   S    
C8    H32   S    
C24   N1    S    
C34   H14   S    
O5    P2    S    
C49   H45   S    
C30   N2    S    
C20   P8    S    
C40   H23   S    
C28   O28   S    
C32   P3    S    
Ba1   O15   S    
C1    H8    S    
C52   H4    S    
C5    N1    Am   
C14   C15   A    
Ba2   O4    S    
Ba2   P4    S    
C51   O12   S    
C43   H40   S    
C26   C58   A    
C27   C58   A    
O15   P6    S    
O4    P1    S    
C14   H28   S    
C21   C22   D    
C7    C11   A    
C55   H20   S    
C46   H41   S    
C57   H25   S    
C5    C6    A    
C27   P1    S    
C35   C48   A    
Ba2   O29   S    
C42   C43   A    
C21   C31   D    
C23   O7    S    
Ba1   O5    S    
C18   O14   D    
C18   N2    Am   
C37   H43   S    
O18   P6    S    
C8    C9    A    
C20   C31   S    
C32   C47   A    
C31   H38   S    
C28   H48   S    
C10   C18   A    
Ba1   P2    S    
C25   H31   S    
C54   C58   S    
C28   C40   S    
O28   P4    S    
O25   P4    D    
C25   C30   A    
C4    C16   S    
C19   C24   D    
C23   H9    S    
C38   C41   A    
O19   P2    D    
O6    P7    D    
O30   P5    S    
C17   O13   D    
C32   C42   A    
C4    O23   S    
C52   H5    S    
C33   C47   A    
C49   C50   S    
O23   P3    S    
C43   C44   A    
C37   C38   A    
C3    N1    Am   
C19   H35   S    
C41   C42   A    
O9    P8    S    
C52   H6    S    
C57   H24   S    
C23   C34   S    
C45   C55   S    
C12   O18   S    
Ba2   O6    S    
O20   P3    S    
C22   C24   S    
C1    H3    S    
C47   H39   S    
C29   C30   A    
C1    C12   S    
C3    O10   D    
C2    C7    A    
O26   P4    S    
Ba1   O26   S    
O17   P1    S    
C27   C29   A    
Br1   C50   S    
C33   P2    S    
C2    C3    A    
C23   H10   S    
C12   H7    S    
O21   P3    D    
O2    P5    D    
C28   H49   S    
C53   C55   S    
C15   C17   A    
C39   C44   A    
C1    H15   S    
Ba1   O29   S    
C33   C46   A    
C36   C37   A    
C50   H54   S    
C22   H33   S    
C9    C10   A    
C34   H11   S    
C5    O11   D    
C49   O17   S    
C19   C20   S    
O1    P1    D    
C45   O3    S    
C10   C11   A    
C56   O9    S    
Ba2   O5    S    
Ba1   O20   S    
O7    P7    S    
C16   H46   S    
C26   P6    S    
O8    P8    D    
