data_mof_unit_37086.cif
_audit_creation_date              2012-12-10T17:19:22-0500
_audit_creation_method            fapswitch 2.2
_symmetry_space_group_name_H-M    P1
_symmetry_Int_Tables_number       1
_space_group_crystal_system       triclinic
_cell_length_a                    15.067627
_cell_length_b                    10.844882
_cell_length_c                    9.600086
_cell_angle_alpha                 89.671281
_cell_angle_beta                  89.546208
_cell_angle_gamma                 93.26286
_cell_volume                      1566.09554473

loop_
_atom_site_label
_atom_site_type_symbol
_atom_type_description
_atom_site_fract_x
_atom_site_fract_y
_atom_site_fract_z
_atom_type_partial_charge
C1    C     C_R   0.494906 0.262176 0.500992 0.830600
C2    C     C_R   0.909166 0.612132 0.469031 0.126088
C3    C     C_R   0.940798 0.280600 0.540009 -0.221877
C4    C     C_R   0.032806 0.279056 0.536277 -0.155063
C5    C     C_R   0.086729 0.389313 0.519363 0.048022
C6    C     C_R   0.045249 0.501611 0.496576 0.024614
C7    C     C_R   0.096534 0.613021 0.470256 0.050071
C8    C     C_R   0.052222 0.721210 0.439120 -0.155498
C9    C     C_R   0.959937 0.720780 0.439896 -0.222976
C10   C     C_R   0.180478 0.389139 0.519833 -0.051766
C11   C     C_R   0.231642 0.501097 0.497852 -0.211488
C12   C     C_R   0.328955 0.500831 0.500018 0.871236
C13   C     C_R   0.190317 0.612842 0.471239 -0.062580
C14   C     C_R   0.393653 0.116536 0.719677 -0.157917
C15   C     C_R   0.351390 0.048299 0.826687 -0.153710
C16   C     C_R   0.349418 0.920629 0.824272 -0.104389
C17   C     C_R   0.390926 0.860916 0.716102 -0.125618
C18   C     C_R   0.440500 0.928362 0.611356 0.067843
C19   C     C_R   0.441212 0.059056 0.612531 0.097120
C20   C     C_R   0.486493 0.127341 0.503591 -0.077467
C21   C     C_R   0.526334 0.065961 0.394144 -0.208820
C22   C     C_R   0.526251 0.938924 0.393533 -0.195689
C23   C     C_R   0.495226 0.736806 0.500294 0.786745
C24   C     C_R   0.486056 0.869588 0.502139 -0.070009
C25   C     C_R   0.619426 0.663859 0.141917 -0.140627
C26   C     C_R   0.677853 0.744291 0.068675 -0.210477
C27   C     C_R   0.677870 0.744603 0.925041 -0.192242
C28   C     C_R   0.619516 0.664415 0.853725 -0.130129
C29   C     C_R   0.559017 0.580380 0.924043 0.205901
C30   C     C_R   0.558946 0.580310 0.073651 0.214704
C31   C     C_R   0.442928 0.424992 0.075235 -0.036300
C32   C     C_R   0.442535 0.425755 0.927511 -0.058044
C33   C     C_R   0.670643 0.501526 0.499469 0.781395
C34   C     C_R   0.816467 0.611439 0.469375 -0.262545
C35   C     C_R   0.766318 0.502009 0.498181 -0.032344
C36   C     C_R   0.807252 0.392265 0.523869 -0.231113
C37   C     C_R   0.899697 0.391122 0.521168 0.113955
C38   C     C_R   0.951502 0.501763 0.496179 0.082039
Cu1   Cu    Cu3+1 0.499990 0.499990 0.640660 0.934302
Cu2   Cu    Cu3+1 0.500010 0.500010 0.359340 0.981711
H1    H     H_    0.783180 0.695606 0.448214 0.113782
H2    H     H_    0.315865 0.094686 0.907659 0.161058
H3    H     H_    0.312637 0.867428 0.903628 0.158302
H4    H     H_    0.379104 0.762074 0.713939 0.177485
H5    H     H_    0.560547 0.894791 0.309398 0.154923
H6    H     H_    0.396051 0.363500 0.131386 0.156817
H7    H     H_    0.624260 0.671724 0.251756 0.186498
H8    H     H_    0.723261 0.807174 0.124096 0.146150
H9    H     H_    0.624566 0.672997 0.743729 0.194648
H10   H     H_    0.766923 0.307807 0.543883 0.128882
H11   H     H_    0.394342 0.366419 0.874096 0.132242
H12   H     H_    0.901651 0.194532 0.555441 0.144090
H13   H     H_    0.060195 0.189632 0.545112 0.185047
H14   H     H_    0.928220 0.805632 0.416463 0.142840
H15   H     H_    0.560555 0.116801 0.310227 0.162795
N1    N     N_R   0.500860 0.501210 0.147910 -0.203242
N2    N     N_R   0.500890 0.501290 0.852040 -0.204986
O1    O     O_R   0.499990 0.319640 0.618810 -0.597291
O2    O     O_R   0.500000 0.319660 0.381240 -0.570405
O3    O     O_R   0.370250 0.499960 0.618800 -0.602261
O4    O     O_R   0.370260 0.499980 0.381230 -0.526327
O5    O     O_R   0.500000 0.680340 0.618760 -0.629135
O6    O     O_R   0.500010 0.680360 0.381190 -0.574118
O7    O     O_R   0.629740 0.500020 0.618770 -0.592196
O8    O     O_R   0.629750 0.500040 0.381200 -0.599544
H16   H     H_    0.383036 0.213424 0.718967 0.175501
H17   H     H_    0.723305 0.807766 0.868110 0.150714
C39   C     C_2   0.224938 0.271382 0.539368 0.780279
O9    O     O_2   0.280045 0.240133 0.454351 -0.617705
O10   O     O_R   0.201202 0.194516 0.652540 -0.778111
H18   H     H_    0.222844 0.108458 0.641083 0.345873
C40   C     C_2   0.245134 0.729275 0.444376 0.780850
O11   O     O_2   0.300493 0.734279 0.350459 -0.575698
O12   O     O_R   0.231293 0.834041 0.524092 -0.780189
H19   H     H_    0.268112 0.909506 0.489932 0.341811
H20   H     H_    0.087817 0.807278 0.411737 0.182966

loop_
_geom_bond_atom_site_label_1
_geom_bond_atom_site_label_2
_ccdc_geom_bond_type
C4    H13   S    
C35   C36   A    
C33   O8    A    
C7    C8    A    
Cu1   O7    S    
C26   C27   A    
C29   C30   A    
Cu2   O6    S    
C18   C24   A    
C36   C37   A    
C34   C35   A    
C1    O2    A    
C5    C6    A    
C15   C16   A    
Cu1   N2    S    
C8    H20   S    
C18   C19   A    
C39   O9    D    
C23   O5    A    
C19   C20   A    
C8    C9    A    
Cu2   N1    S    
C31   H6    S    
C23   C24   S    
C6    C38   A    
O10   H18   S    
C31   N1    A    
C25   H7    S    
C26   H8    S    
C2    C34   A    
C23   O6    A    
Cu2   O2    S    
C21   C22   A    
C34   H1    S    
C32   N2    A    
O12   H19   S    
C40   O12   S    
Cu1   Cu2   S    
C21   H15   S    
C40   O11   D    
C25   C26   A    
Cu1   O1    S    
C30   N1    A    
Cu2   O4    S    
C32   H11   S    
C37   C38   A    
C28   H9    S    
C2    C38   A    
C31   C32   A    
C3    H12   S    
C17   C18   A    
C14   H16   S    
C16   H3    S    
C29   N2    A    
Cu2   O8    S    
C22   C24   A    
C3    C4    A    
C36   H10   S    
C25   C30   A    
Cu1   O5    S    
C28   C29   A    
C1    C20   S    
C14   C19   A    
C15   H2    S    
C4    C5    A    
C11   C12   S    
C6    C7    A    
C13   C40   S    
C10   C39   S    
C17   H4    S    
C5    C10   A    
C1    O1    A    
C12   O4    A    
C11   C13   A    
C16   C17   A    
C33   O7    A    
Cu1   O3    S    
C33   C35   S    
C27   H17   S    
C10   C11   A    
C12   O3    A    
C7    C13   A    
C22   H5    S    
C20   C21   A    
C3    C37   A    
C39   O10   S    
C27   C28   A    
C14   C15   A    
C9    H14   S    
C2    C9    A    
