data_mof_unit_52976.cif
_audit_creation_date              2012-12-10T18:06:39-0500
_audit_creation_method            fapswitch 2.2
_symmetry_space_group_name_H-M    P1
_symmetry_Int_Tables_number       1
_space_group_crystal_system       triclinic
_cell_length_a                    12.731996
_cell_length_b                    13.125491
_cell_length_c                    15.387848
_cell_angle_alpha                 85.488261
_cell_angle_beta                  99.587745
_cell_angle_gamma                 97.152228
_cell_volume                      2511.45697045

loop_
_atom_site_label
_atom_site_type_symbol
_atom_type_description
_atom_site_fract_x
_atom_site_fract_y
_atom_site_fract_z
_atom_type_partial_charge
C1    C     C_R   0.443899 0.308858 0.509872 0.870390
C2    C     C_R   0.422442 0.458695 0.099461 -0.182331
C3    C     C_R   0.313049 0.465260 0.064656 -0.433336
C4    C     C_R   0.490890 0.426153 0.046759 0.062001
C5    C     C_R   0.459714 0.431025 0.954981 -0.131897
C6    C     C_R   0.349699 0.433671 0.920294 0.602680
C7    C     C_R   0.276741 0.448002 0.975274 0.696750
C8    C     C_R   0.587381 0.385367 0.082707 0.021774
C9    C     C_R   0.657760 0.364017 0.028215 -0.162880
C10   C     C_R   0.638410 0.392043 0.937526 -0.098653
C11   C     C_R   0.539714 0.430227 0.901752 0.032290
C12   C     C_R   0.435264 0.512747 0.335746 0.985597
C13   C     C_R   0.714355 0.383781 0.881493 -0.313592
C14   C     C_R   0.690567 0.413926 0.791433 0.590511
C15   C     C_R   0.527100 0.475507 0.816285 0.613871
C16   C     C_R   0.646372 0.939647 0.378128 0.657278
C17   C     C_R   0.585379 0.800398 0.475384 -0.163542
C18   C     C_R   0.377486 0.170636 0.607312 -0.311665
C19   C     C_R   0.399749 0.077828 0.652951 -0.115400
C20   C     C_R   0.459626 0.014107 0.616510 0.620751
C21   C     C_R   0.483484 0.035873 0.528990 -0.015240
C22   C     C_R   0.457287 0.128551 0.482862 -0.052774
C23   C     C_R   0.555998 0.691171 0.490009 0.925566
C24   C     C_R   0.536400 0.969896 0.487494 0.031451
C25   C     C_R   0.581820 0.004288 0.410316 -0.074017
C26   C     C_R   0.551276 0.095400 0.363009 -0.095954
C27   C     C_R   0.479457 0.151393 0.395178 -0.189583
C28   C     C_R   0.534507 0.866413 0.515522 -0.104921
C29   C     C_R   0.648502 0.838264 0.411596 -0.226912
C30   C     C_R   0.415552 0.199612 0.527837 -0.122433
C31   C     C_R   0.147459 0.659551 0.614616 -0.210667
C32   C     C_R   0.755199 0.388269 0.387242 -0.031409
C33   C     C_R   0.846868 0.380733 0.351914 0.653856
C34   C     C_R   0.564075 0.485359 0.664192 0.987751
C35   C     C_R   0.943841 0.430507 0.390973 -0.189469
C36   C     C_R   0.950838 0.483960 0.468447 -0.119912
C37   C     C_R   0.854167 0.499943 0.495320 -0.005331
C38   C     C_R   0.049404 0.528228 0.515896 -0.070121
C39   C     C_R   0.049517 0.606854 0.575035 -0.240583
C40   C     C_R   0.951849 0.629392 0.593419 0.580941
C41   C     C_R   0.857659 0.573261 0.558716 0.615518
C42   C     C_R   0.148482 0.496015 0.508742 0.029928
C43   C     C_R   0.241775 0.631987 0.595227 0.739986
C44   C     C_R   0.392595 0.508040 0.241113 -0.380818
C45   C     C_R   0.597013 0.460860 0.758852 -0.364377
C46   C     C_R   0.243502 0.489805 0.120042 0.702156
C47   C     C_R   0.282515 0.508432 0.208317 0.514320
C48   C     C_R   0.462459 0.491318 0.183978 0.624288
H1    H     H_    0.690619 0.787219 0.381385 0.203249
H2    H     H_    0.482998 0.833093 0.561844 0.258750
H3    H     H_    0.342406 0.226081 0.638987 0.240460
H4    H     H_    0.678567 0.352317 0.356257 0.194954
H5    H     H_    0.011047 0.431148 0.356660 0.222661
H6    H     H_    0.728993 0.329731 0.058431 0.204007
H7    H     H_    0.606994 0.365377 0.152606 0.226281
N1    N     N_R   0.239390 0.551900 0.544730 -0.198843
N2    N     N_R   0.759950 0.448600 0.455730 -0.138229
O1    O     O_R   0.374950 0.371210 0.521360 -0.611305
O2    O     O_R   0.542050 0.338030 0.492790 -0.616367
O3    O     O_R   0.368720 0.526070 0.390200 -0.545596
O4    O     O_R   0.535820 0.492890 0.361630 -0.562009
O5    O     O_R   0.457950 0.661970 0.507210 -0.588481
O6    O     O_R   0.625050 0.628790 0.478640 -0.562984
O7    O     O_R   0.464180 0.507110 0.638370 -0.520933
O8    O     O_R   0.631280 0.473930 0.609800 -0.493401
Zn1   Zn    Zn3+2 0.388420 0.522150 0.519080 1.106236
Zn2   Zn    Zn3+2 0.611580 0.477850 0.480920 1.076984
F1    F     F_    0.171680 0.448509 0.939884 -0.500447
C49   C     C_2   0.819026 0.344431 0.914722 1.106886
O9    O     O_2   0.843402 0.271282 0.881174 -0.452492
O10   O     O_R   0.891918 0.391355 0.982170 -0.654805
H8    H     H_    0.867404 0.455574 0.001082 0.341027
C50   C     C_2   0.580549 0.124048 0.274342 1.054895
O11   O     O_2   0.668895 0.169313 0.267496 -0.518246
O12   O     O_R   0.506142 0.100603 0.199041 -0.761692
H9    H     H_    0.534746 0.125360 0.142454 0.358447
F2    F     F_    0.701961 0.970503 0.310944 -0.607314
F3    F     F_    0.504547 0.938863 0.670447 -0.593383
C51   C     C_2   0.369221 0.053072 0.742253 0.990275
O13   O     O_2   0.326309 0.114768 0.776130 -0.580797
O14   O     O_R   0.388128 0.958921 0.787748 -0.677369
H10   H     H_    0.362978 0.951362 0.847314 0.365215
C52   C     C_2   0.421749 0.228950 0.335178 0.935127
O15   O     O_2   0.470252 0.289280 0.287456 -0.623822
O16   O     O_R   0.311955 0.233515 0.331770 -0.714403
H11   H     H_    0.276763 0.176239 0.368874 0.325894
F4    F     F_    0.337507 0.681290 0.630794 -0.588740
F5    F     F_    0.452393 0.542315 0.791530 -0.553507
F6    F     F_    0.945045 0.704400 0.647583 -0.578578
C53   C     C_2   0.155696 0.742837 0.675439 1.165038
O17   O     O_2   0.136856 0.722673 0.750656 -0.488248
O18   O     O_R   0.187614 0.843983 0.647050 -0.769643
H12   H     H_    0.188059 0.894481 0.693686 0.360086
C54   C     C_2   0.156802 0.394530 0.477197 0.961417
O19   O     O_2   0.195918 0.388403 0.410783 -0.523243
O20   O     O_R   0.115923 0.305540 0.522036 -0.756964
H13   H     H_    0.125576 0.240545 0.494164 0.358315
F7    F     F_    0.841383 0.329529 0.277850 -0.586064
F8    F     F_    0.772251 0.598055 0.588158 -0.579225
F9    F     F_    0.760928 0.400783 0.736885 -0.581236
F10   F     F_    0.137653 0.494481 0.089687 -0.510369
F11   F     F_    0.212464 0.528154 0.260697 -0.571792
F12   F     F_    0.570096 0.513494 0.208757 -0.639796
F13   F     F_    0.310496 0.412767 0.835141 -0.557718

loop_
_geom_bond_atom_site_label_1
_geom_bond_atom_site_label_2
_ccdc_geom_bond_type
C35   H5    S    
C17   C29   A    
C50   O11   D    
C19   C20   A    
C4    C8    A    
O14   H10   S    
C29   H1    S    
O16   H11   S    
C26   C27   A    
C17   C23   S    
C31   C43   A    
O18   H12   S    
C36   C37   A    
C5    C11   A    
C3    C7    A    
C1    O2    A    
C5    C6    A    
C26   C50   S    
C34   O8    A    
C18   C19   A    
C49   O10   S    
C32   H4    S    
C42   N1    A    
C7    F1    S    
C28   H2    S    
O1    Zn1   S    
C23   O5    A    
C33   F7    S    
C8    C9    A    
O8    Zn2   S    
C41   F8    S    
C18   C30   A    
C6    F13   S    
C40   F6    S    
C9    C10   A    
C44   C47   A    
C54   O20   S    
O2    Zn2   S    
C23   O6    A    
O3    Zn1   S    
C47   F11   S    
C21   C22   A    
C50   O12   S    
C49   O9    D    
C11   C15   A    
C32   N2    A    
N2    Zn2   S    
C8    H7    S    
C18   H3    S    
C14   C45   A    
C46   F10   S    
O6    Zn2   S    
O5    Zn1   S    
C24   C25   A    
C39   C40   A    
C51   O14   S    
C2    C48   A    
C16   C29   A    
C48   F12   S    
C35   C36   A    
O7    Zn1   S    
C2    C4    A    
O12   H9    S    
O4    Zn2   S    
C53   O18   S    
C52   O15   D    
C31   C53   S    
O20   H13   S    
C34   O7    A    
C34   C45   S    
C19   C51   S    
C40   C41   A    
C52   O16   S    
C22   C27   A    
C15   C45   A    
C16   C25   A    
C46   C47   A    
C22   C30   A    
C42   C54   S    
C17   C28   A    
C24   C28   A    
C4    C5    A    
C10   C13   A    
C14   F9    S    
C6    C7    A    
C3    C46   A    
C20   F3    S    
C43   F4    S    
C32   C33   A    
C36   C38   A    
C2    C3    A    
C25   C26   A    
O10   H8    S    
C12   C44   S    
C1    O1    A    
C12   O4    A    
C53   O17   D    
C38   C39   A    
C13   C49   S    
N1    Zn1   S    
C27   C52   S    
C1    C30   S    
C33   C35   A    
C31   C39   A    
C37   C41   A    
C54   O19   D    
C10   C11   A    
C51   O13   D    
C12   O3    A    
C38   C42   A    
C43   N1    A    
C20   C21   A    
C21   C24   A    
C16   F2    S    
C9    H6    S    
C13   C14   A    
C37   N2    A    
C44   C48   A    
C15   F5    S    
