data_mof_unit_29464.cif
_audit_creation_date              2012-12-11T20:46:49-0500
_audit_creation_method            fapswitch 2.2
_symmetry_space_group_name_H-M    P1
_symmetry_Int_Tables_number       1
_space_group_crystal_system       triclinic
_cell_length_a                    8.292028
_cell_length_b                    18.850355
_cell_length_c                    18.835723
_cell_angle_alpha                 100.474963
_cell_angle_beta                  93.393229
_cell_angle_gamma                 91.522016
_cell_volume                      2887.93653955

loop_
_atom_site_label
_atom_site_type_symbol
_atom_type_description
_atom_site_fract_x
_atom_site_fract_y
_atom_site_fract_z
_atom_type_partial_charge
Ba1   Ba    Ba6+2 0.153490 0.533960 0.468530 1.721833
Ba2   Ba    Ba6+2 0.656680 0.466030 0.531410 1.715125
C1    C     C_3   0.359241 0.689379 0.207836 -0.296529
C2    C     C_R   0.077209 0.906326 0.576055 -0.099055
C3    C     C_R   0.215922 0.049691 0.565345 -0.039387
C4    C     C_3   0.909719 0.730885 0.260092 0.167058
C5    C     C_R   0.060508 0.024533 0.534749 0.041616
C6    C     C_R   0.272031 0.120285 0.566560 -0.057722
C7    C     C_R   0.176127 0.169597 0.537575 -0.008198
C8    C     C_R   0.024731 0.144959 0.501739 -0.003973
C9    C     C_R   0.967964 0.071949 0.499419 0.027647
C10   C     C_R   0.226999 0.242790 0.543177 0.017462
C11   C     C_R   0.123549 0.291141 0.516645 -0.302880
C12   C     C_3   0.396012 0.681271 0.285947 0.418932
C13   C     C_R   0.978601 0.267515 0.476696 0.007036
C14   C     C_R   0.930164 0.193075 0.467906 -0.076207
C15   C     C_R   0.843812 0.929459 0.501513 0.049404
C16   C     C_3   0.014987 0.793849 0.241373 -0.198800
C17   C     C_R   0.780750 0.857456 0.501503 0.047580
C18   C     C_R   0.877597 0.808045 0.532901 0.019146
C19   C     C_R   0.020595 0.835543 0.573189 -0.009466
C20   C     C_R   0.791990 0.164580 0.424931 0.018978
C21   C     C_R   0.737532 0.093660 0.422000 -0.053840
C22   C     C_R   0.817574 0.047410 0.462779 0.001678
C23   C     C_3   0.511895 0.685407 0.647130 0.245005
C24   C     C_R   0.753031 0.977343 0.466624 0.008056
C25   C     C_R   0.594035 0.956157 0.441237 -0.080761
C26   C     C_R   0.621829 0.835331 0.470422 -0.088694
C27   C     C_R   0.526441 0.888506 0.444541 -0.069400
C28   C     C_3   0.731913 0.336369 0.301437 0.251695
C29   C     C_R   0.570353 0.761096 0.464871 -0.070041
C30   C     C_R   0.676882 0.711818 0.488773 -0.292689
C31   C     C_R   0.829367 0.733101 0.523087 0.113323
C32   C     C_2   0.593260 0.534098 0.303669 -0.173262
C33   C     C_3   0.690609 0.572059 0.254565 -0.098411
C34   C     C_3   0.566033 0.765026 0.674593 -0.238803
C35   C     C_2   0.661191 0.538709 0.175676 -0.122426
C36   C     C_2   0.518267 0.503969 0.152289 -0.076886
C37   C     C_2   0.413612 0.481363 0.207115 -0.150250
C38   C     C_1   0.466438 0.490851 0.276419 0.033527
C39   C     C_R   0.341187 0.489163 0.935433 0.525887
C40   C     C_3   0.661831 0.280269 0.237225 -0.340451
C41   C     C_R   0.460570 0.495468 0.074779 0.483781
C42   C     C_R   0.376096 0.516304 0.811481 -0.124852
C43   C     C_R   0.334527 0.507135 0.737216 -0.008646
C44   C     C_R   0.094256 0.435029 0.753074 -0.002991
C45   C     C_3   0.891648 0.262779 0.663385 0.288515
C46   C     C_R   0.131677 0.447174 0.828627 -0.153383
C47   C     C_R   0.280506 0.484121 0.857919 -0.063109
C48   C     C_R   0.202277 0.461012 0.707995 -0.199752
C49   C     C_3   0.994231 0.673831 0.717618 0.194197
C50   C     C_3   0.877591 0.692493 0.778629 -0.294758
C51   C     C_3   0.256325 0.302846 0.329309 0.134910
C52   C     C_3   0.197821 0.238136 0.268898 -0.193212
C53   C     C_2   0.154919 0.707311 0.748313 0.514308
C54   C     C_2   0.006006 0.594508 0.696235 0.428127
C55   C     C_2   0.351102 0.279394 0.390612 0.412589
C56   C     C_3   0.862574 0.185981 0.676710 -0.240299
C57   C     C_2   0.126905 0.265553 0.203784 0.671992
C58   C     C_2   0.079992 0.187165 0.294713 0.457438
C59   C     C_2   0.451417 0.816935 0.649547 0.593377
C60   C     C_2   0.983320 0.168546 0.732743 0.519145
C61   C     C_2   0.399131 0.307122 0.850710 0.553697
C62   C     C_2   0.854462 0.756393 0.334395 0.480977
C63   C     C_2   0.424855 0.184021 0.778295 0.529082
C64   C     C_2   0.350498 0.882327 0.427934 0.552462
C65   C     C_2   0.768529 0.717500 0.204421 0.334274
C66   C     C_2   0.008881 0.425290 0.875294 0.582151
C67   C     C_3   0.416389 0.291317 0.716838 0.219261
C68   C     C_2   0.044657 0.786376 0.162097 0.549172
C69   C     C_2   0.800187 0.400130 0.276891 0.421819
C70   C     C_3   0.469735 0.263385 0.785898 -0.239942
C71   C     C_R   0.996609 0.953468 0.536950 0.015908
H1    H     H_    0.607375 0.233793 0.257241 0.168124
H2    H     H_    0.364102 0.747085 0.202733 0.171489
H3    H     H_    0.955952 0.846133 0.258395 0.131911
H4    H     H_    0.820538 0.268527 0.613083 0.101819
H5    H     H_    0.284500 0.279819 0.704680 -0.086951
H6    H     H_    0.442347 0.350587 0.725427 0.061393
H7    H     H_    0.603699 0.269234 0.793645 0.131964
H8    H     H_    0.391365 0.135660 0.591569 0.089964
H9    H     H_    0.092488 0.802847 0.603140 0.143059
H10   H     H_    0.723645 0.196419 0.392543 0.146191
H11   H     H_    0.298821 0.015796 0.588510 0.069922
H12   H     H_    0.567043 0.303902 0.205474 0.112175
H13   H     H_    0.186865 0.922371 0.609166 0.125518
H14   H     H_    0.632731 0.076200 0.385775 0.108878
H15   H     H_    0.513414 0.994425 0.423570 0.100697
H16   H     H_    0.743920 0.552273 0.137270 0.105316
H17   H     H_    0.172374 0.452398 0.650292 0.054261
H18   H     H_    0.132961 0.798681 0.272251 0.179966
H19   H     H_    0.634640 0.354063 0.336940 0.062145
H20   H     H_    0.347016 0.627045 0.290209 0.049988
H21   H     H_    0.225817 0.682679 0.787033 -0.033913
H22   H     H_    0.081508 0.571988 0.653465 -0.061011
H23   H     H_    0.757256 0.260174 0.200629 0.150696
H24   H     H_    0.866931 0.751957 0.793484 0.135109
H25   H     H_    0.385656 0.319746 0.437943 0.050272
H26   H     H_    0.239483 0.664330 0.187588 0.106081
H27   H     H_    0.030094 0.303194 0.209566 -0.036422
H28   H     H_    0.111692 0.165434 0.342909 0.043691
H29   H     H_    0.528544 0.685348 0.297622 -0.115893
H30   H     H_    0.618790 0.656698 0.625437 0.030767
H31   H     H_    0.417072 0.680506 0.602112 0.034776
H32   H     H_    0.684138 0.775981 0.653560 0.022708
H33   H     H_    0.408006 0.809610 0.593196 -0.100137
H34   H     H_    0.920646 0.671947 0.827924 0.099813
H35   H     H_    0.021883 0.272155 0.656324 -0.099423
H36   H     H_    0.739651 0.179739 0.695402 0.099001
H37   H     H_    0.868982 0.146974 0.625513 0.075697
H38   H     H_    0.996815 0.202504 0.786004 0.042826
H39   H     H_    0.269064 0.310980 0.852695 -0.034539
H40   H     H_    0.731019 0.771502 0.342262 -0.024109
H41   H     H_    0.462108 0.146276 0.732088 0.033752
H42   H     H_    0.162348 0.347259 0.522463 0.054865
H43   H     H_    0.272132 0.872578 0.468891 0.008127
H44   H     H_    0.637345 0.655849 0.483390 0.057411
H45   H     H_    0.755212 0.668340 0.760945 0.154480
H46   H     H_    0.763871 0.670901 0.161624 0.021530
H47   H     H_    0.293515 0.457836 0.189894 0.126346
H48   H     H_    0.483358 0.549046 0.832831 0.114437
H49   H     H_    0.947501 0.372634 0.860879 0.004122
H50   H     H_    0.612081 0.552346 0.361673 0.073706
H51   H     H_    0.082053 0.735804 0.131661 -0.007301
H52   H     H_    0.793677 0.405377 0.220346 -0.023586
H53   H     H_    0.151039 0.332674 0.350410 0.014279
H54   H     H_    0.304557 0.206254 0.251865 0.122698
H55   H     H_    0.447740 0.659869 0.172846 0.092828
H56   H     H_    0.583370 0.776428 0.734635 0.165214
N1    N     N_R   0.470762 0.533195 0.963194 -0.221836
N2    N     N_R   0.528696 0.536420 0.031249 -0.223325
N3    N     N_R   0.332075 0.450909 0.047143 -0.198731
N4    N     N_R   0.275080 0.447358 0.978819 -0.182785
O1    O     O_2   0.117290 0.676350 0.548250 -0.476667
O2    O     O_2   0.754782 0.444317 0.749671 -0.410622
O3    O     O_3   0.839610 0.311637 0.722051 -0.629747
O4    O     O_3   0.869060 0.586940 0.542720 -0.485250
O5    O     O_3   0.438990 0.460930 0.412890 -0.496735
O6    O     O_2   0.623700 0.539890 0.674570 -0.406022
O7    O     O_3   0.453647 0.654925 0.704238 -0.652052
O8    O     O_2   0.556071 0.243881 0.525485 -0.458502
O9    O     O_3   0.505483 0.256717 0.660434 -0.606939
O10   O     O_3   0.356990 0.628630 0.417250 -0.492100
O11   O     O_2   0.228611 0.750023 0.465514 -0.442239
O12   O     O_3   0.361199 0.346161 0.298576 -0.680410
O13   O     O_3   0.935962 0.706870 0.660652 -0.658430
O14   O     O_3   0.323826 0.735147 0.334060 -0.555201
O15   O     O_2   0.186600 0.460070 0.325400 -0.414117
O16   O     O_3   0.942970 0.591450 0.378940 -0.401387
O17   O     O_2   0.008739 0.530753 0.247046 -0.440535
O18   O     O_2   0.202360 0.764585 0.734211 -0.518207
O19   O     O_2   0.929926 0.554896 0.726935 -0.579683
O20   O     O_2   0.394253 0.217497 0.387445 -0.617271
O21   O     O_2   0.180144 0.246825 0.144486 -0.530584
O22   O     O_2   0.950939 0.167720 0.261233 -0.551728
O23   O     O_3   0.006364 0.669249 0.259864 -0.615135
O24   O     O_2   0.409529 0.868937 0.692105 -0.515137
O25   O     O_2   0.066125 0.115849 0.719020 -0.538070
O26   O     O_2   0.487738 0.337675 0.901793 -0.534103
O27   O     O_2   0.952574 0.764243 0.386078 -0.548438
O28   O     O_2   0.349237 0.160880 0.823530 -0.503005
O29   O     O_2   0.291756 0.894460 0.370570 -0.553253
O30   O     O_2   0.670396 0.764193 0.201352 -0.567450
O31   O     O_2   0.968736 0.467438 0.927904 -0.530318
O32   O     O_2   0.023402 0.837115 0.130988 -0.492177
O33   O     O_2   0.865251 0.447663 0.322566 -0.525411
O34   O     O_2   0.693010 0.323600 0.451730 -0.475110
O35   O     O_3   0.941240 0.413050 0.457220 -0.441252
O36   O     O_3   0.453310 0.371360 0.582690 -0.481290
O37   O     O_3   0.857957 0.306423 0.337038 -0.645806
O38   O     O_3   0.371310 0.539060 0.587050 -0.484086
O39   O     O_3   0.867330 0.408540 0.621000 -0.465033
P1    P     P_3+3 0.945300 0.665790 0.568510 0.991222
P2    P     P_3+3 0.360080 0.438780 0.334620 0.970395
P3    P     P_3+3 0.909537 0.593166 0.285482 1.028064
P4    P     P_3+3 0.865000 0.334200 0.431430 1.007603
P5    P     P_3+3 0.890186 0.399622 0.711820 1.025432
P6    P     P_3+3 0.371936 0.720903 0.422032 0.993523
P7    P     P_3+3 0.441355 0.560645 0.678490 0.944476
P8    P     P_3+3 0.432692 0.278293 0.578444 0.959641

loop_
_geom_bond_atom_site_label_1
_geom_bond_atom_site_label_2
_ccdc_geom_bond_type
O39   P5    S    
C16   C68   S    
C54   H22   S    
O23   P3    S    
C56   C60   S    
C32   H50   S    
O1    P1    D    
C45   O3    S    
C25   C27   A    
C56   H36   S    
C63   H41   S    
C9    C22   A    
C17   C18   A    
C61   O26   D    
C30   H44   S    
C39   N4    A    
C28   C69   S    
Ba1   O4    S    
C5    C71   A    
O37   P4    S    
C51   C52   S    
C5    C9    A    
Ba1   P1    S    
C24   C25   A    
C64   H43   S    
C13   P4    S    
C32   C38   D    
Ba2   O6    S    
C41   N3    A    
C33   C35   S    
C22   C24   A    
C32   C33   S    
C36   C37   S    
C12   H29   S    
C2    H13   S    
C13   C14   A    
O8    P8    D    
O13   P1    S    
C50   H24   S    
O7    P7    S    
C64   O29   D    
C49   C54   S    
O10   P6    S    
C4    C62   S    
C61   H39   S    
C28   O37   S    
Ba2   P4    S    
C48   H17   S    
O9    P8    S    
C60   H38   S    
C50   H34   S    
C6    C7    A    
C69   O33   D    
O5    P2    S    
C16   H3    S    
C21   C22   A    
C60   O25   D    
Ba1   O16   S    
C54   O19   D    
C1    H2    S    
C7    C8    A    
C12   H20   S    
Ba2   O38   S    
O17   P3    D    
C21   H14   S    
C15   C71   A    
C57   H27   S    
C44   P5    S    
O38   P7    S    
C67   H5    S    
C53   H21   S    
C39   C47   S    
C57   O21   D    
C52   C57   S    
C66   O31   D    
C4    C16   S    
C44   C46   A    
Ba1   P2    S    
C40   H1    S    
C29   P6    S    
C6    H8    S    
Ba2   O5    S    
C23   O7    S    
O2    P5    D    
C28   H19   S    
C8    C9    A    
C68   O32   D    
C66   H49   S    
C37   C38   D    
C3    C5    A    
C3    H11   S    
C51   C55   S    
C1    H55   S    
C23   H30   S    
C52   C58   S    
C23   C34   S    
Ba1   O35   S    
C67   O9    S    
C55   O20   D    
O3    P5    S    
Ba1   O38   S    
C42   C47   A    
O15   P2    D    
C49   C50   S    
O16   P3    S    
C67   C70   S    
O4    P1    S    
C35   C36   D    
Ba1   O10   S    
C59   O24   D    
C29   C30   A    
C62   O27   D    
C51   O12   S    
C40   H12   S    
O12   P2    S    
C59   H33   S    
C2    C71   A    
C11   H42   S    
C1    C12   S    
C18   C31   A    
C4    C65   S    
C10   P8    S    
O11   P6    D    
C11   C13   A    
C68   H51   S    
C17   C26   A    
C40   H23   S    
C67   H6    S    
C58   H28   S    
C16   H18   S    
Ba1   O1    S    
Ba2   O35   S    
C42   H48   S    
C31   P1    S    
C42   C43   A    
O35   P4    S    
C26   C27   A    
C14   C20   A    
C62   H40   S    
O36   P8    S    
C34   H32   S    
C56   H37   S    
Ba2   O4    S    
C12   O14   S    
C26   C29   A    
C69   H52   S    
C46   C66   S    
C3    C6    A    
C23   H31   S    
C53   O18   D    
C34   C59   S    
C63   C70   S    
C52   H54   S    
C44   C48   A    
C49   O13   S    
C35   H16   S    
C33   P3    S    
C30   C31   A    
C41   N2    A    
N1    N2    A    
C58   O22   D    
C36   C41   S    
C70   H7    S    
C8    C14   A    
C34   H56   S    
C20   H10   S    
C45   C56   S    
C38   P2    S    
C2    C19   A    
O14   P6    S    
C39   N1    A    
C43   C48   A    
C46   C47   A    
C55   H25   S    
Ba1   Ba2   S    
C61   C70   S    
C15   C17   A    
C15   C24   A    
N3    N4    A    
C49   C53   S    
C25   H15   S    
C7    C10   A    
O6    P7    D    
C51   H53   S    
C43   P7    S    
Ba2   O36   S    
C27   C64   S    
C65   O30   D    
C1    H26   S    
C10   C11   A    
C19   H9    S    
C18   C19   A    
C45   H35   S    
C63   O28   D    
C45   H4    S    
C20   C21   A    
C28   C40   S    
Ba1   O15   S    
C65   H46   S    
Ba2   O34   S    
C4    O23   S    
Ba1   O5    S    
C37   H47   S    
Ba2   O39   S    
O34   P4    D    
C50   H45   S    
