data_mof_unit_67378.cif
_audit_creation_date              2013-03-05T16:10:58-0500
_audit_creation_method            fapswitch 2.2
_symmetry_space_group_name_H-M    P1
_symmetry_Int_Tables_number       1
_space_group_crystal_system       triclinic
_cell_length_a                    16.97764
_cell_length_b                    27.790918
_cell_length_c                    8.734102
_cell_angle_alpha                 90.113337
_cell_angle_beta                  104.017433
_cell_angle_gamma                 90.134504
_cell_volume                      3998.22224211

loop_
_atom_site_label
_atom_site_type_symbol
_atom_site_description
_atom_site_fract_x
_atom_site_fract_y
_atom_site_fract_z
_atom_type_partial_charge
P1    P     P_3+3 0.171820 0.553000 0.158080 0.610332
P2    P     P_3+3 0.171820 0.447000 0.658080 0.609210
P3    P     P_3+3 0.671820 0.053000 0.158080 0.593330
P4    P     P_3+3 0.671820 0.947000 0.658080 0.591278
O1    O     O_2   0.163830 0.569270 0.980510 -0.281493
O2    O     O_2   0.163830 0.430730 0.480510 -0.309008
O3    O     O_2   0.663830 0.069270 0.980510 -0.277233
O4    O     O_2   0.663830 0.930730 0.480510 -0.274781
O5    O     O_3   0.095420 0.524330 0.188510 -0.339510
O6    O     O_3   0.095420 0.475670 0.688510 -0.310837
O7    O     O_3   0.595420 0.024330 0.188510 -0.366338
O8    O     O_3   0.595420 0.975670 0.688510 -0.361441
O9    O     O_3   0.028940 0.612400 0.656050 -0.317970
O10   O     O_3   0.028940 0.387600 0.156050 -0.283981
O11   O     O_3   0.528940 0.112400 0.656050 -0.334985
O12   O     O_3   0.528940 0.887600 0.156050 -0.285770
O13   O     O_2   0.152362 0.652886 0.838613 -0.286018
O14   O     O_2   0.169106 0.352896 0.313088 -0.274382
O15   O     O_2   0.662323 0.148700 0.822106 -0.249747
O16   O     O_2   0.666251 0.853703 0.318999 -0.245166
O17   O     O_3   0.262528 0.519811 0.213312 -0.578989
O18   O     O_3   0.266493 0.476713 0.724279 -0.574809
O19   O     O_3   0.766554 0.022489 0.212416 -0.555479
O20   O     O_3   0.766203 0.978444 0.712366 -0.571237
O21   O     O_3   0.035895 0.710416 0.706577 -0.508425
O22   O     O_3   0.061893 0.287471 0.236278 -0.550054
O23   O     O_3   0.550529 0.211389 0.741151 -0.555626
O24   O     O_3   0.561871 0.787797 0.238629 -0.557472
C1    C     C_3   0.046205 0.775836 0.533748 -0.951784
C2    C     C_3   0.034937 0.205665 0.143613 -0.857564
C3    C     C_3   0.544327 0.294142 0.652616 -0.889650
C4    C     C_3   0.542862 0.705459 0.147418 -0.878059
H1    H     H_    0.086906 0.788833 0.644530 0.280376
H2    H     H_    0.069182 0.199602 0.267174 0.243737
H3    H     H_    0.494763 0.321121 0.629466 0.303091
H4    H     H_    0.578320 0.700206 0.270607 0.240676
H5    H     H_    0.083425 0.764856 0.452211 0.231899
H6    H     H_    0.072800 0.191830 0.065826 0.238319
H7    H     H_    0.580295 0.297927 0.775800 0.236415
H8    H     H_    0.581947 0.692803 0.070295 0.245239
P5    P     P_3+3 0.829210 0.554130 0.532500 0.509029
P6    P     P_3+3 0.829210 0.445870 0.032500 0.527298
P7    P     P_3+3 0.329210 0.054130 0.532500 0.496517
P8    P     P_3+3 0.329210 0.945870 0.032500 0.528352
P9    P     P_3+3 0.898820 0.657601 0.014555 0.537036
P10   P     P_3+3 0.893386 0.345123 0.514495 0.561823
P11   P     P_3+3 0.395209 0.155552 0.015986 0.568039
P12   P     P_3+3 0.394885 0.844343 0.515719 0.560476
O25   O     O_2   0.837400 0.570350 0.710350 -0.349453
O26   O     O_2   0.837400 0.429650 0.210350 -0.354320
O27   O     O_2   0.337400 0.070350 0.710350 -0.346459
O28   O     O_2   0.337400 0.929650 0.210350 -0.356908
O29   O     O_3   0.972820 0.612580 0.035550 -0.327658
O30   O     O_3   0.972820 0.387420 0.535550 -0.339532
O31   O     O_3   0.472820 0.112580 0.035550 -0.334069
O32   O     O_3   0.472820 0.887420 0.535550 -0.332983
O33   O     O_2   0.834429 0.641979 0.866268 -0.367022
O34   O     O_2   0.828967 0.361769 0.368924 -0.378403
O35   O     O_2   0.328432 0.138753 0.873324 -0.367385
O36   O     O_2   0.329953 0.860398 0.369603 -0.373613
O37   O     O_3   0.743105 0.516882 0.496827 -0.520073
O38   O     O_3   0.744791 0.483840 0.000220 -0.501329
O39   O     O_3   0.244740 0.015564 0.498470 -0.523309
O40   O     O_3   0.246172 0.984678 0.995417 -0.493055
O41   O     O_3   0.938170 0.711112 0.946533 -0.491240
O42   O     O_3   0.918307 0.288529 0.444042 -0.518419
O43   O     O_3   0.422970 0.212040 0.948104 -0.505427
O44   O     O_3   0.422512 0.788067 0.447036 -0.523748
C5    C     C_3   0.982270 0.743306 0.064267 1.019565
C6    C     C_3   0.977447 0.259552 0.547019 0.967769
C7    C     C_3   0.482440 0.240282 0.054946 0.999004
C8    C     C_3   0.484272 0.760775 0.550410 0.986917
C9    C     C_3   0.925415 0.765627 0.155480 -0.934303
C10   C     C_3   0.960493 0.206856 0.492221 -0.725769
C11   C     C_3   0.468669 0.293659 0.005417 -0.745101
C12   C     C_3   0.471909 0.707694 0.497506 -0.749601
H9    H     H_    0.957365 0.794165 0.234338 0.280584
H10   H     H_    0.004568 0.181653 0.565875 0.263648
H11   H     H_    0.481927 0.300546 0.891740 0.235324
H12   H     H_    0.519389 0.684034 0.569417 0.263643
H13   H     H_    0.873658 0.782530 0.071896 0.278318
H14   H     H_    0.964512 0.201705 0.370900 0.247976
H15   H     H_    0.404960 0.303988 0.999146 0.269277
H16   H     H_    0.473892 0.703049 0.374996 0.252556
C13   C     C_3   0.768196 0.531688 0.037356 0.239896
C14   C     C_3   0.766227 0.468639 0.524416 0.252666
C15   C     C_3   0.270054 0.031739 0.044681 0.236044
C16   C     C_3   0.269366 0.967724 0.530880 0.265505
H17   H     H_    0.791004 0.535828 0.166960 0.041693
H18   H     H_    0.794037 0.462818 0.651654 0.056656
H19   H     H_    0.284374 0.033514 0.175290 0.046425
H20   H     H_    0.294468 0.962887 0.659477 0.056695
H21   H     H_    0.815452 0.543637 0.977599 0.112765
H22   H     H_    0.810707 0.458195 0.456677 0.111093
H23   H     H_    0.322890 0.044261 0.001600 0.103960
H24   H     H_    0.316001 0.957106 0.468211 0.109588
C17   C     C_3   0.694038 0.563616 0.977420 -0.094785
C18   C     C_3   0.691352 0.436467 0.466345 -0.110506
C19   C     C_3   0.199804 0.065516 0.974521 -0.078570
C20   C     C_3   0.196205 0.934579 0.469610 -0.142487
H25   H     H_    0.712878 0.601781 0.981926 0.076602
H26   H     H_    0.710817 0.399502 0.447054 0.075610
H27   H     H_    0.217791 0.103346 0.002969 0.051159
H28   H     H_    0.216845 0.897095 0.466000 0.088886
H29   H     H_    0.665673 0.554919 0.851841 0.195702
H30   H     H_    0.655906 0.449859 0.350506 0.208109
H31   H     H_    0.183543 0.061771 0.843867 0.183613
H32   H     H_    0.166483 0.944772 0.346389 0.166903
Ba1   Ba    Ba6+2 0.000400 0.534870 0.845190 1.735513
Ba2   Ba    Ba6+2 0.000400 0.465130 0.345190 1.763200
Ba3   Ba    Ba6+2 0.500400 0.034870 0.845190 1.738694
Ba4   Ba    Ba6+2 0.500400 0.965130 0.345190 1.745991
C21   C     C_3   0.267346 0.483501 0.105068 0.469729
C22   C     C_3   0.276837 0.518961 0.642946 0.373048
C23   C     C_3   0.770538 0.979902 0.126747 0.447486
C24   C     C_3   0.770373 0.021035 0.626775 0.411154
H33   H     H_    0.273145 0.499450 0.992442 0.091884
H34   H     H_    0.256415 0.513281 0.513422 0.065303
H35   H     H_    0.745402 0.985210 0.998256 0.049906
H36   H     H_    0.745883 0.015339 0.498201 0.064326
C25   C     C_3   0.342024 0.452077 0.177435 0.317705
C26   C     C_3   0.368579 0.532866 0.688082 0.428133
C27   C     C_3   0.859934 0.962018 0.158406 0.323093
C28   C     C_3   0.860027 0.039237 0.659648 0.373856
H37   H     H_    0.337688 0.442961 0.297716 0.137410
H38   H     H_    0.383565 0.544452 0.812323 0.134576
H39   H     H_    0.882666 0.958480 0.286528 0.175707
H40   H     H_    0.882251 0.042458 0.788026 0.164403
O45   O     O_3   0.904940 0.476110 0.001150 -0.418615
O46   O     O_3   0.904940 0.523890 0.501150 -0.429202
O47   O     O_3   0.404940 0.976110 0.001150 -0.426031
O48   O     O_3   0.404940 0.023890 0.501150 -0.424535
P13   P     P_3+3 0.099198 0.340588 0.168096 0.615616
P14   P     P_3+3 0.094398 0.660742 0.674210 0.568351
P15   P     P_3+3 0.599250 0.840998 0.171272 0.617236
P16   P     P_3+3 0.595709 0.160747 0.673055 0.559239
C29   C     C_3   0.994927 0.733347 0.566169 1.003098
C30   C     C_3   0.017345 0.259317 0.112087 0.946576
C31   C     C_3   0.512295 0.242583 0.619931 0.856313
C32   C     C_3   0.520424 0.758626 0.114585 0.950485
H41   H     H_    0.980238 0.707841 0.466748 -0.028423
H42   H     H_    0.040132 0.266076 0.008782 0.049871
H43   H     H_    0.529779 0.232625 0.514819 0.081254
H44   H     H_    0.542890 0.766462 0.011906 0.055733
H45   H     H_    0.008784 0.807173 0.482954 0.298259
H46   H     H_    0.978727 0.183544 0.117030 0.306358
H47   H     H_    0.584428 0.303507 0.573873 0.238926
H48   H     H_    0.488527 0.681746 0.122503 0.304988
H49   H     H_    0.903776 0.738675 0.227304 0.233418
H50   H     H_    0.898502 0.196379 0.499287 0.261832
H51   H     H_    0.509612 0.318194 0.089514 0.247071
H52   H     H_    0.412141 0.694830 0.509826 0.257001
C33   C     C_2   0.863535 0.380195 0.793124 -0.402697
C34   C     C_2   0.868923 0.621161 0.295370 -0.454274
C35   C     C_2   0.364913 0.879405 0.795011 -0.396831
C36   C     C_2   0.363946 0.117149 0.288878 -0.476759
C37   C     C_R   0.136242 0.616930 0.405191 -0.240668
C38   C     C_R   0.121376 0.375156 0.871814 -0.218201
C39   C     C_R   0.627523 0.120599 0.389580 -0.279969
C40   C     C_R   0.629614 0.880107 0.888327 -0.298588
C41   C     C_2   0.742580 0.363467 0.893633 -0.182657
C42   C     C_2   0.751383 0.640654 0.403671 -0.163327
C43   C     C_2   0.243501 0.862770 0.894346 -0.179826
C44   C     C_2   0.241377 0.134552 0.384534 -0.071825
C45   C     C_2   0.812310 0.391259 0.905165 0.319223
C46   C     C_2   0.817596 0.610357 0.409464 0.270889
C47   C     C_2   0.312933 0.890882 0.905444 0.287795
C48   C     C_2   0.312526 0.107671 0.401866 0.192098
C49   C     C_2   0.837656 0.347981 0.673975 0.266300
C50   C     C_2   0.844197 0.654449 0.178231 0.151420
C51   C     C_2   0.340315 0.846356 0.677859 0.255526
C52   C     C_2   0.344276 0.153196 0.182107 0.195049
C53   C     C_3   0.757764 0.326357 0.651314 -0.105513
C54   C     C_3   0.764854 0.676425 0.160696 -0.061706
C55   C     C_3   0.261959 0.822889 0.657657 -0.123561
C56   C     C_3   0.282341 0.187016 0.197937 0.132461
C57   C     C_3   0.729909 0.321439 0.796906 0.185517
C58   C     C_3   0.742863 0.683536 0.311282 0.194385
C59   C     C_3   0.231779 0.819864 0.801423 0.246611
C60   C     C_3   0.215447 0.165671 0.251824 0.025604
C61   C     C_2   0.744154 0.281616 0.545898 -0.119472
C62   C     C_2   0.746325 0.719054 0.047238 -0.173815
C63   C     C_2   0.253451 0.776312 0.561738 -0.107748
C64   C     C_2   0.253261 0.221831 0.063526 -0.235339
C65   C     C_2   0.234874 0.732912 0.612783 -0.111705
C66   C     C_2   0.232345 0.266564 0.094895 -0.054086
C67   C     C_2   0.723504 0.237931 0.590914 -0.124668
C68   C     C_2   0.722152 0.762548 0.086549 -0.167173
C69   C     C_R   0.259391 0.683126 0.379412 0.168931
C70   C     C_R   0.241887 0.309007 0.838480 0.317533
C71   C     C_R   0.740868 0.190836 0.346072 0.147873
C72   C     C_R   0.740863 0.808999 0.840441 0.196019
C73   C     C_R   0.216826 0.690467 0.506116 -0.014096
C74   C     C_R   0.203545 0.303288 0.971941 -0.105134
C75   C     C_R   0.702663 0.196683 0.479667 -0.046999
C76   C     C_R   0.702538 0.803466 0.974378 -0.060126
C77   C     C_R   0.240265 0.641701 0.270429 -0.114735
C78   C     C_R   0.228059 0.353217 0.741289 -0.101939
C79   C     C_R   0.727599 0.146794 0.247550 -0.038676
C80   C     C_R   0.727885 0.853239 0.743249 -0.021598
C81   C     C_R   0.182531 0.609775 0.280737 0.194376
C82   C     C_R   0.173835 0.386454 0.760365 0.232416
C83   C     C_R   0.676038 0.112205 0.269132 0.212660
C84   C     C_R   0.676956 0.887926 0.766858 0.203830
C85   C     C_R   0.152504 0.655523 0.516580 0.226229
C86   C     C_R   0.143078 0.339557 0.989968 0.137935
C87   C     C_R   0.643845 0.159405 0.499995 0.193112
C88   C     C_R   0.646346 0.841731 0.998066 0.182175
H53   H     H_    0.699598 0.372293 0.963235 0.161597
H54   H     H_    0.707699 0.632714 0.472599 0.169361
H55   H     H_    0.200656 0.871587 0.964245 0.187247
H56   H     H_    0.199483 0.126553 0.457245 0.172067
H57   H     H_    0.276039 0.636561 0.184628 0.187378
H58   H     H_    0.265763 0.359575 0.659607 0.195905
H59   H     H_    0.762910 0.142027 0.160787 0.193422
H60   H     H_    0.762571 0.857999 0.655446 0.199693
H61   H     H_    0.919189 0.400369 0.801752 0.143717
H62   H     H_    0.923445 0.600239 0.301381 0.168061
H63   H     H_    0.419802 0.900254 0.802057 0.145960
H64   H     H_    0.411998 0.092084 0.282729 0.165266
H65   H     H_    0.086979 0.592315 0.406245 0.153099
H66   H     H_    0.068090 0.396620 0.868133 0.168188
H67   H     H_    0.580466 0.094895 0.395211 0.166245
H68   H     H_    0.583365 0.906041 0.895716 0.165101
H69   H     H_    0.745921 0.286500 0.423544 0.190734
H70   H     H_    0.749548 0.713173 0.926165 0.193452
H71   H     H_    0.256789 0.779500 0.439650 0.193541
H72   H     H_    0.245338 0.210285 0.941961 0.202560
H73   H     H_    0.226358 0.729295 0.731226 0.195939
H74   H     H_    0.234084 0.276013 0.216094 0.224216
H75   H     H_    0.717701 0.232859 0.710638 0.194491
H76   H     H_    0.715173 0.768293 0.205019 0.213292
S1    S     S_3+6 0.898254 0.755415 0.586651 -0.003775
O49   O     O_2   0.909635 0.795385 0.705417 -0.229089
O50   O     O_2   0.849774 0.774784 0.432456 -0.327133
O51   O     O_3   0.845913 0.710433 0.643297 -0.505913
H77   H     H_    0.795396 0.725519 0.657657 0.377831
S2    S     S_3+6 0.910313 0.272711 0.080100 0.018985
O52   O     O_2   0.900979 0.323060 0.134722 -0.242615
O53   O     O_2   0.869274 0.268801 0.909049 -0.288394
O54   O     O_3   0.860763 0.235056 0.173774 -0.551952
H78   H     H_    0.803924 0.246573 0.145652 0.389137
S3    S     S_3+6 0.402713 0.239954 0.591612 0.042669
O55   O     O_2   0.372707 0.275633 0.692571 -0.290248
O56   O     O_2   0.359932 0.250945 0.425189 -0.254408
O57   O     O_3   0.374594 0.185086 0.635530 -0.439307
H79   H     H_    0.411191 0.163276 0.597113 0.337554
S4    S     S_3+6 0.412391 0.769271 0.080897 0.017359
O58   O     O_2   0.399582 0.819539 0.132453 -0.244010
O59   O     O_2   0.371911 0.764171 0.909842 -0.293076
O60   O     O_3   0.365439 0.730733 0.176980 -0.554674
H80   H     H_    0.308234 0.741622 0.152349 0.386365
N1    N     N_R   0.634624 0.556526 0.071048 0.284320
O61   O     O_R   0.611112 0.592618 0.143722 -0.366735
O62   O     O_R   0.601477 0.514523 0.075168 -0.220547
N2    N     N_R   0.639075 0.434429 0.576692 0.278866
O63   O     O_R   0.656790 0.458014 0.709271 -0.340905
O64   O     O_R   0.575638 0.406503 0.545563 -0.359019
N3    N     N_R   0.129429 0.053728 0.034578 0.292720
O65   O     O_R   0.093278 0.086673 0.098309 -0.326658
O66   O     O_R   0.100988 0.010145 0.019814 -0.211565
N4    N     N_R   0.137088 0.936341 0.566303 0.278520
O67   O     O_R   0.151091 0.961002 0.696772 -0.298497
O68   O     O_R   0.072083 0.909786 0.527625 -0.321450
N5    N     N_R   0.195241 0.454176 0.082518 0.160183
O69   O     O_R   0.131642 0.467045 0.976810 -0.396808
O70   O     O_R   0.183453 0.433551 0.206725 -0.358882
N6    N     N_R   0.230789 0.558093 0.692224 0.175754
O71   O     O_R   0.152543 0.555529 0.660951 -0.361608
O72   O     O_R   0.266646 0.594897 0.772616 -0.405309
N7    N     N_R   0.725936 0.942984 0.186348 0.177797
O73   O     O_R   0.647601 0.943606 0.145819 -0.384439
O74   O     O_R   0.762549 0.918857 0.310504 -0.331166
N8    N     N_R   0.724856 0.057955 0.684629 0.180590
O75   O     O_R   0.646539 0.056740 0.643292 -0.372382
O76   O     O_R   0.760837 0.084132 0.805008 -0.348519
S5    S     S_3+6 0.437304 0.482246 0.194114 0.134859
O77   O     O_2   0.465608 0.505806 0.351524 -0.134559
O78   O     O_2   0.429466 0.520637 0.071703 -0.213052
O79   O     O_3   0.507665 0.441952 0.172830 -0.444725
H81   H     H_    0.502996 0.415224 0.244870 0.368128
S6    S     S_3+6 0.438812 0.485040 0.684388 0.110966
O80   O     O_2   0.403678 0.448584 0.560211 -0.278453
O81   O     O_2   0.514876 0.506624 0.654869 -0.166379
O82   O     O_3   0.464318 0.456701 0.857732 -0.385038
H82   H     H_    0.504772 0.432297 0.845212 0.400662
S7    S     S_3+6 0.930055 0.001244 0.100463 0.108178
O83   O     O_2   0.898493 0.051870 0.078569 -0.193507
O84   O     O_2   0.946000 0.982144 0.951111 -0.225199
O85   O     O_3   0.018418 0.000484 0.237811 -0.381025
H83   H     H_    0.030571 0.965889 0.256619 0.359870
S8    S     S_3+6 0.929666 0.000388 0.597846 0.089145
O86   O     O_2   0.945167 0.020283 0.449510 -0.189559
O87   O     O_2   0.009331 0.001051 0.717987 -0.147817
O88   O     O_3   0.894389 0.943611 0.570580 -0.472774
H84   H     H_    0.912404 0.927884 0.674856 0.419173
N9    N     N_R   0.341154 0.406914 0.091752 0.186029
O89   O     O_R   0.351410 0.406753 0.949294 -0.383492
O90   O     O_R   0.340039 0.366294 0.164930 -0.395088
N10   N     N_R   0.385020 0.573678 0.594899 0.217936
O91   O     O_R   0.368888 0.571319 0.441986 -0.366333
O92   O     O_R   0.417665 0.612660 0.665732 -0.343203
N11   N     N_R   0.864693 0.914080 0.091672 0.218030
O93   O     O_R   0.850170 0.907756 0.940150 -0.393227
O94   O     O_R   0.888855 0.877786 0.184795 -0.329778
N12   N     N_R   0.865261 0.087491 0.595762 0.213052
O95   O     O_R   0.850624 0.094353 0.444571 -0.394995
O96   O     O_R   0.891612 0.123265 0.690866 -0.323672
N13   N     N_R   0.016954 0.782631 0.986497 0.258613
O97   O     O_R   0.077754 0.774153 0.924307 -0.352531
O98   O     O_R   0.995492 0.827327 0.996338 -0.305370
N14   N     N_R   0.059747 0.273019 0.538432 0.222608
O99   O     O_R   0.077927 0.318112 0.529396 -0.333878
O100  O     O_R   0.118869 0.242226 0.577856 -0.426982
N15   N     N_R   0.564627 0.226227 0.048285 0.224351
O101  O     O_R   0.624359 0.256918 0.085252 -0.475097
O102  O     O_R   0.581666 0.180980 0.040575 -0.336729
N16   N     N_R   0.565297 0.776537 0.540850 0.225553
O103  O     O_R   0.580068 0.822038 0.530903 -0.332203
O104  O     O_R   0.626562 0.747097 0.576242 -0.475523
N17   N     N_R   0.048911 0.718602 0.172857 0.189681
O105  O     O_R   0.122960 0.734756 0.199237 -0.443059
O106  O     O_R   0.033150 0.683956 0.259169 -0.545403
N18   N     N_R   0.972463 0.262930 0.709798 0.185503
O107  O     O_R   0.993540 0.303117 0.784640 -0.519634
O108  O     O_R   0.968161 0.223696 0.788955 -0.391619
N19   N     N_R   0.475674 0.235895 0.216241 0.172176
O109  O     O_R   0.469860 0.274739 0.296278 -0.411756
O110  O     O_R   0.497847 0.195724 0.289655 -0.537227
N20   N     N_R   0.479308 0.763857 0.713222 0.182125
O111  O     O_R   0.498627 0.804278 0.788003 -0.516095
O112  O     O_R   0.476629 0.724367 0.792126 -0.403242

loop_
_geom_bond_atom_site_label_1
_geom_bond_atom_site_label_2
_geom_bond_distance
_ccdc_geom_bond_type
C19   H27   1.104979 S    
C2    C30   1.533646 S    
C15   H19   1.108252 S    
P2    C82   1.903146 S    
P5    O37   1.754036 S    
P9    C50   1.885118 S    
C61   C67   1.348378 D    
P7    O39   1.754629 S    
N11   O94   1.300284 A    
P7    C48   1.856927 S    
P8    O40   1.744387 S    
P9    O33   1.539691 D    
S6    O80   1.496000 D    
O23   P16   1.773597 S    
C25   S5    1.794409 S    
O29   Ba1   2.831122 S    
N7    O73   1.290900 A    
C1    H1    1.103501 S    
O26   Ba2   2.901939 S    
C34   C50   1.369778 D    
O14   P13   1.548439 D    
N8    O75   1.290969 A    
P2    Ba2   3.514469 S    
C35   C47   1.491069 S    
N18   O107  1.297912 A    
C6    C10   1.544388 S    
S7    O84   1.491850 D    
C2    H46   1.109920 S    
P4    O8    1.599668 S    
C3    H47   1.109491 S    
P5    O25   1.589893 D    
S4    O59   1.491909 D    
S2    O53   1.491296 D    
C23   C27   1.558123 S    
N20   O111  1.299094 A    
C44   C48   1.398653 A    
C37   C85   1.427396 A    
C14   H18   1.109506 S    
C63   H71   1.085239 S    
P14   C85   1.883489 S    
C42   H54   1.084998 S    
C28   S8    1.779809 S    
O15   P16   1.541482 D    
C18   H26   1.104906 S    
C22   N6    1.464344 S    
N11   O93   1.297649 A    
O44   C8    1.427483 S    
N12   O95   1.297737 A    
C36   H64   1.085088 S    
C39   C87   1.426504 A    
P8    Ba4   3.511989 S    
C8    N16   1.464277 S    
C40   H68   1.080358 S    
N6    O72   1.302660 A    
C64   H72   1.085196 S    
C41   C57   1.425151 A    
C78   H58   1.082195 S    
C27   H39   1.096466 S    
C65   H73   1.083510 S    
N10   O91   1.298227 A    
C55   C63   1.527892 S    
C50   C54   1.454403 A    
C69   C77   1.476834 S    
O5    Ba2   2.871896 S    
C56   C64   1.511299 S    
O31   Ba3   2.831122 S    
O7    Ba4   2.871896 S    
C17   H29   1.111694 S    
N3    O66   1.297414 A    
P16   C87   1.884761 S    
C55   C59   1.469089 A    
P10   O42   1.776731 S    
C66   H74   1.083562 S    
C18   H30   1.109914 S    
S8    O87   1.497678 D    
P2    O18   1.772378 S    
O42   C6    1.426458 S    
C44   H56   1.085015 S    
C72   C80   1.481752 S    
Ba4   O47   3.065260 S    
C13   C17   1.527836 S    
P11   O35   1.538425 D    
C8    N20   1.447130 S    
N17   O105  1.300662 A    
C9    H9    1.101110 S    
C11   H11   1.087157 S    
C41   C45   1.394949 A    
O24   P15   1.764838 S    
C28   N12   1.464253 S    
Ba3   Ba4   4.774311 S    
C20   H28   1.102679 S    
C11   H15   1.108221 S    
C54   C62   1.529665 S    
C2    H6    1.111020 S    
C79   H59   1.082249 S    
C4    H4    1.108439 S    
N1    O61   1.300161 A    
C23   N7    1.444473 S    
O28   Ba4   2.901939 S    
N14   O99   1.297050 A    
O30   Ba2   2.834461 S    
Ba2   O45   3.065260 S    
O54   H78   0.990420 S    
N16   O104  1.302331 A    
C13   H21   1.108436 S    
C11   H51   1.111783 S    
N2    O64   1.299844 A    
C78   C82   1.343920 D    
C31   S3    1.817718 S    
S1    O49   1.498209 D    
P6    O38   1.749182 S    
O40   C15   1.403860 S    
O43   C7    1.429404 S    
P6    C45   1.859906 S    
P8    O28   1.591818 D    
C5    N17   1.461977 S    
P9    O29   1.753319 S    
P5    Ba1   3.515712 S    
S5    O77   1.491551 D    
P10   O34   1.535496 D    
C37   H65   1.081022 S    
N9    O90   1.300697 A    
P7    Ba3   3.515712 S    
N13   O98   1.303820 A    
C20   H32   1.109916 S    
C73   C85   1.479092 S    
C2    H2    1.108296 S    
P3    O7    1.597159 S    
O79   H81   0.989782 S    
O17   C21   1.397435 S    
N19   O110  1.298887 A    
O11   P16   1.738623 S    
P13   C86   1.880875 S    
C36   C52   1.356156 D    
O23   C31   1.402556 S    
C24   H36   1.109872 S    
C76   C88   1.477591 S    
O21   C29   1.409166 S    
C25   H37   1.100757 S    
C40   C88   1.417873 A    
P12   C51   1.871490 S    
C25   N9    1.458220 S    
C19   N3    1.453432 S    
C43   C47   1.396173 A    
C80   C84   1.344949 D    
S3    O57   1.669663 S    
P5    C46   1.881719 S    
C62   C68   1.347692 D    
C35   H63   1.085117 S    
N5    O70   1.285519 A    
P6    O26   1.591818 D    
C21   H33   1.105549 S    
Ba3   O47   2.866119 S    
O20   C24   1.411970 S    
C23   H35   1.110074 S    
P9    O41   1.789404 S    
C37   C81   1.500804 S    
C33   C49   1.360314 D    
C17   N1    1.457515 S    
O10   Ba2   2.825734 S    
O57   H79   0.983866 S    
C33   C45   1.490246 S    
C32   S4    1.810982 S    
C66   C74   1.478595 S    
C12   H12   1.111517 S    
C5    N13   1.481946 S    
N4    O67   1.299869 A    
O10   P13   1.757238 S    
S6    O81   1.500741 D    
P6    Ba2   3.511989 S    
C67   H75   1.083259 S    
Ba1   O45   2.866119 S    
C80   H60   1.082211 S    
P6    O45   1.612664 S    
N8    O76   1.300615 A    
S1    O51   1.675509 S    
C71   C75   1.474787 S    
C42   C58   1.428411 A    
C69   C73   1.475029 S    
O18   C22   1.405989 S    
C21   C25   1.545581 S    
S6    O82   1.669944 S    
N18   O108  1.303558 A    
S5    O79   1.681820 S    
C49   C53   1.451125 A    
C3    C31   1.532950 S    
C52   C56   1.443165 A    
C16   H24   1.106329 S    
C7    N19   1.446264 S    
O39   C16   1.403341 S    
P3    C83   1.900678 S    
P1    C81   1.888883 S    
C12   H16   1.086122 S    
O60   H80   0.990711 S    
S2    O54   1.674763 S    
N20   O112  1.303615 A    
P1    O1    1.590387 D    
C72   C76   1.478001 S    
O25   Ba1   2.907928 S    
C4    C32   1.536874 S    
P3    O3    1.590387 D    
O4    Ba4   2.904796 S    
C1    H45   1.107457 S    
P5    O46   1.615244 S    
P4    O20   1.783211 S    
C12   H52   1.104707 S    
S3    O55   1.495588 D    
N7    O74   1.300064 A    
O85   H83   0.989457 S    
O9    P14   1.723899 S    
C9    H13   1.103762 S    
P1    Ba1   3.510959 S    
C42   C46   1.397218 A    
P3    Ba3   3.510959 S    
N12   O96   1.301218 A    
C5    C9    1.524649 S    
C54   C58   1.464746 A    
C44   C60   1.429615 A    
C8    C12   1.543563 S    
C28   H40   1.096413 S    
C53   C61   1.529114 S    
N15   O101  1.302454 A    
C79   C83   1.342593 D    
C10   H14   1.087404 S    
C6    N14   1.465066 S    
N10   O92   1.300771 A    
C38   C86   1.414579 A    
P1    O5    1.597159 S    
C30   H42   1.080968 S    
O88   H84   0.990617 S    
C13   H17   1.109719 S    
C62   H70   1.084129 S    
C41   H53   1.085072 S    
C1    C29   1.532431 S    
P8    C47   1.867059 S    
O82   H82   0.990939 S    
C64   C66   1.339590 D    
S7    O83   1.502712 D    
P10   O30   1.762334 S    
S7    O85   1.678848 S    
Ba4   O48   2.867385 S    
O21   P14   1.764391 S    
C26   S6    1.793122 S    
C16   C20   1.532422 S    
C27   S7    1.774739 S    
C3    H3    1.110054 S    
C77   H57   1.082289 S    
S4    O58   1.499338 D    
O12   Ba4   2.825734 S    
C6    N18   1.447434 S    
C29   H41   1.100232 S    
S2    O52   1.498532 D    
S8    O86   1.490235 D    
C24   C28   1.561801 S    
C9    H49   1.096244 S    
C32   H44   1.078536 S    
O22   C30   1.399007 S    
C40   C84   1.493987 S    
C4    H48   1.109915 S    
C19   H31   1.111775 S    
C61   H69   1.085089 S    
N19   O109  1.301805 A    
Ba1   Ba2   4.774311 S    
P7    O27   1.589893 D    
O1    Ba1   2.898964 S    
O41   C5    1.427836 S    
O3    Ba3   2.898964 S    
Ba2   O46   2.867385 S    
C26   N10   1.462513 S    
C14   C18   1.533997 S    
O37   C14   1.402696 S    
C75   C87   1.477751 S    
N6    O71   1.291542 A    
C10   H10   1.111491 S    
C1    H5    1.103467 S    
O13   P14   1.547790 D    
C36   C48   1.490857 S    
C34   C46   1.504379 S    
C68   H76   1.081213 S    
C43   C59   1.427225 A    
P1    O17   1.761720 S    
N9    O89   1.297468 A    
P3    O19   1.780236 S    
O24   C32   1.396667 S    
P4    O4    1.588461 D    
C18   N2    1.460879 S    
P11   C52   1.861482 S    
N13   O97   1.299363 A    
O51   H77   0.990278 S    
P8    O47   1.612664 S    
O6    Ba1   2.873135 S    
P7    O48   1.615244 S    
C71   C79   1.479864 S    
C63   C65   1.349604 D    
P4    C84   1.890031 S    
C14   H22   1.105146 S    
C16   H20   1.109138 S    
N17   O106  1.290867 A    
O9    Ba1   2.828984 S    
C77   C81   1.339798 D    
C34   H62   1.084787 S    
N5    O69   1.290872 A    
N14   O100  1.302391 A    
C70   C78   1.481301 S    
P4    Ba4   3.514469 S    
C38   H66   1.078801 S    
O2    Ba2   2.904796 S    
P2    O2    1.588461 D    
C31   H43   1.067207 S    
P11   O43   1.781474 S    
P12   O36   1.538189 D    
C15   C19   1.527300 S    
C74   C86   1.475512 S    
O38   C13   1.401680 S    
N15   O102  1.296236 A    
O11   Ba3   2.828984 S    
N1    O62   1.299042 A    
C43   H55   1.085017 S    
N4    O68   1.300510 A    
S3    O56   1.491648 D    
C51   C55   1.451852 A    
P12   O44   1.778181 S    
C15   H23   1.109019 S    
C26   H38   1.100183 S    
C27   N11   1.463359 S    
N16   O103  1.295731 A    
C56   C60   1.456055 A    
C39   C83   1.503076 S    
C53   C57   1.466646 A    
N2    O63   1.299343 A    
C24   N8    1.447780 S    
S1    O50   1.499636 D    
C22   H34   1.110824 S    
C20   N4    1.460702 S    
S5    O78   1.495115 D    
C38   C82   1.503067 S    
C29   S1    1.802357 S    
N3    O65   1.300356 A    
P2    O6    1.599668 S    
P11   O31   1.758045 S    
P12   O32   1.759142 S    
O27   Ba3   2.907928 S    
C67   C75   1.486761 S    
C33   H61   1.084275 S    
S8    O88   1.682286 S    
C65   C73   1.486235 S    
S4    O60   1.676419 S    
P10   C49   1.865494 S    
O22   P13   1.765407 S    
C7    C11   1.548370 S    
C39   H67   1.080479 S    
C3    H7    1.105670 S    
C30   S2    1.810055 S    
C4    H8    1.111055 S    
O16   P15   1.539066 D    
C21   N5    1.442027 S    
C70   C74   1.474995 S    
O19   C23   1.409460 S    
C22   C26   1.558804 S    
C35   C51   1.361046 D    
Ba3   O48   3.063318 S    
C68   C76   1.487285 S    
Ba1   O46   3.063318 S    
C10   H50   1.107399 S    
O12   P15   1.746716 S    
O32   Ba4   2.834461 S    
O8    Ba3   2.873135 S    
C17   H25   1.104982 S    
C7    N15   1.464484 S    
P15   C88   1.874644 S    
