data_mof_unit_51869.cif
_audit_creation_date              2012-10-26T19:57:55-0400
_audit_creation_method            fapswitch 2.2
_symmetry_space_group_name_H-M    P1
_symmetry_Int_Tables_number       1
_space_group_crystal_system       triclinic
_cell_length_a                    7.48929
_cell_length_b                    8.72027
_cell_length_c                    12.942908
_cell_angle_alpha                 87.392859
_cell_angle_beta                  79.624922
_cell_angle_gamma                 102.827634
_cell_volume                      807.48618048

loop_
_atom_site_label
_atom_site_type_symbol
_atom_type_description
_atom_site_fract_x
_atom_site_fract_y
_atom_site_fract_z
_atom_type_partial_charge
C1    C     C_R   0.453047 0.200089 0.506415 0.576530
C2    C     C_R   0.554923 0.338659 0.153234 0.222027
C3    C     C_R   0.475176 0.394646 0.878959 -0.020674
C4    C     C_R   0.525133 0.610332 0.120677 -0.045503
C5    C     C_R   0.504327 0.426649 0.981862 0.007808
C6    C     C_R   0.508125 0.580512 0.015888 -0.006703
C7    C     C_2   0.429178 0.031864 0.520898 0.253655
C8    C     C_2   0.570470 0.968158 0.477729 0.259188
C9    C     C_3   0.518489 0.771073 0.162078 -0.281479
C10   C     C_3   0.320477 0.797905 0.179260 -0.414531
C11   C     C_3   0.456339 0.228176 0.842090 -0.256375
C12   C     C_R   0.547004 0.799936 0.492738 0.529567
C13   C     C_3   0.265149 0.122001 0.890629 -0.435239
C14   C     C_R   0.468436 0.500420 0.700146 0.504235
C15   C     C_R   0.532123 0.501250 0.299627 0.575860
C16   C     C_R   0.543952 0.486142 0.188247 0.072161
C17   C     C_R   0.459830 0.520035 0.810713 0.033765
C18   C     C_R   0.493326 0.701017 0.944738 -0.065380
C19   C     C_R   0.533431 0.309339 0.050852 -0.125973
C20   C     C_R   0.467352 0.672748 0.843982 0.217775
Cu1   Cu    Cu3+1 0.686350 0.517570 0.488220 1.119590
Cu2   Cu    Cu3+1 0.313650 0.482430 0.511780 1.101795
H1    H     H_    0.504062 0.820975 0.964839 0.138147
H2    H     H_    0.254360 0.002727 0.862266 0.195535
H3    H     H_    0.471545 0.227342 0.755371 0.165096
H4    H     H_    0.570308 0.175327 0.859932 0.158482
H5    H     H_    0.589353 0.127495 0.185059 0.314777
H6    H     H_    0.406702 0.763862 0.717533 0.361879
H7    H     H_    0.982121 0.284396 0.629478 0.324382
H8    H     H_    0.015749 0.724994 0.379184 0.316799
H9    H     H_    0.188144 0.008139 0.616560 0.330077
H10   H     H_    0.811609 0.991876 0.382332 0.323814
H11   H     H_    0.537495 0.192822 0.027487 0.095720
H12   H     H_    0.217329 0.687713 0.214257 0.201889
H13   H     H_    0.308978 0.892050 0.233334 0.165891
H14   H     H_    0.284259 0.835370 0.104282 0.129492
H15   H     H_    0.567078 0.782865 0.238033 0.143270
H16   H     H_    0.617538 0.867782 0.108095 0.121874
H17   H     H_    0.242807 0.109770 0.977974 0.149300
H18   H     H_    0.153196 0.172034 0.866575 0.155768
N1    N     N_2   0.033570 0.455950 0.529530 0.110449
N2    N     N_2   0.966430 0.544050 0.470470 0.108824
O1    O     O_R   0.621060 0.286250 0.492350 -0.405608
O2    O     O_3   0.457607 0.800480 0.779661 -0.719756
O3    O     O_3   0.907490 0.341436 0.593009 -0.570896
O4    O     O_3   0.091266 0.664986 0.412571 -0.581387
O5    O     O_3   0.267106 0.939475 0.583348 -0.700367
O6    O     O_3   0.731936 0.060558 0.414748 -0.668560
O7    O     O_R   0.378940 0.713750 0.507650 -0.425102
O8    O     O_R   0.306310 0.256580 0.512240 -0.543432
O9    O     O_R   0.693690 0.743420 0.487760 -0.549362
O10   O     O_R   0.631800 0.512400 0.642670 -0.467249
O11   O     O_R   0.368200 0.487600 0.357330 -0.474916
O12   O     O_R   0.317060 0.482730 0.662570 -0.540631
O13   O     O_R   0.682940 0.517270 0.337430 -0.511241
O14   O     O_3   0.579330 0.222803 0.222437 -0.675057

loop_
_geom_bond_atom_site_label_1
_geom_bond_atom_site_label_2
_ccdc_geom_bond_type
C4    C16   A    
C8    O6    S    
C10   H13   S    
C5    C19   A    
C2    C16   A    
C1    O8    A    
H8    O4    S    
C8    C12   S    
Cu2   O8    S    
C12   O9    A    
C9    H15   S    
C12   O7    A    
C2    C19   A    
C7    C8    D    
C10   H12   S    
H9    O5    S    
Cu1   Cu2   S    
C11   C13   S    
C14   C17   S    
H10   O6    S    
C2    O14   S    
Cu2   O7    S    
C15   O11   A    
C9    C10   S    
C4    C6    A    
C9    H16   S    
C14   O12   A    
C1    O1    A    
C3    C17   A    
Cu2   O11   S    
C18   C20   A    
N2    O4    S    
C5    C6    A    
C6    C18   A    
C14   O10   A    
C13   H17   S    
Cu2   N1    S    
C3    C11   S    
C11   H3    S    
C7    O5    S    
C18   H1    S    
Cu1   O9    S    
C17   C20   A    
Cu2   O12   S    
N1    N2    D    
H7    O3    S    
Cu1   O13   S    
N1    O3    S    
H5    O14   S    
C13   H18   S    
C10   H14   S    
Cu1   N2    S    
C11   H4    S    
C20   O2    S    
C4    C9    S    
C1    C7    S    
H6    O2    S    
Cu1   O10   S    
Cu1   O1    S    
C15   C16   S    
C13   H2    S    
C19   H11   S    
C3    C5    A    
C15   O13   A    
