data_mof_unit_50960.cif
_audit_creation_date              2012-12-10T20:52:59-0500
_audit_creation_method            fapswitch 2.2
_symmetry_space_group_name_H-M    P1
_symmetry_Int_Tables_number       1
_space_group_crystal_system       triclinic
_cell_length_a                    18.361876
_cell_length_b                    18.364695
_cell_length_c                    18.372236
_cell_angle_alpha                 59.650184
_cell_angle_beta                  59.645238
_cell_angle_gamma                 59.634693
_cell_volume                      4345.24318738

loop_
_atom_site_label
_atom_site_type_symbol
_atom_type_description
_atom_site_fract_x
_atom_site_fract_y
_atom_site_fract_z
_atom_type_partial_charge
C1    C     C_R   0.390216 0.110413 0.109875 0.927022
C2    C     C_R   0.448919 0.763618 0.712522 -0.140337
C3    C     C_R   0.040367 0.541142 0.905676 -0.026893
C4    C     C_R   0.455756 0.093625 0.960431 0.030285
C5    C     C_R   0.543087 0.906147 0.039722 -0.029320
C6    C     C_R   0.944711 0.947185 0.553071 -0.140689
C7    C     C_R   0.055620 0.052395 0.447265 -0.138232
C8    C     C_R   0.947622 0.552273 0.944210 -0.135134
C9    C     C_R   0.052513 0.447671 0.055407 -0.137500
C10   C     C_R   0.552061 0.944288 0.947605 -0.137424
C11   C     C_R   0.447478 0.055503 0.052477 -0.140017
C12   C     C_R   0.267084 0.294941 0.550048 -0.164258
C13   C     C_R   0.763351 0.711967 0.449479 -0.139724
C14   C     C_R   0.224360 0.525787 0.342969 -0.152177
C15   C     C_R   0.774246 0.481212 0.681895 -0.155829
C16   C     C_R   0.525983 0.342919 0.224283 -0.154788
C17   C     C_R   0.481086 0.681549 0.774317 -0.157342
C18   C     C_R   0.343384 0.224539 0.525705 -0.154887
C19   C     C_R   0.681372 0.773937 0.481574 -0.160759
C20   C     C_R   0.140512 0.553551 0.336854 0.145465
C21   C     C_R   0.609788 0.889365 0.890301 0.855928
C22   C     C_R   0.866570 0.439012 0.668005 0.250353
C23   C     C_R   0.553606 0.336824 0.140510 0.145285
C24   C     C_R   0.439048 0.667952 0.866523 0.250173
C25   C     C_R   0.336996 0.140883 0.553275 0.145494
C26   C     C_R   0.667860 0.866157 0.439354 0.247863
C27   C     C_R   0.127386 0.607007 0.253659 -0.110483
C28   C     C_R   0.896084 0.364341 0.737204 -0.062358
C29   C     C_R   0.607066 0.253601 0.127349 -0.109574
C30   C     C_R   0.364543 0.737383 0.895855 -0.061846
C31   C     C_R   0.253619 0.128039 0.606567 -0.109514
C32   C     C_R   0.110768 0.109562 0.390144 0.932665
C33   C     C_R   0.737300 0.895322 0.364751 -0.057434
C34   C     C_R   0.198258 0.630252 0.177161 -0.088565
C35   C     C_R   0.834078 0.332886 0.819375 -0.138010
C36   C     C_R   0.630431 0.177049 0.198120 -0.089415
C37   C     C_R   0.333104 0.819504 0.833778 -0.137237
C38   C     C_R   0.177203 0.199021 0.629787 -0.088846
C39   C     C_R   0.819337 0.833070 0.333387 -0.137674
C40   C     C_R   0.281873 0.601756 0.183635 -0.093078
C41   C     C_R   0.742367 0.375186 0.832752 -0.058988
C42   C     C_R   0.602066 0.183500 0.281662 -0.090880
C43   C     C_R   0.889391 0.890249 0.609908 0.935723
C44   C     C_R   0.375240 0.832594 0.742181 -0.059396
C45   C     C_R   0.183943 0.282454 0.601453 -0.093627
C46   C     C_R   0.832331 0.741462 0.375695 -0.060505
C47   C     C_R   0.010882 0.581953 0.473079 0.389023
C48   C     C_R   0.983759 0.421544 0.524609 0.377010
C49   C     C_R   0.581936 0.473133 0.010974 0.388872
C50   C     C_R   0.421516 0.524626 0.983825 0.377307
C51   C     C_R   0.473103 0.011028 0.581867 0.388710
C52   C     C_R   0.524623 0.983712 0.421621 0.377227
C53   C     C_R   0.945323 0.553393 0.554190 -0.190118
C54   C     C_R   0.109880 0.390238 0.110395 0.927741
C55   C     C_R   0.052013 0.447820 0.444624 -0.208774
C56   C     C_R   0.553405 0.554181 0.945347 -0.191133
C57   C     C_R   0.447802 0.444651 0.052077 -0.208488
C58   C     C_R   0.554131 0.945273 0.553465 -0.190882
C59   C     C_R   0.444695 0.052122 0.447756 -0.208335
C60   C     C_R   0.933190 0.472143 0.581261 -0.161394
C61   C     C_R   0.065707 0.528227 0.418268 -0.177350
C62   C     C_R   0.472146 0.581249 0.933211 -0.161496
C63   C     C_R   0.528214 0.418306 0.065791 -0.177085
C64   C     C_R   0.581206 0.933033 0.472300 -0.161049
C65   C     C_R   0.890483 0.609829 0.889152 0.861295
C66   C     C_R   0.418346 0.065928 0.528078 -0.176813
C67   C     C_R   0.109979 0.390334 0.389777 0.834858
C68   C     C_R   0.889702 0.609785 0.610100 0.874915
C69   C     C_R   0.390333 0.389792 0.109997 0.834842
C70   C     C_R   0.609788 0.610087 0.889705 0.877406
C71   C     C_R   0.389812 0.110029 0.390304 0.835136
C72   C     C_R   0.610066 0.889670 0.609820 0.884379
C73   C     C_R   0.189742 0.915060 0.426647 0.464121
C74   C     C_R   0.810567 0.084595 0.573229 0.459686
C75   C     C_R   0.916324 0.421140 0.188205 0.464723
C76   C     C_R   0.294656 0.550150 0.266587 -0.163249
C77   C     C_R   0.084127 0.579170 0.811597 0.437322
C78   C     C_R   0.415412 0.187406 0.917751 0.463380
C79   C     C_R   0.583129 0.812365 0.082951 0.440398
C80   C     C_R   0.223844 0.822136 0.443772 -0.249554
C81   C     C_R   0.776692 0.177144 0.557892 -0.225127
C82   C     C_R   0.824424 0.433818 0.221471 -0.248703
C83   C     C_R   0.172955 0.574091 0.779494 -0.130594
C84   C     C_R   0.425321 0.220036 0.826722 -0.235811
C85   C     C_R   0.579914 0.780835 0.170982 -0.131222
C86   C     C_R   0.167420 0.771846 0.495370 -0.170365
C87   C     C_R   0.712521 0.449040 0.764017 -0.138402
C88   C     C_R   0.833450 0.226920 0.508621 -0.189344
C89   C     C_R   0.774570 0.483864 0.164754 -0.178349
C90   C     C_R   0.222158 0.527074 0.836620 -0.233936
C91   C     C_R   0.475230 0.163193 0.777016 -0.197102
C92   C     C_R   0.532613 0.838026 0.220148 -0.232665
C93   C     C_R   0.076052 0.812794 0.531139 -0.110203
C94   C     C_R   0.924804 0.185948 0.472820 -0.151025
C95   C     C_R   0.814864 0.522730 0.074007 -0.106729
C96   C     C_R   0.183173 0.484449 0.926785 -0.155527
C97   C     C_R   0.516774 0.072970 0.816561 -0.141607
C98   C     C_R   0.550474 0.266485 0.294473 -0.162562
C99   C     C_R   0.487913 0.927704 0.181887 -0.150703
C100  C     C_R   0.038202 0.906291 0.515417 -0.035848
C101  C     C_R   0.962318 0.092991 0.486108 -0.010487
C102  C     C_R   0.907472 0.511119 0.036954 -0.013114
C103  C     C_R   0.091999 0.490895 0.963090 0.010979
C104  C     C_R   0.508130 0.036492 0.908286 0.002341
C105  C     C_R   0.492718 0.963617 0.091311 0.009569
C106  C     C_R   0.095096 0.958743 0.462061 0.035648
C107  C     C_R   0.905273 0.040795 0.538327 0.036007
C108  C     C_R   0.959685 0.458652 0.094022 0.030136
H1    H     H_    0.806383 0.298089 0.497451 0.150524
H2    H     H_    0.204997 0.604527 0.708741 0.154514
H3    H     H_    0.394830 0.290475 0.793658 0.133355
H4    H     H_    0.611859 0.710359 0.202580 0.156614
H5    H     H_    0.035608 0.769766 0.571479 0.165337
H6    H     H_    0.965606 0.228421 0.434704 0.126574
H7    H     H_    0.771988 0.562187 0.033472 0.172076
H8    H     H_    0.225513 0.447261 0.967622 0.132528
H9    H     H_    0.555824 0.032375 0.773805 0.157857
H10   H     H_    0.450276 0.968419 0.224388 0.133284
H11   H     H_    0.336623 0.620008 0.124564 0.124615
H12   H     H_    0.194767 0.700315 0.508280 0.161832
H13   H     H_    0.694428 0.350649 0.896277 0.121037
H14   H     H_    0.620416 0.124389 0.336331 0.126702
H15   H     H_    0.350708 0.896080 0.694188 0.121089
H16   H     H_    0.124933 0.337287 0.619688 0.124612
H17   H     H_    0.895742 0.693334 0.351211 0.121122
H18   H     H_    0.358841 0.529532 0.271852 0.123341
H19   H     H_    0.641516 0.481111 0.774526 0.115428
H20   H     H_    0.529974 0.271737 0.358594 0.123347
H21   H     H_    0.480843 0.773894 0.641609 0.115542
H22   H     H_    0.272560 0.358975 0.529574 0.123355
H23   H     H_    0.291577 0.522120 0.810602 0.160764
H24   H     H_    0.773550 0.641043 0.481534 0.116050
H25   H     H_    0.234890 0.486068 0.406846 0.121916
H26   H     H_    0.750164 0.538672 0.629464 0.091548
H27   H     H_    0.486297 0.406823 0.234831 0.121898
H28   H     H_    0.538397 0.628918 0.750380 0.092000
H29   H     H_    0.407413 0.234827 0.486183 0.121580
H30   H     H_    0.628734 0.750124 0.538959 0.092171
H31   H     H_    0.062761 0.629578 0.248101 0.121823
H32   H     H_    0.966989 0.330987 0.727640 0.108651
H33   H     H_    0.629549 0.248059 0.062776 0.121625
H34   H     H_    0.703769 0.493498 0.191466 0.164231
H35   H     H_    0.331304 0.728037 0.966671 0.108606
H36   H     H_    0.247860 0.063546 0.629038 0.121814
H37   H     H_    0.728020 0.966147 0.331363 0.109917
H38   H     H_    0.188343 0.670486 0.112935 0.140474
H39   H     H_    0.857134 0.275628 0.872640 0.129217
H40   H     H_    0.670664 0.112799 0.188178 0.140362
H41   H     H_    0.275975 0.872952 0.856692 0.129124
H42   H     H_    0.112836 0.189325 0.669883 0.140311
H43   H     H_    0.872789 0.855857 0.276176 0.129391
H44   H     H_    0.059964 0.680438 0.389245 0.337948
H45   H     H_    0.528938 0.812359 0.289063 0.161306
H46   H     H_    0.972551 0.341654 0.493910 0.328875
H47   H     H_    0.680012 0.389661 0.060810 0.337953
H48   H     H_    0.341647 0.493891 0.972637 0.327658
H49   H     H_    0.389398 0.060552 0.680064 0.337758
H50   H     H_    0.493847 0.972491 0.341842 0.326831
H51   H     H_    0.310781 0.921788 0.358375 0.312764
H52   H     H_    0.689247 0.078506 0.638716 0.316611
H53   H     H_    0.921783 0.356322 0.309547 0.311666
H54   H     H_    0.026086 0.573071 0.754393 0.316310
H55   H     H_    0.346375 0.308522 0.924012 0.313216
H56   H     H_    0.482658 0.189422 0.706877 0.158176
H57   H     H_    0.576731 0.753956 0.026282 0.315010
H58   H     H_    0.295018 0.788171 0.417359 0.133275
H59   H     H_    0.705496 0.211159 0.584127 0.131313
H60   H     H_    0.790835 0.405391 0.292274 0.134638
O1    O     O_3   0.250000 0.250000 0.250000 -0.506335
O2    O     O_R   0.865800 0.694910 0.573470 -0.585084
O3    O     O_R   0.305090 0.426530 0.134200 -0.622818
O4    O     O_R   0.694910 0.573470 0.865800 -0.581950
O5    O     O_R   0.426530 0.134200 0.305090 -0.623073
O6    O     O_R   0.573470 0.865800 0.694910 -0.584451
O7    O     O_R   0.134190 0.426530 0.134200 -0.639223
O8    O     O_R   0.865810 0.573470 0.865800 -0.652501
O9    O     O_R   0.426530 0.134200 0.134190 -0.641661
O10   O     O_R   0.573470 0.865800 0.865810 -0.650397
O11   O     O_R   0.134200 0.134190 0.426530 -0.638406
O12   O     O_3   0.750000 0.750000 0.750000 -0.513861
O13   O     O_R   0.865800 0.865810 0.573470 -0.627084
O14   O     O_R   0.426530 0.305080 0.134210 -0.633610
O15   O     O_R   0.573470 0.694920 0.865790 -0.666061
O16   O     O_R   0.305080 0.134210 0.426530 -0.632952
O17   O     O_R   0.694920 0.865790 0.573470 -0.655878
O18   O     O_R   0.134210 0.426530 0.305080 -0.633107
O19   O     O_R   0.865790 0.573470 0.694920 -0.666331
O20   O     O_3   0.022078 0.660346 0.452327 -0.752259
O21   O     O_3   0.963613 0.347521 0.548821 -0.752441
O22   O     O_3   0.660332 0.452465 0.022149 -0.753679
O23   O     O_R   0.305080 0.134200 0.134200 -0.605346
O24   O     O_3   0.347461 0.548842 0.963717 -0.753443
O25   O     O_3   0.452400 0.022312 0.660167 -0.755292
O26   O     O_3   0.548824 0.963497 0.347677 -0.754608
O27   O     O_3   0.248516 0.962620 0.376988 -0.810637
O28   O     O_3   0.751542 0.037544 0.620579 -0.804971
O29   O     O_3   0.962930 0.374565 0.247487 -0.808766
O30   O     O_3   0.044007 0.619027 0.748386 -0.803802
O31   O     O_3   0.368791 0.246994 0.964060 -0.808616
O32   O     O_3   0.622949 0.748771 0.043274 -0.797978
O33   O     O_R   0.694920 0.865800 0.865800 -0.595162
O34   O     O_R   0.134200 0.134200 0.305080 -0.608787
O35   O     O_R   0.865800 0.865800 0.694920 -0.607802
O36   O     O_R   0.134200 0.305080 0.134200 -0.606710
O37   O     O_R   0.865800 0.694920 0.865800 -0.593877
O38   O     O_R   0.134200 0.305090 0.426530 -0.622582
Zn1   Zn    Zn3+2 0.206620 0.206630 0.380140 1.002656
Zn2   Zn    Zn3+2 0.793380 0.793370 0.619860 1.017534
Zn3   Zn    Zn3+2 0.206630 0.380140 0.206620 1.002093
Zn4   Zn    Zn3+2 0.793370 0.619860 0.793380 0.994173
Zn5   Zn    Zn3+2 0.380140 0.206620 0.206630 1.000789
Zn6   Zn    Zn3+2 0.619860 0.793380 0.793370 0.997670
Zn7   Zn    Zn3+2 0.206620 0.206620 0.206620 1.046104
Zn8   Zn    Zn3+2 0.793380 0.793380 0.793380 1.059654

loop_
_geom_bond_atom_site_label_1
_geom_bond_atom_site_label_2
_ccdc_geom_bond_type
C25   C31   A    
C48   C55   A    
C101  C107  A    
C49   C63   A    
C76   H18   S    
C47   C61   A    
O35   Zn8   S    
C36   C42   A    
C1    C11   S    
H44   O20   S    
C85   H4    S    
C58   C72   S    
C87   H19   S    
C94   H6    S    
C15   H26   S    
C82   H60   S    
C9    C108  A    
H51   O27   S    
C29   C36   A    
C59   C71   S    
C33   C39   A    
O16   Zn1   S    
C12   H22   S    
C34   C40   A    
C23   C29   A    
C86   C93   A    
O4    Zn4   S    
C10   C104  A    
C42   C98   A    
C59   C66   A    
C22   C60   S    
C13   C46   A    
O3    Zn3   S    
C65   O37   A    
C77   C83   A    
C89   H34   S    
O1    Zn5   S    
C39   H43   S    
C31   H36   S    
C2    H21   S    
C4    C78   A    
C69   O3    A    
C55   C61   A    
C41   H13   S    
C20   C61   S    
O12   Zn6   S    
C19   C26   A    
C70   O4    A    
C45   H16   S    
C38   C45   A    
C80   C86   A    
C46   H17   S    
C74   C107  A    
C68   O2    A    
C36   H40   S    
C15   C22   A    
H49   O25   S    
C94   C101  A    
C95   H7    S    
C28   H32   S    
C11   C105  A    
C6    C107  A    
C32   O11   A    
C48   C60   A    
C92   H45   S    
C79   O32   S    
C84   C91   A    
C72   O6    A    
C5    C79   A    
C50   O24   S    
C77   O30   S    
C95   C102  A    
C69   O14   A    
H52   O28   S    
C23   C63   S    
O1    Zn3   S    
C8    C65   S    
C10   C21   S    
C22   C28   A    
C71   O5    A    
C2    C17   A    
C97   H9    S    
O17   Zn2   S    
O5    Zn5   S    
C18   C25   A    
C1    O9    A    
C41   C87   A    
C80   H58   S    
C72   O17   A    
C53   C68   S    
C85   C92   A    
C57   C63   A    
O11   Zn1   S    
C75   O29   S    
C27   C34   A    
C58   C64   A    
C99   C105  A    
C88   C94   A    
C83   H2    S    
C17   C24   A    
C13   C19   A    
C84   H3    S    
C21   O33   A    
O13   Zn2   S    
C52   O26   S    
C28   C35   A    
C3    C8    A    
C51   O25   S    
H57   O32   S    
C2    C44   A    
O38   Zn1   S    
C5    C105  A    
C49   O22   S    
O15   Zn6   S    
O36   Zn7   S    
C43   O13   A    
C27   H31   S    
C30   H35   S    
C40   C76   A    
C30   C37   A    
C51   C66   A    
C6    C100  A    
C54   O7    A    
C89   C95   A    
C18   H29   S    
O12   Zn4   S    
O2    Zn2   S    
H47   O22   S    
C14   C20   A    
C52   C59   A    
C26   C33   A    
O19   Zn4   S    
C9    C103  A    
C29   H33   S    
C17   H28   S    
C53   C60   A    
C81   H59   S    
C7    C106  A    
O10   Zn6   S    
C75   C82   A    
C51   C58   A    
H50   O26   S    
C91   C97   A    
C4    C11   A    
C102  C108  A    
C82   C89   A    
C93   C100  A    
C48   O21   S    
C35   H39   S    
C67   O38   A    
C33   H37   S    
C39   C46   A    
C90   H23   S    
C1    O23   A    
C21   O10   A    
C14   H25   S    
H46   O21   S    
O37   Zn8   S    
C16   C23   A    
C56   C70   S    
C6    C43   S    
C73   O27   S    
C65   O8    A    
C52   C64   A    
C50   C62   A    
O6    Zn6   S    
C91   H56   S    
C96   C103  A    
C78   O31   S    
C88   H1    S    
C74   C81   A    
C3    C77   A    
H48   O24   S    
C79   C85   A    
C42   H14   S    
C15   C87   A    
C3    C103  A    
C83   C90   A    
C73   C80   A    
C24   C62   S    
C7    C32   S    
C50   C57   A    
C71   O16   A    
C25   C66   S    
C37   H41   S    
C12   C45   A    
O1    Zn1   S    
C55   C67   S    
C67   O18   A    
C74   O28   S    
C90   C96   A    
C20   C27   A    
C26   C64   S    
C49   C56   A    
O1    Zn7   S    
H54   O30   S    
C44   H15   S    
C100  C106  A    
C31   C38   A    
H53   O29   S    
C97   C104  A    
O9    Zn5   S    
C37   C44   A    
O12   Zn8   S    
C5    C10   A    
O23   Zn7   S    
C99   H10   S    
C43   O35   A    
C34   H38   S    
C16   C98   A    
C73   C106  A    
C19   H30   S    
C54   O36   A    
C47   C53   A    
C4    C104  A    
C98   H20   S    
O14   Zn5   S    
C13   H24   S    
O8    Zn4   S    
C93   H5    S    
C56   C62   A    
O7    Zn3   S    
O34   Zn7   S    
C32   O34   A    
C35   C41   A    
C24   C30   A    
O33   Zn8   S    
C81   C88   A    
H55   O31   S    
C68   O19   A    
C78   C84   A    
C70   O15   A    
C75   C108  A    
C40   H11   S    
C7    C101  A    
O18   Zn3   S    
C12   C18   A    
C96   H8    S    
C86   H12   S    
C9    C54   S    
C57   C69   S    
C47   O20   S    
O12   Zn2   S    
C16   H27   S    
C8    C102  A    
C38   H42   S    
C92   C99   A    
C14   C76   A    
