data_mof_unit_13745.cif
_audit_creation_date              2012-12-10T17:09:55-0500
_audit_creation_method            fapswitch 2.2
_symmetry_space_group_name_H-M    P1
_symmetry_Int_Tables_number       1
_space_group_crystal_system       triclinic
_cell_length_a                    10.817465
_cell_length_b                    12.990391
_cell_length_c                    11.778044
_cell_angle_alpha                 98.836204
_cell_angle_beta                  93.831102
_cell_angle_gamma                 92.122815
_cell_volume                      1629.90984219

loop_
_atom_site_label
_atom_site_type_symbol
_atom_type_description
_atom_site_fract_x
_atom_site_fract_y
_atom_site_fract_z
_atom_type_partial_charge
C1    C     C_R   0.495903 0.299607 0.479650 0.925297
C2    C     C_R   0.070696 0.535482 0.607598 -0.051726
C3    C     C_R   0.128901 0.528433 0.502562 -0.178542
C4    C     C_R   0.054498 0.515821 0.397546 0.123714
C5    C     C_R   0.929692 0.487622 0.395409 0.411137
C6    C     C_R   0.873440 0.481792 0.499376 -0.214141
C7    C     C_R   0.519613 0.812644 0.530741 -0.135810
C8    C     C_R   0.485318 0.186338 0.470405 -0.212146
C9    C     C_R   0.380812 0.020070 0.388653 0.331672
C10   C     C_R   0.390726 0.129680 0.396862 0.247129
C11   C     C_R   0.564728 0.136696 0.541535 0.271364
C12   C     C_R   0.263498 0.512612 0.501179 0.858226
C13   C     C_R   0.548765 0.028974 0.542287 -0.031718
C14   C     C_R   0.457034 0.970825 0.463648 -0.018505
C15   C     C_R   0.442807 0.863317 0.460358 -0.228059
C16   C     C_R   0.613628 0.867746 0.605784 0.346170
C17   C     C_R   0.622663 0.977586 0.618857 0.134944
C18   C     C_R   0.370129 0.409547 0.026495 0.000316
C19   C     C_R   0.387095 0.415034 0.148318 0.485776
C20   C     C_R   0.558147 0.537292 0.154104 0.540754
C21   C     C_R   0.546592 0.532969 0.032394 -0.134692
C22   C     C_R   0.453327 0.466832 0.967620 -0.128792
C23   C     C_R   0.505625 0.700113 0.520408 0.879628
C24   C     C_R   0.450028 0.455248 0.845104 0.271448
C25   C     C_R   0.608803 0.588389 0.852599 0.431027
C26   C     C_R   0.628030 0.591965 0.973911 0.290734
C27   C     C_R   0.737459 0.490272 0.499316 0.865509
C28   C     C_R   0.129322 0.585059 0.714396 0.383783
C29   C     C_R   0.081047 0.565609 0.818704 -0.025935
C30   C     C_R   0.976180 0.496760 0.814008 0.373819
C31   C     C_R   0.910721 0.460249 0.707313 0.159584
C32   C     C_R   0.949117 0.492701 0.604967 -0.081899
Cu1   Cu    Cu3+1 0.509250 0.507730 0.615930 1.012463
Cu2   Cu    Cu3+1 0.490750 0.492270 0.384070 1.012645
H1    H     H_    0.372201 0.817617 0.402217 0.215669
N1    N     N_R   0.523180 0.519350 0.790130 -0.238912
N2    N     N_R   0.476820 0.480650 0.209890 -0.273240
O1    O     O_R   0.506570 0.354460 0.582000 -0.637979
O2    O     O_R   0.490940 0.341410 0.386200 -0.498495
O3    O     O_R   0.327470 0.506530 0.597920 -0.573672
O4    O     O_R   0.311840 0.493480 0.402120 -0.560171
O5    O     O_R   0.509060 0.658590 0.613800 -0.478613
O6    O     O_R   0.493430 0.645540 0.418000 -0.653550
O7    O     O_R   0.688160 0.506520 0.597880 -0.513409
O8    O     O_R   0.672530 0.493470 0.402080 -0.589018
N3    N     N_3   0.101280 0.535151 0.291166 -0.500849
H2    H     H_    0.143638 0.469166 0.253123 0.268206
H3    H     H_    0.163272 0.600314 0.305986 0.231261
N4    N     N_3   0.699097 0.037065 0.713319 -0.520597
H4    H     H_    0.741456 0.989828 0.766963 0.224249
H5    H     H_    0.639442 0.080438 0.766118 0.213608
O9    O     O_3   0.306869 0.183820 0.338140 -0.695447
H6    H     H_    0.226650 0.143068 0.323902 0.334123
O10   O     O_3   0.663427 0.192891 0.603867 -0.687664
H7    H     H_    0.628852 0.230576 0.673430 0.325444
N5    N     N_3   0.380858 0.366577 0.781073 -0.534043
H8    H     H_    0.319917 0.385562 0.716679 0.262550
H9    H     H_    0.440685 0.308854 0.751873 0.219651
O11   O     O_3   0.678016 0.651432 0.794534 -0.648887
H10   H     H_    0.704214 0.716558 0.847405 0.332719
N6    N     N_3   0.265066 0.351244 0.963778 -0.553784
H11   H     H_    0.273625 0.271974 0.967798 0.226793
H12   H     H_    0.183962 0.376936 0.000224 0.231111
O12   O     O_3   0.725677 0.651846 0.035354 -0.642354
H13   H     H_    0.796296 0.652286 0.985972 0.344227
O13   O     O_3   0.316065 0.354673 0.208368 -0.662054
H14   H     H_    0.260821 0.304094 0.155388 0.314188
O14   O     O_3   0.657809 0.594901 0.213550 -0.606749
H15   H     H_    0.635152 0.623529 0.290364 0.367168
O15   O     O_3   0.225554 0.658047 0.712406 -0.711903
H16   H     H_    0.262731 0.683532 0.790990 0.324701
N7    N     N_3   0.137958 0.612868 0.928854 -0.602606
H17   H     H_    0.230175 0.591821 0.935469 0.229046
H18   H     H_    0.135000 0.693901 0.935530 0.238457
O16   O     O_3   0.932812 0.464598 0.911431 -0.729743
H19   H     H_    0.989268 0.491825 0.979867 0.375959
N8    N     N_3   0.816141 0.378976 0.701137 -0.513080
H20   H     H_    0.750587 0.403697 0.759551 0.256235
H21   H     H_    0.857259 0.314303 0.727924 0.257694
O17   O     O_3   0.865883 0.463425 0.288674 -0.635673
H22   H     H_    0.814438 0.398709 0.289216 0.328692
O18   O     O_3   0.697575 0.812074 0.661973 -0.706529
H23   H     H_    0.780820 0.846967 0.663409 0.328372
O19   O     O_3   0.298340 0.959534 0.308512 -0.733074
H24   H     H_    0.284567 0.995564 0.240802 0.336802

loop_
_geom_bond_atom_site_label_1
_geom_bond_atom_site_label_2
_ccdc_geom_bond_type
C6    C32   A    
C21   C26   A    
C30   O16   S    
Cu2   N2    S    
O16   H19   S    
C10   O9    S    
C4    N3    S    
N8    H20   S    
C12   O4    A    
C23   O5    A    
Cu1   O5    S    
C28   C29   A    
C5    C6    A    
C16   C17   A    
C1    C8    S    
Cu1   N1    S    
C23   O6    A    
N5    H8    S    
C19   O13   S    
C2    C32   A    
C18   C19   A    
N6    H12   S    
C26   O12   S    
C3    C12   S    
C19   N2    A    
N3    H2    S    
C27   O7    A    
C6    C27   S    
O14   H15   S    
N4    H5    S    
O15   H16   S    
C9    C10   A    
C29   N7    S    
C27   O8    A    
C7    C15   A    
O13   H14   S    
O11   H10   S    
C13   C14   A    
Cu2   O4    S    
C15   H1    S    
C31   N8    S    
N8    H21   S    
N3    H3    S    
Cu1   O3    S    
Cu2   O2    S    
O19   H24   S    
N7    H18   S    
C17   N4    S    
O17   H22   S    
C9    O19   S    
C25   C26   A    
C12   O3    A    
C9    C14   A    
C29   C30   A    
C31   C32   A    
C16   O18   S    
Cu1   Cu2   S    
Cu2   O8    S    
C24   N1    A    
C5    O17   S    
C11   O10   S    
C1    O1    A    
C7    C16   A    
N4    H4    S    
C22   C24   A    
C3    C4    A    
O9    H6    S    
O10   H7    S    
C18   C22   A    
Cu1   O7    S    
C20   O14   S    
C28   O15   S    
Cu2   O6    S    
N7    H17   S    
C18   N6    S    
C24   N5    S    
Cu1   O1    S    
C13   C17   A    
O12   H13   S    
C2    C3    A    
C20   N2    A    
C11   C13   A    
C30   C31   A    
C8    C11   A    
C7    C23   S    
N5    H9    S    
N6    H11   S    
C1    O2    A    
C25   N1    A    
C4    C5    A    
C20   C21   A    
C8    C10   A    
O18   H23   S    
C14   C15   A    
C2    C28   A    
C25   O11   S    
C21   C22   A    
