data_mof_unit_33866.cif
_audit_creation_date              2012-12-11T14:13:12-0500
_audit_creation_method            fapswitch 2.2
_symmetry_space_group_name_H-M    P1
_symmetry_Int_Tables_number       1
_space_group_crystal_system       triclinic
_cell_length_a                    11.726741
_cell_length_b                    18.061786
_cell_length_c                    9.930481
_cell_angle_alpha                 89.999986
_cell_angle_beta                  111.319242
_cell_angle_gamma                 90.0
_cell_volume                      1959.40144223

loop_
_atom_site_label
_atom_site_type_symbol
_atom_type_description
_atom_site_fract_x
_atom_site_fract_y
_atom_site_fract_z
_atom_type_partial_charge
C1    C     C_R   0.066549 0.649334 0.136639 0.583906
C2    C     C_R   0.933451 0.350666 0.863361 0.583906
C3    C     C_R   0.933451 0.149334 0.863361 0.583906
C4    C     C_R   0.066549 0.850666 0.136639 0.583906
C5    C     C_R   0.395094 0.461773 0.499679 0.051961
C6    C     C_R   0.604906 0.538227 0.500321 0.051961
C7    C     C_R   0.604906 0.961773 0.500320 0.051961
C8    C     C_R   0.395094 0.038227 0.499679 0.051961
C9    C     C_2   0.365136 0.949186 0.030935 0.189734
C10   C     C_2   0.634864 0.050814 0.969065 0.189734
C11   C     C_2   0.634864 0.449186 0.969065 0.189734
C12   C     C_2   0.365136 0.550814 0.030935 0.189734
C13   C     C_2   0.447875 0.003127 0.025617 -0.141369
C14   C     C_2   0.552125 0.996873 0.974383 -0.141369
C15   C     C_2   0.552125 0.503127 0.974383 -0.141369
C16   C     C_2   0.447875 0.496873 0.025617 -0.141369
C17   C     C_2   0.995780 0.917476 0.102788 -0.006464
C18   C     C_2   0.004220 0.082524 0.897212 -0.006464
C19   C     C_2   0.004220 0.417476 0.897212 -0.006464
C20   C     C_2   0.995780 0.582524 0.102788 -0.006464
C21   C     C_2   0.997790 0.959817 0.991650 0.227376
C22   C     C_2   0.002210 0.040183 0.008350 0.227376
C23   C     C_2   0.002210 0.459817 0.008350 0.227377
C24   C     C_2   0.997790 0.540183 0.991650 0.227377
C25   C     C_R   0.472543 0.647975 0.446365 0.589053
C26   C     C_R   0.527456 0.352025 0.553635 0.589053
C27   C     C_R   0.527456 0.147975 0.553635 0.589053
C28   C     C_R   0.472544 0.852025 0.446365 0.589053
C29   C     C_R   0.358289 0.634797 0.005411 0.587170
C30   C     C_R   0.641711 0.365203 0.994589 0.587171
C31   C     C_R   0.641711 0.134797 0.994589 0.587171
C32   C     C_R   0.358289 0.865203 0.005411 0.587170
C33   C     C_R   0.492222 0.423391 0.477566 0.021773
C34   C     C_R   0.507778 0.576609 0.522434 0.021773
C35   C     C_R   0.507778 0.923391 0.522434 0.021774
C36   C     C_R   0.492222 0.076609 0.477566 0.021774
C37   C     C_R   0.283269 0.426833 0.487331 0.311566
C38   C     C_R   0.716731 0.573167 0.512668 0.311566
C39   C     C_R   0.716731 0.926833 0.512668 0.311566
C40   C     C_R   0.283269 0.073167 0.487332 0.311566
C41   C     C_R   0.201308 0.462055 0.539210 -0.065487
C42   C     C_R   0.798691 0.537945 0.460790 -0.065487
C43   C     C_R   0.798691 0.962055 0.460789 -0.065487
C44   C     C_R   0.201309 0.037945 0.539211 -0.065487
C45   C     C_R   0.227699 0.532200 0.600478 -0.148123
C46   C     C_R   0.772301 0.467800 0.399522 -0.148123
C47   C     C_R   0.772300 0.032200 0.399521 -0.148123
C48   C     C_R   0.227700 0.967799 0.600479 -0.148123
C49   C     C_R   0.332208 0.569388 0.602190 -0.084354
C50   C     C_R   0.667792 0.430612 0.397810 -0.084354
C51   C     C_R   0.667791 0.069389 0.397809 -0.084354
C52   C     C_R   0.332208 0.930611 0.602191 -0.084354
C53   C     C_R   0.413106 0.536133 0.544091 -0.009704
C54   C     C_R   0.586894 0.463867 0.455909 -0.009704
C55   C     C_R   0.586893 0.036133 0.455909 -0.009704
C56   C     C_R   0.413107 0.963867 0.544091 -0.009704
Cr1   Cr    Cr6+3 0.187610 0.750000 0.979860 1.168611
Cr2   Cr    Cr6+3 0.812390 0.250000 0.020140 1.168611
Cr3   Cr    Cr6+3 0.245810 0.750000 0.341640 1.065127
Cr4   Cr    Cr6+3 0.754190 0.250000 0.658360 1.065127
Cr5   Cr    Cr6+3 0.485760 0.750000 0.219910 1.107417
Cr6   Cr    Cr6+3 0.514240 0.250000 0.780090 1.107417
H1    H     H_    0.117008 0.434953 0.532351 0.161472
H2    H     H_    0.882992 0.565047 0.467649 0.161472
H3    H     H_    0.882992 0.934953 0.467647 0.161472
H4    H     H_    0.117008 0.065047 0.532353 0.161472
H5    H     H_    0.165171 0.558847 0.642582 0.177449
H6    H     H_    0.834829 0.441153 0.357418 0.177449
H7    H     H_    0.834828 0.058848 0.357417 0.177450
H8    H     H_    0.165172 0.941152 0.642583 0.177450
H9    H     H_    0.349565 0.624435 0.648497 0.147510
H10   H     H_    0.650435 0.375565 0.351503 0.147510
H11   H     H_    0.650434 0.124435 0.351502 0.147510
H12   H     H_    0.349566 0.875565 0.648498 0.147510
H13   H     H_    0.562350 0.941938 0.935447 0.180432
H14   H     H_    0.437650 0.058062 0.064553 0.180433
H15   H     H_    0.437650 0.441938 0.064553 0.180432
H16   H     H_    0.562350 0.558062 0.935447 0.180432
H17   H     H_    0.027210 0.060708 0.808853 0.118010
H18   H     H_    0.972790 0.939292 0.191147 0.118010
H19   H     H_    0.972790 0.560708 0.191147 0.118010
H20   H     H_    0.027210 0.439292 0.808852 0.118010
O1    O     O_R   0.267710 0.668200 0.902110 -0.477957
O2    O     O_R   0.732290 0.331800 0.097890 -0.477957
O3    O     O_R   0.732290 0.168200 0.097890 -0.477957
O4    O     O_R   0.267710 0.831800 0.902110 -0.477957
O5    O     O_R   0.099480 0.674460 0.038850 -0.434085
O6    O     O_R   0.900520 0.325540 0.961150 -0.434085
O7    O     O_R   0.900520 0.174460 0.961150 -0.434085
O8    O     O_R   0.099480 0.825540 0.038850 -0.434085
O9    O     O_R   0.116720 0.669210 0.267660 -0.507684
O10   O     O_R   0.883280 0.330790 0.732340 -0.507684
O11   O     O_R   0.883280 0.169210 0.732340 -0.507684
O12   O     O_R   0.116720 0.830790 0.267660 -0.507684
O13   O     O_R   0.366710 0.675440 0.427590 -0.501034
O14   O     O_R   0.633290 0.324560 0.572410 -0.501034
O15   O     O_R   0.633290 0.175440 0.572410 -0.501034
O16   O     O_R   0.366710 0.824560 0.427590 -0.501034
O17   O     O_R   0.534870 0.669390 0.371760 -0.464974
O18   O     O_R   0.465130 0.330610 0.628240 -0.464974
O19   O     O_R   0.465130 0.169390 0.628240 -0.464974
O20   O     O_R   0.534870 0.830610 0.371760 -0.464974
O21   O     O_R   0.453080 0.674480 0.075160 -0.503115
O22   O     O_R   0.546920 0.325520 0.924840 -0.503115
O23   O     O_R   0.546920 0.174480 0.924840 -0.503115
O24   O     O_R   0.453080 0.825520 0.075160 -0.503115
O25   O     O_3   0.306390 0.750000 0.180470 -0.294215
O26   O     O_3   0.693610 0.250000 0.819530 -0.294215
Cl1   Cl    Cl    0.239734 0.340958 0.399199 -0.445803
Cl2   Cl    Cl    0.760265 0.659042 0.600801 -0.445803
Cl3   Cl    Cl    0.760266 0.840958 0.600800 -0.445803
Cl4   Cl    Cl    0.239734 0.159042 0.399200 -0.445803
Cl5   Cl    Cl    0.721797 0.022077 0.868232 -0.647192
Cl6   Cl    Cl    0.278203 0.977923 0.131768 -0.647192
Cl7   Cl    Cl    0.278203 0.522077 0.131768 -0.647192
Cl8   Cl    Cl    0.721797 0.477923 0.868232 -0.647192
Br1   Br    Br    0.993408 0.080921 0.186595 -0.433539
Br2   Br    Br    0.006592 0.919079 0.813404 -0.433539
Br3   Br    Br    0.006592 0.580921 0.813405 -0.433540
Br4   Br    Br    0.993408 0.419079 0.186595 -0.433540

loop_
_geom_bond_atom_site_label_1
_geom_bond_atom_site_label_2
_ccdc_geom_bond_type
C1    O5    A    
C22   Br1   S    
C44   C48   A    
C31   O3    A    
C5    C37   A    
C12   C29   S    
C44   H4    S    
C7    C55   A    
C6    C34   A    
C8    C56   A    
C40   Cl4   S    
Cr6   O23   S    
C50   C54   A    
C9    Cl6   S    
C5    C53   A    
Cr5   O21   S    
C38   C42   A    
C52   H12   S    
C42   C46   A    
C15   H16   S    
Cr6   O26   S    
C15   C16   S    
Cr1   O4    S    
C29   O21   A    
C3    C18   S    
C16   H15   S    
C8    C36   A    
C9    C13   D    
C47   H7    S    
C50   H10   S    
C9    C32   S    
C11   C15   D    
C10   C31   S    
C25   O17   A    
C20   C24   D    
C11   C30   S    
C18   H17   S    
C24   Br3   S    
C5    C33   A    
C45   H5    S    
C23   C24   S    
C6    C38   A    
C2    O6    A    
Cr3   O12   S    
C38   Cl2   S    
C19   H20   S    
C40   C44   A    
C37   Cl1   S    
Cr4   O26   S    
C25   C34   S    
Cr6   O19   S    
Cr4   O11   S    
C39   Cl3   S    
C35   C56   A    
C1    O9    A    
C32   O24   A    
C13   C14   S    
C37   C41   A    
C31   O23   A    
Cr5   O17   S    
Cr3   O13   S    
C6    C54   A    
C4    O8    A    
Cr4   O10   S    
C26   O14   A    
Cr2   O26   S    
Cr6   O22   S    
Cr1   O8    S    
C12   C16   D    
C28   C35   S    
Cr4   O15   S    
C10   C14   D    
C23   Br4   S    
C39   C43   A    
C27   O19   A    
C17   H18   S    
Cr3   O25   S    
Cr1   O5    S    
C19   C23   D    
C46   H6    S    
C21   Br2   S    
Cr5   O24   S    
Cr2   O2    S    
C26   C33   S    
C13   H14   S    
C45   C49   A    
C43   H3    S    
C32   O4    A    
Cr1   O1    S    
C3    O11   A    
Cr3   O9    S    
C2    O10   A    
C11   Cl8   S    
C10   Cl5   S    
C4    O12   A    
C4    C17   S    
Cr4   O14   S    
Cr1   O25   S    
C25   O13   A    
Cr6   O18   S    
C41   H1    S    
Cr2   O3    S    
C42   H2    S    
C28   O16   A    
C33   C54   A    
C27   O15   A    
C1    C20   S    
C7    C39   A    
C2    C19   S    
C18   C22   D    
C7    C35   A    
C51   H11   S    
C48   H8    S    
Cr2   O6    S    
C47   C51   A    
C29   O1    A    
C27   C36   S    
C46   C50   A    
C3    O7    A    
C14   H13   S    
C12   Cl7   S    
Cr5   O20   S    
C36   C55   A    
C20   H19   S    
C49   C53   A    
C51   C55   A    
C30   O2    A    
Cr5   O25   S    
Cr2   O7    S    
C17   C21   D    
C28   O20   A    
C48   C52   A    
C34   C53   A    
C49   H9    S    
C30   O22   A    
Cr3   O16   S    
C41   C45   A    
C8    C40   A    
C21   C22   S    
C43   C47   A    
C52   C56   A    
C26   O18   A    
