data_mof_unit_39848.cif
_audit_creation_date              2012-12-11T14:15:01-0500
_audit_creation_method            fapswitch 2.2
_symmetry_space_group_name_H-M    P1
_symmetry_Int_Tables_number       1
_space_group_crystal_system       triclinic
_cell_length_a                    24.415776
_cell_length_b                    17.212381
_cell_length_c                    15.613363
_cell_angle_alpha                 90.154325
_cell_angle_beta                  129.073656
_cell_angle_gamma                 89.884041
_cell_volume                      5093.96810065

loop_
_atom_site_label
_atom_site_type_symbol
_atom_type_description
_atom_site_fract_x
_atom_site_fract_y
_atom_site_fract_z
_atom_type_partial_charge
C1    C     C_R   0.349971 0.360482 0.243483 -0.110988
C2    C     C_R   0.633926 0.691094 0.503865 0.096909
C3    C     C_R   0.865823 0.190712 0.497677 0.086749
C4    C     C_R   0.133926 0.191094 0.503865 0.096908
C5    C     C_R   0.350801 0.621649 0.133343 0.121621
C6    C     C_R   0.649163 0.621842 0.866800 0.120641
C7    C     C_R   0.850801 0.121649 0.133343 0.121621
C8    C     C_R   0.149163 0.121842 0.866800 0.120642
C9    C     C_2   0.642486 0.802476 0.417864 -0.217116
C10   C     C_2   0.355226 0.801733 0.583527 -0.201805
C11   C     C_2   0.142486 0.302476 0.417864 -0.217116
C12   C     C_R   0.650276 0.360781 0.757668 -0.109962
C13   C     C_2   0.855226 0.301733 0.583527 -0.201804
C14   C     C_2   0.656577 0.771708 0.509013 0.260974
C15   C     C_2   0.343110 0.770938 0.493513 0.228409
C16   C     C_2   0.156577 0.271708 0.509013 0.260974
C17   C     C_2   0.843111 0.270938 0.493514 0.228409
C18   C     C_2   0.201133 0.316734 0.415564 0.356597
C19   C     C_2   0.804843 0.355362 0.574536 0.353596
C20   C     C_2   0.701133 0.816734 0.415564 0.356596
C21   C     C_2   0.304843 0.855362 0.574536 0.353595
C22   C     C_2   0.252928 0.367399 0.486193 -0.222588
C23   C     C_R   0.849971 0.860482 0.243483 -0.110988
C24   C     C_2   0.735929 0.335221 0.504859 -0.222120
C25   C     C_2   0.752928 0.867399 0.486193 -0.222588
C26   C     C_2   0.235929 0.835220 0.504860 -0.222123
C27   C     C_2   0.641145 0.243978 0.848549 -0.212841
C28   C     C_2   0.358905 0.243251 0.152350 -0.215416
C29   C     C_2   0.141145 0.743978 0.848549 -0.212841
C30   C     C_2   0.858905 0.743251 0.152350 -0.215414
C31   C     C_2   0.694441 0.204352 0.866301 -0.109286
C32   C     C_2   0.305607 0.203875 0.134621 -0.107442
C33   C     C_2   0.194441 0.704352 0.866301 -0.109285
C34   C     C_R   0.150276 0.860781 0.757668 -0.109962
C35   C     C_2   0.805607 0.703875 0.134620 -0.107441
C36   C     C_2   0.304306 0.647379 0.018194 -0.201796
C37   C     C_2   0.695608 0.647524 0.982107 -0.199640
C38   C     C_2   0.804306 0.147379 0.018194 -0.201795
C39   C     C_2   0.195608 0.147525 0.982107 -0.199640
C40   C     C_R   0.614610 0.392861 0.410603 0.304930
C41   C     C_R   0.382817 0.398620 0.587772 0.307386
C42   C     C_R   0.114610 0.892860 0.410603 0.304928
C43   C     C_R   0.882817 0.898620 0.587772 0.307386
C44   C     C_2   0.234563 0.651524 0.959951 -0.113444
C45   C     C_R   0.415332 0.646388 0.590300 -0.175376
C46   C     C_2   0.765402 0.650992 0.040771 -0.113970
C47   C     C_2   0.734563 0.151525 0.959951 -0.113445
C48   C     C_2   0.265402 0.150992 0.040771 -0.113970
C49   C     C_R   0.686303 0.390434 0.593401 -0.212127
C50   C     C_R   0.312109 0.395600 0.405593 -0.203732
C51   C     C_R   0.186303 0.890434 0.593402 -0.212120
C52   C     C_R   0.812109 0.895600 0.405593 -0.203732
C53   C     C_R   0.558262 0.358070 0.755470 -0.152348
C54   C     C_R   0.441325 0.357818 0.244079 -0.152350
C55   C     C_R   0.058262 0.858070 0.755470 -0.152348
C56   C     C_R   0.584368 0.646763 0.410569 -0.178233
C57   C     C_R   0.941325 0.857818 0.244079 -0.152350
C58   C     C_R   0.382857 0.316657 0.212846 0.138627
C59   C     C_R   0.617089 0.317083 0.787706 0.138973
C60   C     C_R   0.882857 0.816658 0.212846 0.138626
C61   C     C_R   0.117089 0.817083 0.787706 0.138973
C62   C     C_R   0.680857 0.369983 0.503286 0.106979
C63   C     C_R   0.315467 0.377906 0.494235 0.113856
C64   C     C_R   0.180857 0.869982 0.503286 0.106980
C65   C     C_R   0.815467 0.877906 0.494235 0.113856
C66   C     C_R   0.340424 0.644800 0.407029 -0.120177
C67   C     C_R   0.915332 0.146388 0.590300 -0.175376
C68   C     C_R   0.659929 0.644385 0.593786 -0.113362
C69   C     C_R   0.840424 0.144800 0.407029 -0.120177
C70   C     C_R   0.159929 0.144385 0.593786 -0.113362
C71   C     C_R   0.421461 0.603325 0.194897 0.300123
C72   C     C_R   0.578542 0.603513 0.805202 0.302828
C73   C     C_R   0.921461 0.103325 0.194897 0.300123
C74   C     C_R   0.078542 0.103513 0.805202 0.302828
C75   C     C_R   0.668398 0.603593 0.802692 -0.217624
C76   C     C_R   0.331588 0.603522 0.197415 -0.215020
C77   C     C_R   0.168398 0.103593 0.802692 -0.217624
C78   C     C_R   0.084368 0.146763 0.410569 -0.178234
C79   C     C_R   0.831588 0.103522 0.197415 -0.215020
C80   C     C_3   0.707080 0.810500 0.620466 -1.004693
C81   C     C_3   0.299514 0.813242 0.383953 -0.978137
C82   C     C_3   0.207080 0.310500 0.620466 -1.004693
C83   C     C_3   0.799515 0.313242 0.383954 -0.978137
C84   C     C_3   0.203835 0.265877 0.338905 -1.010688
C85   C     C_3   0.833621 0.422813 0.653562 -1.000656
C86   C     C_3   0.703835 0.765877 0.338905 -1.010687
C87   C     C_3   0.333621 0.922812 0.653563 -1.000649
C88   C     C_3   0.595545 0.405166 0.299785 -1.071287
C89   C     C_R   0.365823 0.690712 0.497677 0.086749
C90   C     C_3   0.402321 0.414287 0.698341 -1.085988
C91   C     C_3   0.095545 0.905165 0.299785 -1.071287
C92   C     C_3   0.902321 0.914287 0.698341 -1.085987
C93   C     C_3   0.457770 0.589603 0.146723 -1.088116
C94   C     C_3   0.542418 0.589885 0.853609 -1.088796
C95   C     C_3   0.957770 0.089603 0.146723 -1.088116
C96   C     C_3   0.042418 0.089885 0.853609 -1.088799
H1    H     H_    0.301901 0.347015 0.229913 0.092375
H2    H     H_    0.790638 0.627143 0.009003 0.128669
H3    H     H_    0.709360 0.128195 0.991879 0.128452
H4    H     H_    0.290638 0.127144 0.009003 0.128669
H5    H     H_    0.716247 0.220993 0.826181 0.127509
H6    H     H_    0.283751 0.220915 0.174646 0.131268
H7    H     H_    0.216247 0.720993 0.826181 0.127508
H8    H     H_    0.783751 0.720915 0.174646 0.131268
H9    H     H_    0.328601 0.671986 0.985260 0.142223
H10   H     H_    0.671285 0.672613 0.014904 0.144188
H11   H     H_    0.828601 0.171986 0.985260 0.142223
H12   H     H_    0.698998 0.347459 0.773335 0.087296
H13   H     H_    0.171285 0.172614 0.014905 0.144187
H14   H     H_    0.619915 0.227215 0.889593 0.131561
H15   H     H_    0.380093 0.226133 0.111251 0.131543
H16   H     H_    0.119915 0.727215 0.889593 0.131561
H17   H     H_    0.880093 0.726133 0.111251 0.131543
H18   H     H_    0.447529 0.666467 0.674120 0.127356
H19   H     H_    0.552151 0.666728 0.326813 0.126194
H20   H     H_    0.947529 0.166467 0.674120 0.127356
H21   H     H_    0.052151 0.166728 0.326813 0.126194
H22   H     H_    0.696967 0.791475 0.677178 0.244960
H23   H     H_    0.801901 0.847015 0.229913 0.092375
H24   H     H_    0.762501 0.796429 0.658003 0.253912
H25   H     H_    0.698472 0.874272 0.612612 0.249249
H26   H     H_    0.328255 0.813131 0.350319 0.249976
H27   H     H_    0.247978 0.783677 0.324284 0.234888
H28   H     H_    0.289861 0.874867 0.392150 0.262496
H29   H     H_    0.196967 0.291475 0.677178 0.244960
H30   H     H_    0.262501 0.296429 0.658003 0.253912
H31   H     H_    0.198472 0.374272 0.612612 0.249249
H32   H     H_    0.828257 0.313131 0.350320 0.249976
H33   H     H_    0.747978 0.283678 0.324284 0.234888
H34   H     H_    0.198998 0.847459 0.773335 0.087295
H35   H     H_    0.789862 0.374867 0.392151 0.262496
H36   H     H_    0.164521 0.218128 0.303708 0.244889
H37   H     H_    0.191451 0.300477 0.268862 0.237005
H38   H     H_    0.256600 0.238434 0.384248 0.258189
H39   H     H_    0.880550 0.446993 0.666710 0.252890
H40   H     H_    0.794307 0.470401 0.620339 0.256466
H41   H     H_    0.849934 0.402959 0.734245 0.235337
H42   H     H_    0.664521 0.718128 0.303708 0.244889
H43   H     H_    0.691451 0.800477 0.268862 0.237005
H44   H     H_    0.756601 0.738434 0.384248 0.258188
H45   H     H_    0.249861 0.402671 0.540379 0.138311
H46   H     H_    0.380556 0.946987 0.666724 0.252887
H47   H     H_    0.294309 0.970404 0.620333 0.256466
H48   H     H_    0.349925 0.902959 0.734241 0.235335
H49   H     H_    0.637158 0.440083 0.308924 0.266892
H50   H     H_    0.591073 0.348177 0.262402 0.247582
H51   H     H_    0.545047 0.436919 0.244325 0.258211
H52   H     H_    0.365468 0.457494 0.690148 0.257736
H53   H     H_    0.399436 0.359523 0.732692 0.255822
H54   H     H_    0.456298 0.438136 0.756243 0.260854
H55   H     H_    0.137158 0.940082 0.308924 0.266892
H56   H     H_    0.718686 0.286417 0.448911 0.131892
H57   H     H_    0.091073 0.848176 0.262402 0.247583
H58   H     H_    0.045047 0.936919 0.244325 0.258211
H59   H     H_    0.865467 0.957494 0.690148 0.257735
H60   H     H_    0.899436 0.859523 0.732692 0.255822
H61   H     H_    0.956298 0.938136 0.756243 0.260854
H62   H     H_    0.733614 0.390098 0.678474 0.128810
H63   H     H_    0.264323 0.404262 0.322002 0.121924
H64   H     H_    0.233614 0.890098 0.678475 0.128806
H65   H     H_    0.764323 0.904262 0.322002 0.121924
H66   H     H_    0.520488 0.339747 0.765577 0.125949
H67   H     H_    0.749861 0.902671 0.540379 0.138310
H68   H     H_    0.478318 0.339279 0.232481 0.126851
H69   H     H_    0.020488 0.839747 0.765577 0.125950
H70   H     H_    0.978318 0.839279 0.232481 0.126852
H71   H     H_    0.301789 0.661184 0.321658 0.113843
H72   H     H_    0.699506 0.659404 0.679488 0.110873
H73   H     H_    0.801789 0.161184 0.321658 0.113843
H74   H     H_    0.199506 0.159404 0.679488 0.110873
H75   H     H_    0.510427 0.563356 0.208365 0.262191
H76   H     H_    0.425957 0.549244 0.075442 0.266506
H77   H     H_    0.464006 0.645560 0.118539 0.248270
H78   H     H_    0.218686 0.786416 0.448911 0.131893
H79   H     H_    0.489626 0.564034 0.791925 0.263013
H80   H     H_    0.574172 0.549267 0.924377 0.267117
H81   H     H_    0.536539 0.645826 0.882612 0.248609
H82   H     H_    0.010426 0.063356 0.208365 0.262191
H83   H     H_    0.925957 0.049244 0.075442 0.266506
H84   H     H_    0.964006 0.145560 0.118539 0.248270
H85   H     H_    0.989626 0.064034 0.791925 0.263014
H86   H     H_    0.074172 0.049267 0.924377 0.267117
H87   H     H_    0.036539 0.145826 0.882612 0.248610
H88   H     H_    0.721429 0.599403 0.830079 0.108501
H89   H     H_    0.209360 0.628195 0.991879 0.128452
H90   H     H_    0.278584 0.599442 0.170135 0.106686
H91   H     H_    0.221429 0.099403 0.830079 0.108501
H92   H     H_    0.778584 0.099442 0.170135 0.106686
H93   H     H_    0.595341 0.782670 0.338646 0.109303
H94   H     H_    0.392721 0.775154 0.663902 0.105644
H95   H     H_    0.095341 0.282670 0.338646 0.109304
H96   H     H_    0.892720 0.275154 0.663903 0.105644
N1    N     N_R   0.389060 0.424180 0.294540 -0.042303
N2    N     N_R   0.374530 0.423490 0.443400 -0.058528
N3    N     N_R   0.125470 0.923490 0.556600 -0.056406
N4    N     N_R   0.874530 0.923490 0.443400 -0.058528
N5    N     N_R   0.555250 0.423100 0.705420 -0.039012
N6    N     N_R   0.444750 0.423100 0.294580 -0.038770
N7    N     N_R   0.055250 0.923100 0.705420 -0.039012
N8    N     N_R   0.944750 0.923100 0.294580 -0.038770
N9    N     N_R   0.375210 0.577180 0.443400 -0.041061
N10   N     N_R   0.624790 0.577180 0.556600 -0.041391
N11   N     N_R   0.875210 0.077180 0.443400 -0.041061
N12   N     N_R   0.610940 0.424180 0.705460 -0.041916
N13   N     N_R   0.124790 0.077180 0.556600 -0.041391
N14   N     N_R   0.445430 0.577570 0.294580 -0.055620
N15   N     N_R   0.554570 0.577570 0.705420 -0.055137
N16   N     N_R   0.945430 0.077570 0.294580 -0.055620
N17   N     N_R   0.054570 0.077570 0.705420 -0.055137
N18   N     N_R   0.611620 0.576500 0.705460 -0.055189
N19   N     N_R   0.388380 0.576500 0.294540 -0.055056
N20   N     N_R   0.111620 0.076500 0.705460 -0.055189
N21   N     N_R   0.888380 0.076500 0.294540 -0.055056
N22   N     N_R   0.421010 0.576890 0.556640 -0.033795
N23   N     N_R   0.889060 0.924180 0.294540 -0.042303
N24   N     N_R   0.578990 0.576890 0.443360 -0.034288
N25   N     N_R   0.921010 0.076890 0.556640 -0.033795
N26   N     N_R   0.078990 0.076890 0.443360 -0.034288
N27   N     N_R   0.110940 0.924180 0.705460 -0.041916
N28   N     N_R   0.579670 0.423790 0.443360 -0.056237
N29   N     N_R   0.420330 0.423790 0.556640 -0.056508
N30   N     N_R   0.079670 0.923790 0.443360 -0.056238
N31   N     N_R   0.920330 0.923790 0.556640 -0.056508
N32   N     N_R   0.625470 0.423490 0.556600 -0.056405
Ni1   Ni    Ni4+2 0.383200 0.500680 0.370150 0.202976
Ni2   Ni    Ni4+2 0.616800 0.500680 0.629850 0.205630
Ni3   Ni    Ni4+2 0.883200 0.000680 0.370150 0.202976
Ni4   Ni    Ni4+2 0.116800 0.000680 0.629850 0.205630
Ni5   Ni    Ni4+2 0.512440 0.500680 0.370150 0.215845
Ni6   Ni    Ni4+2 0.487560 0.500680 0.629850 0.214410
Ni7   Ni    Ni4+2 0.012440 0.000680 0.370150 0.215844
Ni8   Ni    Ni4+2 0.987560 0.000680 0.629850 0.214410

loop_
_geom_bond_atom_site_label_1
_geom_bond_atom_site_label_2
_ccdc_geom_bond_type
C88   H50   S    
C21   C26   D    
C80   H24   S    
C11   C18   S    
N16   N21   A    
C85   H41   S    
C32   C48   S    
C29   H16   S    
C43   N31   A    
C52   N4    A    
C96   H85   S    
C9    C14   D    
N8    N23   A    
C21   C87   S    
C53   C59   A    
N6    Ni5   S    
C47   H3    S    
C6    C75   A    
C93   H76   S    
C23   N23   A    
N5    Ni6   S    
C70   N13   A    
N9    Ni1   S    
C84   H38   S    
C10   H94   S    
C13   H96   S    
N3    Ni4   S    
C81   H27   S    
C31   H5    S    
N2    Ni1   S    
C3    C69   A    
C83   H33   S    
C2    C68   A    
C10   C15   D    
N25   Ni8   S    
C23   H23   S    
C53   H66   S    
C20   C25   D    
C26   H78   S    
N1    N6    A    
C5    C36   S    
C29   C33   D    
C51   H64   S    
N17   N20   A    
C40   C62   A    
N13   Ni4   S    
N5    N12   A    
C42   C91   S    
C38   H11   S    
N7    Ni8   S    
C26   C64   S    
C82   H30   S    
C90   H52   S    
C24   H56   S    
C77   N20   A    
C22   C63   S    
C12   C59   A    
C45   H18   S    
C56   H19   S    
C71   N14   A    
C55   N7    A    
C27   H14   S    
C20   C86   S    
N29   Ni6   S    
N15   N18   A    
C18   C84   S    
C88   H49   S    
C3    C17   S    
N8    Ni7   S    
C14   C80   S    
C87   H48   S    
C66   C89   A    
C45   C89   A    
C83   H32   S    
C11   H95   S    
C95   H82   S    
C86   H44   S    
C44   H89   S    
C72   C94   S    
C41   C90   S    
C46   H2    S    
N4    Ni3   S    
C28   H15   S    
C18   C22   D    
C40   N28   A    
N14   Ni5   S    
C50   C63   A    
N18   Ni2   S    
C90   H53   S    
C9    H93   S    
C75   H88   S    
N14   N19   A    
N11   Ni3   S    
N9    N22   A    
C7    C38   S    
C66   N9    A    
N24   Ni5   S    
C72   N15   A    
C80   H22   S    
C80   H25   S    
C10   C21   S    
C23   C60   A    
C48   H4    S    
C29   C61   S    
C4    C70   A    
C15   C81   S    
C73   C95   S    
C56   N24   A    
C79   H92   S    
N11   N25   A    
C74   N17   A    
C27   C31   D    
C39   H13   S    
C74   C96   S    
C28   C32   D    
C78   H21   S    
C25   C65   S    
C91   H58   S    
N10   Ni2   S    
C35   H8    S    
C1    H1    S    
N13   N26   A    
C12   H12   S    
C13   C19   S    
C34   N27   A    
C57   C60   A    
C57   H70   S    
C81   H28   S    
C66   H71   S    
C6    C72   A    
C68   N10   A    
C84   H36   S    
C34   C61   A    
C30   C60   S    
C92   H61   S    
C17   C83   S    
C94   H81   S    
C4    C16   S    
C1    N1    A    
C67   H20   S    
C82   H29   S    
C4    C78   A    
N21   Ni3   S    
C15   C89   S    
C11   C16   D    
C9    C20   S    
C67   N25   A    
C43   C65   A    
C7    C73   A    
C8    C74   A    
C45   N22   A    
C6    C37   S    
N7    N27   A    
C92   H60   S    
C69   H73   S    
C38   C47   D    
C86   H43   S    
C85   H39   S    
N2    N29   A    
N28   Ni5   S    
C76   N19   A    
C95   H83   S    
C8    C39   S    
C73   N16   A    
N30   Ni7   S    
C69   N11   A    
C49   N32   A    
N10   N24   A    
C8    C77   A    
N27   Ni4   S    
C32   H6    S    
C49   H62   S    
C36   C44   D    
C41   C63   A    
C96   H87   S    
N12   Ni2   S    
N22   Ni6   S    
C42   C64   A    
N28   N32   A    
C76   H90   S    
N31   Ni8   S    
C7    C79   A    
C54   C58   A    
C93   H75   S    
C24   C62   S    
C49   C62   A    
C36   H9    S    
C33   H7    S    
C33   C44   S    
C3    C67   A    
C51   C64   A    
C96   H86   S    
C19   C85   S    
N32   Ni2   S    
N3    N30   A    
C90   H54   S    
N15   Ni6   S    
C91   H57   S    
C71   C93   S    
C75   N18   A    
C28   C58   S    
C50   H63   S    
C30   C35   D    
C52   H65   S    
C94   H79   S    
C43   C92   S    
C54   N6    A    
C13   C17   D    
C81   H26   S    
C53   N5    A    
C40   C88   S    
C5    C76   A    
C85   H40   S    
C83   H35   S    
C70   H74   S    
N1    Ni1   S    
C37   H10   S    
C57   N8    A    
C2    C56   A    
C1    C58   A    
C78   N26   A    
C91   H55   S    
C50   N2    A    
C25   H67   S    
C77   H91   S    
C55   C61   A    
C22   H45   S    
C93   H77   S    
C88   H51   S    
C19   C24   D    
C92   H59   S    
N23   Ni3   S    
C12   N12   A    
C87   H46   S    
C2    C14   S    
C82   H31   S    
C68   H72   S    
N4    N31   A    
C86   H42   S    
N16   Ni7   S    
N20   Ni4   S    
C31   C47   S    
C95   H84   S    
C79   N21   A    
C87   H47   S    
C34   H34   S    
C5    C71   A    
C16   C82   S    
N19   Ni1   S    
C55   H69   S    
C27   C59   S    
N26   Ni7   S    
C54   H68   S    
C37   C46   D    
C42   N30   A    
C35   C46   S    
C84   H37   S    
N17   Ni8   S    
C51   N3    A    
C41   N29   A    
C52   C65   A    
C94   H80   S    
C39   C48   D    
C30   H17   S    
