data_mof_unit_17163.cif
_audit_creation_date              2012-12-11T14:21:07-0500
_audit_creation_method            fapswitch 2.2
_symmetry_space_group_name_H-M    P1
_symmetry_Int_Tables_number       1
_space_group_crystal_system       triclinic
_cell_length_a                    11.583986
_cell_length_b                    11.647869
_cell_length_c                    19.575252
_cell_angle_alpha                 89.700415
_cell_angle_beta                  89.059722
_cell_angle_gamma                 59.590525
_cell_volume                      2277.58427084

loop_
_atom_site_label
_atom_site_type_symbol
_atom_type_description
_atom_site_fract_x
_atom_site_fract_y
_atom_site_fract_z
_atom_type_partial_charge
C1    C     C_R   0.639766 0.116566 0.599510 0.541819
C2    C     C_1   0.639858 0.704031 0.667982 0.008955
C3    C     C_1   0.126865 0.200211 0.859324 0.008458
C4    C     C_1   0.171449 0.170093 0.727816 -0.027181
C5    C     C_1   0.150343 0.183170 0.799003 -0.028055
C6    C     C_1   0.195149 0.160132 0.667427 0.009421
C7    C     C_1   0.679327 0.192000 0.860642 0.009286
C8    C     C_1   0.658130 0.166732 0.729071 -0.026546
C9    C     C_1   0.666091 0.181132 0.800352 -0.026645
C10   C     C_1   0.652050 0.148896 0.668812 0.007400
C11   C     C_R   0.691867 0.571206 0.204976 -0.034299
C12   C     C_R   0.611844 0.746410 0.598659 0.550385
C13   C     C_R   0.560554 0.638724 0.233924 0.013429
C14   C     C_R   0.539774 0.721195 0.288550 -0.048625
C15   C     C_R   0.779092 0.596386 0.311943 0.222476
C16   C     C_R   0.801387 0.545235 0.245219 -0.116633
C17   C     C_R   0.447899 0.633072 0.209405 -0.123322
C18   C     C_R   0.320624 0.713452 0.236491 -0.029010
C19   C     C_R   0.301837 0.804930 0.285962 0.291700
C20   C     C_R   0.408169 0.822688 0.302606 -0.097644
C21   C     C_R   0.647847 0.690755 0.331972 0.048423
C22   C     C_R   0.143713 0.186807 0.192326 -0.015148
C23   C     C_R   0.241100 0.144966 0.598135 0.548180
C24   C     C_R   0.229208 0.229585 0.215393 -0.101449
C25   C     C_R   0.227478 0.255387 0.285709 -0.011365
C26   C     C_R   0.111148 0.133989 0.308658 -0.121577
C27   C     C_R   0.089400 0.133335 0.239517 0.218206
C28   C     C_R   0.300810 0.264609 0.168587 0.258411
C29   C     C_R   0.330300 0.362227 0.187279 0.280593
C30   C     C_R   0.306683 0.408227 0.254307 -0.067554
C31   C     C_R   0.254136 0.358600 0.303890 0.235204
C32   C     C_R   0.188471 0.183647 0.332258 -0.036057
C33   C     C_R   0.664360 0.188330 0.193123 0.020709
C34   C     C_R   0.647029 0.107771 0.401236 0.524961
C35   C     C_R   0.710236 0.057552 0.214480 -0.053166
C36   C     C_R   0.745308 0.025088 0.283353 -0.021666
C37   C     C_R   0.625838 0.265149 0.310508 0.204097
C38   C     C_R   0.626550 0.289035 0.241468 -0.058414
C39   C     C_R   0.742561 0.957254 0.165896 -0.138476
C40   C     C_R   0.836270 0.825304 0.180197 0.281384
C41   C     C_R   0.893733 0.791898 0.244432 0.341869
C42   C     C_R   0.850260 0.890509 0.296713 0.259964
C43   C     C_R   0.681020 0.132744 0.332539 0.027745
C44   C     C_R   0.081379 0.231888 0.928611 0.550007
C45   C     C_R   0.615527 0.743171 0.401149 0.581540
C46   C     C_R   0.684247 0.604231 0.929468 0.548572
C47   C     C_R   0.708955 0.207379 0.929897 0.545017
C48   C     C_R   0.079943 0.235302 0.125943 0.559796
C49   C     C_R   0.710182 0.543757 0.132080 0.551628
C50   C     C_R   0.705209 0.210977 0.125922 0.565752
C51   C     C_R   0.245333 0.144102 0.400984 0.542072
C52   C     C_1   0.671591 0.646175 0.860019 0.005562
C53   C     C_1   0.654037 0.683608 0.728344 -0.027660
C54   C     C_1   0.664027 0.666427 0.799560 -0.028317
Cr1   Cr    Cr6+3 0.404720 0.198220 0.499960 1.084260
Cr2   Cr    Cr6+3 0.698290 0.897110 0.500380 1.118148
Cr3   Cr    Cr6+3 0.396970 0.904720 0.499610 1.040646
Cr4   Cr    Cr6+3 0.926180 0.151990 0.028120 1.079699
Cr5   Cr    Cr6+3 0.921330 0.451820 0.027470 1.086048
Cr6   Cr    Cr6+3 0.626260 0.446870 0.028710 1.041532
H1    H     H_    0.326262 0.486292 0.267817 0.142747
H2    H     H_    0.704820 0.983644 0.114436 0.123330
H3    H     H_    0.605907 0.385295 0.225859 0.141894
H4    H     H_    0.456254 0.561596 0.172554 0.208262
H5    H     H_    0.902510 0.484588 0.225256 0.157882
H6    H     H_    0.238107 0.701411 0.220805 0.197824
H7    H     H_    0.390406 0.905720 0.333100 0.135570
H8    H     H_    0.065544 0.097704 0.344772 0.197229
O1    O     O_R   0.267740 0.231960 0.575440 -0.493124
O2    O     O_R   0.685970 0.784660 0.430010 -0.447604
O3    O     O_R   0.502530 0.767000 0.423990 -0.528071
O4    O     O_R   0.288330 0.026350 0.429250 -0.543870
O5    O     O_3   0.499990 0.000020 0.499980 -0.294089
O6    O     O_R   0.821500 0.119340 0.952830 -0.508559
O7    O     O_R   0.037130 0.162530 0.957360 -0.496757
O8    O     O_R   0.056440 0.344740 0.951340 -0.491227
O9    O     O_R   0.797900 0.560360 0.957470 -0.495300
O10   O     O_R   0.596130 0.579390 0.952730 -0.496331
O11   O     O_R   0.639060 0.321160 0.958670 -0.492454
O12   O     O_R   0.527280 0.186640 0.570530 -0.496931
O13   O     O_R   0.821240 0.124200 0.104370 -0.453854
O14   O     O_R   0.036890 0.167040 0.097840 -0.456440
O15   O     O_R   0.056180 0.349610 0.102880 -0.468005
O16   O     O_R   0.797660 0.564870 0.097950 -0.452770
O17   O     O_R   0.595880 0.584250 0.104270 -0.524592
O18   O     O_R   0.638830 0.325670 0.099150 -0.514014
O19   O     O_3   0.824590 0.350230 0.028100 -0.306558
O20   O     O_R   0.728090 0.003450 0.576380 -0.494220
O21   O     O_R   0.682970 0.789190 0.570490 -0.487730
O22   O     O_R   0.499290 0.771880 0.575530 -0.498208
O23   O     O_R   0.285330 0.030870 0.569730 -0.491074
O24   O     O_R   0.270980 0.227080 0.423890 -0.422885
O25   O     O_R   0.530280 0.182120 0.430050 -0.493107
O26   O     O_R   0.731330 0.998570 0.424830 -0.451774
O27   O     O_3   0.881778 0.556022 0.357655 -0.653776
H9    H     H_    0.963212 0.479529 0.337418 0.355379
O28   O     O_3   0.374749 0.420603 0.140549 -0.720559
H10   H     H_    0.375290 0.387656 0.093960 0.381765
O29   O     O_3   0.205465 0.428130 0.364578 -0.642587
H11   H     H_    0.233928 0.494988 0.368966 0.345418
O30   O     O_3   0.578937 0.372544 0.354494 -0.697224
H12   H     H_    0.613275 0.340326 0.400864 0.340332
O31   O     O_3   0.885834 0.729120 0.129763 -0.615838
H13   H     H_    0.840560 0.769526 0.086208 0.318698
O32   O     O_3   0.999479 0.663348 0.251793 -0.653906
H14   H     H_    0.023383 0.644397 0.300244 0.380512
Cl1   Cl    Cl    0.961152 0.851008 0.365765 -0.511385
O33   O     O_3   0.185557 0.862182 0.323371 -0.616840
H15   H     H_    0.204923 0.883289 0.369306 0.346076
O34   O     O_3   0.339157 0.207875 0.104263 -0.706881
H16   H     H_    0.341737 0.121482 0.104665 0.320503
Cl2   Cl    Cl    0.999406 0.056655 0.216194 -0.549423

loop_
_geom_bond_atom_site_label_1
_geom_bond_atom_site_label_2
_ccdc_geom_bond_type
C25   C31   A    
C22   C48   S    
Cr6   O11   S    
C26   C32   A    
O30   H12   S    
C45   O3    A    
C41   C42   A    
C23   O1    A    
C20   H7    S    
C36   C42   A    
O27   H9    S    
C34   O25   A    
C47   O11   A    
Cr1   O25   S    
C2    C12   S    
Cr4   O19   S    
Cr5   O9    S    
O28   H10   S    
C53   C54   S    
Cr2   O26   S    
Cr6   O10   S    
C26   C27   A    
Cr1   O24   S    
C41   O32   S    
C14   C21   A    
C12   O22   A    
C28   C29   A    
C37   C38   A    
Cr5   O15   S    
Cr4   O14   S    
C17   H4    S    
C15   O27   S    
C30   C31   A    
Cr2   O20   S    
C15   C16   A    
C46   C52   S    
O33   H15   S    
C18   C19   A    
Cr3   O5    S    
C44   O8    A    
O34   H16   S    
C19   C20   A    
C8    C9    S    
C31   O29   S    
C24   C28   A    
C42   Cl1   S    
C19   O33   S    
C1    O20   A    
C13   C14   A    
Cr6   O19   S    
C52   C54   T    
Cr4   O7    S    
C21   C45   S    
C3    C44   S    
Cr3   O22   S    
C34   C43   S    
C14   C20   A    
C12   O21   A    
C24   C25   A    
C4    C6    T    
Cr4   O13   S    
C39   C40   A    
C46   O10   A    
Cr6   O18   S    
C28   O34   S    
C33   C50   S    
Cr3   O3    S    
C35   C36   A    
C7    C47   S    
C37   C43   A    
C44   O7    A    
C35   C39   A    
C32   C51   S    
C29   C30   A    
C11   C49   S    
C49   O17   A    
C51   O24   A    
C11   C16   A    
O29   H11   S    
C17   C18   A    
Cr5   O16   S    
Cr1   O1    S    
Cr2   O21   S    
C27   Cl2   S    
Cr2   O2    S    
C22   C27   A    
C22   C24   A    
C51   O4    A    
Cr4   O6    S    
C38   H3    S    
C49   O16   A    
C7    C9    T    
C39   H2    S    
C40   C41   A    
Cr2   O5    S    
Cr3   O23   S    
C45   O2    A    
C1    C10   S    
C34   O26   A    
C47   O6    A    
C4    C5    S    
C3    C5    T    
C2    C53   T    
C46   O9    A    
Cr6   O17   S    
C13   C17   A    
C18   H6    S    
O32   H14   S    
C33   C38   A    
C48   O15   A    
C29   O28   S    
C26   H8    S    
C40   O31   S    
C37   O30   S    
Cr1   O12   S    
C11   C13   A    
C25   C32   A    
C6    C23   S    
C33   C35   A    
C48   O14   A    
C23   O23   A    
Cr3   O4    S    
Cr5   O19   S    
C50   O18   A    
Cr1   O5    S    
C15   C21   A    
C8    C10   T    
C30   H1    S    
O31   H13   S    
C1    O12   A    
C36   C43   A    
C16   H5    S    
Cr5   O8    S    
C50   O13   A    
