data_mof_unit_39743.cif
_audit_creation_date              2013-03-05T15:56:32-0500
_audit_creation_method            fapswitch 2.2
_symmetry_space_group_name_H-M    P1
_symmetry_Int_Tables_number       1
_space_group_crystal_system       triclinic
_cell_length_a                    12.378754
_cell_length_b                    13.130313
_cell_length_c                    27.734712
_cell_angle_alpha                 76.401408
_cell_angle_beta                  101.696344
_cell_angle_gamma                 116.921479
_cell_volume                      3882.52663492

loop_
_atom_site_label
_atom_site_type_symbol
_atom_site_description
_atom_site_fract_x
_atom_site_fract_y
_atom_site_fract_z
_atom_type_partial_charge
O1    O     O_R   0.972510 0.318140 0.514280 -0.563836
O2    O     O_R   0.806530 0.359640 0.495100 -0.584192
C1    C     C_R   0.855345 0.286682 0.501475 0.854773
O3    O     O_R   0.082990 0.479270 0.579320 -0.612353
O4    O     O_R   0.917010 0.520770 0.560140 -0.606437
C2    C     C_R   0.999886 0.499354 0.592544 0.771234
Cu1   Cu    Cu3+1 0.098270 0.475420 0.511360 0.981841
Cu2   Cu    Cu3+1 0.901730 0.524580 0.488640 1.003313
O5    O     O_R   0.193470 0.640360 0.504900 -0.569296
O6    O     O_R   0.027490 0.681860 0.485720 -0.520207
O7    O     O_R   0.082990 0.479230 0.439860 -0.608624
O8    O     O_R   0.917010 0.520730 0.420680 -0.525884
C3    C     C_R   0.144935 0.714438 0.495055 0.844744
C4    C     C_R   0.999644 0.500176 0.407454 0.889409
C5    C     C_R   0.941814 0.390417 0.829134 0.630696
O9    O     O_2   0.867471 0.297147 0.807257 -0.476983
N1    N     N_R   0.006636 0.492263 0.799971 -0.456811
C6    C     C_R   0.079179 0.590807 0.819720 0.603202
C7    C     C_R   0.913261 0.519695 0.712360 0.021053
C8    C     C_R   0.913544 0.520769 0.661677 -0.303626
C9    C     C_R   0.087083 0.473377 0.681381 -0.181736
C10   C     C_R   0.087675 0.471794 0.731728 -0.120028
C11   C     C_R   0.001851 0.494761 0.747627 0.338672
C12   C     C_R   0.011970 0.489323 0.900861 -0.057293
C13   C     C_R   0.948758 0.384717 0.881171 -0.036466
C14   C     C_R   0.895028 0.279898 0.914377 -0.014750
C15   C     C_R   0.082484 0.591423 0.870454 -0.059536
C16   C     C_R   0.000148 0.497939 0.645862 -0.027935
H1    H     H_    0.154822 0.455211 0.670357 0.176202
H2    H     H_    0.155352 0.452656 0.758710 0.159148
C17   C     C_R   0.997071 0.500073 0.354084 -0.113678
C18   C     C_R   0.908561 0.394476 0.028503 0.047163
C19   C     C_R   0.052015 0.600412 0.018884 -0.046209
C20   C     C_R   0.977535 0.497709 0.048756 0.070172
C21   C     C_R   0.816178 0.301428 0.056023 -0.049605
C22   C     C_R   0.821817 0.296746 0.107948 -0.075118
C23   C     C_R   0.902952 0.395927 0.130058 -0.085690
C24   C     C_R   0.970434 0.499411 0.098948 -0.085796
C25   C     C_R   0.032559 0.604704 0.118119 -0.144585
C26   C     C_R   0.041683 0.601267 0.169825 0.633230
N2    N     N_R   0.984107 0.499173 0.200124 -0.418717
C27   C     C_R   0.916484 0.397793 0.181886 0.617396
C28   C     C_R   0.073544 0.468679 0.287020 0.431168
C29   C     C_R   0.076652 0.468820 0.337983 -0.272928
C30   C     C_R   0.913496 0.530823 0.318824 -0.275759
C31   C     C_R   0.909057 0.530664 0.267921 0.379517
C32   C     C_R   0.989315 0.499595 0.252255 0.295205
O10   O     O_2   0.865198 0.299563 0.214268 -0.514541
C33   C     C_R   0.929331 0.390168 0.980532 0.086919
C34   C     C_R   0.004631 0.492181 0.950881 0.078975
C35   C     C_R   0.073325 0.596409 0.970922 -0.019931
C36   C     C_R   0.886342 0.284355 0.963180 -0.194051
H3    H     H_    0.140440 0.443838 0.364943 0.170821
H4    H     H_    0.849973 0.203151 0.988387 0.134859
O11   O     O_2   0.146375 0.688193 0.790094 -0.512382
C37   C     C_R   0.159669 0.690091 0.891737 -0.090713
H5    H     H_    0.845930 0.539666 0.634473 0.166775
H6    H     H_    0.223405 0.764617 0.869497 0.225518
C38   C     C_R   0.092190 0.705880 0.036040 -0.206176
C39   C     C_R   0.083168 0.709469 0.084668 0.446480
O12   O     O_2   0.111034 0.697765 0.190295 -0.480739
C40   C     C_R   0.163383 0.690615 0.942458 -0.041670
H7    H     H_    0.125720 0.787718 0.011174 0.185390
H8    H     H_    0.851446 0.555026 0.330739 0.181955
C41   C     C_R   0.267801 0.043167 0.469082 0.433611
H9    H     H_    0.442316 0.237644 0.425320 0.144923
C42   C     C_R   0.226802 0.839117 0.492969 -0.255812
C43   C     C_R   0.815164 0.075280 0.516196 -0.177173
C44   C     C_R   0.733695 0.963946 0.537365 -0.044244
C45   C     C_R   0.613031 0.944277 0.540982 -0.000244
C46   C     C_R   0.564056 0.018342 0.508166 -0.060679
C47   C     C_R   0.645645 0.128520 0.486032 0.028854
C48   C     C_R   0.436829 0.986790 0.496596 0.025220
C49   C     C_R   0.393918 0.071627 0.473196 -0.068543
C50   C     C_R   0.475452 0.177669 0.449553 -0.298760
C51   C     C_R   0.598406 0.201327 0.451667 0.458589
C52   C     C_R   0.352176 0.870801 0.501996 -0.282904
C53   C     C_R   0.184683 0.927249 0.480496 0.411874
C54   C     C_R   0.772578 0.162631 0.498827 -0.084728
H10   H     H_    0.384654 0.804046 0.510830 0.227289
C55   C     C_R   0.337380 0.310514 0.574187 0.319218
H11   H     H_    0.541400 0.275320 0.589336 0.163558
N3    N     N_R   0.246290 0.438210 0.528570 -0.300030
C56   C     C_R   0.757281 0.642959 0.430711 0.592711
C57   C     C_R   0.650097 0.654700 0.409089 -0.325758
C58   C     C_R   0.541145 0.586451 0.430594 0.016699
C59   C     C_R   0.544363 0.520749 0.479096 -0.007273
C60   C     C_R   0.651111 0.500690 0.496461 0.203269
C61   C     C_R   0.443696 0.466394 0.509221 -0.070223
C62   C     C_R   0.440799 0.374204 0.548252 -0.091965
C63   C     C_R   0.540825 0.346764 0.560550 -0.224438
C64   C     C_R   0.645759 0.413227 0.537413 -0.141851
C65   C     C_R   0.348721 0.503104 0.503443 0.443815
C66   C     C_R   0.239387 0.340125 0.562125 0.510374
N4    N     N_R   0.754320 0.561170 0.471730 -0.217960
H12   H     H_    0.649814 0.709768 0.373242 0.198188
H13   H     H_    0.719539 0.390065 0.551991 0.191122
C67   C     C_2   0.819413 0.545064 0.726366 0.427433
H14   H     H_    0.753452 0.562801 0.697573 0.086525
O13   O     O_2   0.813865 0.546842 0.769574 -0.506884
O14   O     O_3   0.121480 0.816971 0.097277 -0.661893
H15   H     H_    0.061373 0.811238 0.117744 0.362571
O15   O     O_3   0.827207 0.560044 0.232647 -0.702743
H16   H     H_    0.777430 0.579580 0.249588 0.339131
C68   C     C_2   0.273446 0.780655 0.965693 0.374764
H17   H     H_    0.303287 0.764522 0.005153 0.097608
O16   O     O_2   0.333422 0.872935 0.940918 -0.496963
O17   O     O_3   0.063594 0.903858 0.478100 -0.645041
H18   H     H_    0.030959 0.845536 0.507676 0.322338
O18   O     O_3   0.222146 0.125573 0.454450 -0.653547
H19   H     H_    0.286130 0.200493 0.463098 0.309026
C69   C     C_2   0.941125 0.098217 0.509844 0.513450
H20   H     H_    0.992325 0.058728 0.537520 0.081900
O19   O     O_2   0.988055 0.160023 0.472477 -0.467761
C70   C     C_2   0.547694 0.863037 0.584296 0.407580
H21   H     H_    0.464050 0.861600 0.591428 0.073698
O20   O     O_2   0.589173 0.801829 0.614357 -0.494071
C71   C     C_2   0.772465 0.867932 0.553776 0.488060
H22   H     H_    0.864927 0.884110 0.569932 0.024999
O21   O     O_2   0.701081 0.769082 0.548041 -0.493708
O22   O     O_3   0.671425 0.289804 0.418088 -0.705185
H23   H     H_    0.624750 0.332025 0.397006 0.319727
O23   O     O_3   0.137924 0.266825 0.586177 -0.694470
H24   H     H_    0.095415 0.311109 0.589888 0.357755
O24   O     O_3   0.327431 0.217146 0.611429 -0.667321
H25   H     H_    0.403662 0.240594 0.634530 0.327385
O25   O     O_3   0.367300 0.610530 0.476467 -0.697534
H26   H     H_    0.291971 0.601511 0.454045 0.356287
O26   O     O_3   0.863777 0.705852 0.408567 -0.667094
H27   H     H_    0.851219 0.761096 0.379294 0.319756
C72   C     C_2   0.854742 0.163286 0.901994 0.492465
H28   H     H_    0.776598 0.090810 0.917932 0.076224
O27   O     O_2   0.913191 0.145238 0.877106 -0.474990
C73   C     C_2   0.425240 0.566089 0.397546 0.433363
H29   H     H_    0.343107 0.488996 0.406764 0.028059
O28   O     O_2   0.420459 0.633744 0.359403 -0.507600
O29   O     O_3   0.151230 0.438866 0.270172 -0.673103
H30   H     H_    0.204801 0.420073 0.299099 0.340641
C74   C     C_2   0.733008 0.193069 0.137191 0.448794
H31   H     H_    0.677206 0.202629 0.159812 0.124045
O30   O     O_2   0.723282 0.096505 0.136746 -0.511625
C75   C     C_2   0.700675 0.222910 0.029774 0.358720
H32   H     H_    0.649320 0.134468 0.046904 0.133703
O31   O     O_2   0.659168 0.258461 0.989039 -0.492747

loop_
_geom_bond_atom_site_label_1
_geom_bond_atom_site_label_2
_geom_bond_distance
_ccdc_geom_bond_type
Cu1   N3    2.042124 S    
C59   C60   1.430010 A    
O14   H15   0.990909 S    
N2    C27   1.365450 A    
C56   O26   1.378769 S    
C68   H17   1.084891 S    
C21   C22   1.415679 A    
C42   C52   1.396837 A    
C12   C15   1.406251 A    
C4    C17   1.474404 S    
C47   C51   1.419874 A    
C1    C54   1.490890 S    
C69   O19   1.221392 D    
O23   H24   0.976096 S    
C40   C68   1.487590 S    
C30   C31   1.402124 A    
Cu1   O7    1.944357 S    
C68   O16   1.221555 D    
N1    C11   1.434090 S    
C35   C40   1.430035 A    
C51   O22   1.384056 S    
C22   C23   1.422007 A    
C47   C54   1.416627 A    
C43   C69   1.488009 S    
C24   C25   1.415130 A    
C57   H12   1.083578 S    
C5    C13   1.414450 A    
H9    C50   1.082562 S    
C5    O9    1.348068 S    
N3    C65   1.385684 A    
C44   C71   1.488739 S    
O17   H18   0.990618 S    
C53   O17   1.377637 S    
C48   C49   1.414314 A    
C23   C27   1.417767 A    
O5    C3    1.311259 A    
O18   H19   0.990429 S    
C71   H22   1.082865 S    
C29   H3    1.081670 S    
C58   C73   1.484854 S    
C2    C16   1.473860 S    
C60   C64   1.400534 A    
C37   H6    1.083905 S    
C43   C44   1.414292 A    
C70   O20   1.220519 D    
C45   C46   1.426743 A    
C66   O23   1.375483 S    
C43   C54   1.417793 A    
C60   N4    1.383406 A    
C38   C39   1.389017 A    
C19   C38   1.407743 A    
O1    Cu1   1.938060 S    
C9    C10   1.390173 A    
Cu2   N4    2.030130 S    
O3    Cu1   1.946540 S    
C69   H20   1.083007 S    
C7    C67   1.485163 S    
C36   H4    1.081990 S    
C64   H13   1.064925 S    
C34   C35   1.420296 A    
C12   C34   1.418746 A    
C18   C33   1.423614 A    
C49   C50   1.397784 A    
C18   C21   1.425912 A    
Cu1   Cu2   2.709621 S    
C12   C13   1.415370 A    
O3    C2    1.306313 A    
C17   C29   1.403154 A    
C63   C64   1.381574 A    
C46   C48   1.421883 A    
C15   C37   1.396356 A    
C73   O28   1.221498 D    
C8    C16   1.405342 A    
C13   C14   1.417085 A    
C57   C58   1.399333 A    
N3    C66   1.378772 A    
C9    H1    1.083005 S    
H11   C63   1.081210 S    
O1    C1    1.310696 A    
C56   N4    1.362224 A    
C18   C20   1.413300 A    
C7    C11   1.416391 A    
C50   C51   1.400265 A    
C65   O25   1.371870 S    
C23   C24   1.414806 A    
C14   C36   1.396069 A    
Cu2   O8    1.946535 S    
C33   C36   1.409328 A    
N1    C6    1.364662 A    
N2    C32   1.435355 S    
C27   O10   1.348402 S    
C56   C57   1.401041 A    
C26   O12   1.349210 S    
O22   H23   0.991806 S    
C6    O11   1.349830 S    
C55   C62   1.405939 A    
C26   N2    1.363498 A    
C9    C16   1.402715 A    
O8    C4    1.304746 A    
C67   H14   1.085828 S    
C67   O13   1.220347 D    
C59   C61   1.447985 A    
C28   C29   1.406553 A    
O24   H25   0.990090 S    
C37   C40   1.399679 A    
C39   O14   1.377793 S    
C25   C26   1.407061 A    
C58   C59   1.420937 A    
O26   H27   0.991690 S    
C3    C42   1.478936 S    
C52   H10   1.080799 S    
Cu1   O5    1.924372 S    
C31   C32   1.402722 A    
C41   C53   1.401007 A    
C10   H2    1.083062 S    
C55   O24   1.380012 S    
C20   C24   1.418477 A    
C31   O15   1.380962 S    
O2    Cu2   1.924372 S    
C6    C15   1.401183 A    
C72   O27   1.220971 D    
O6    C3    1.303814 A    
O4    Cu2   1.944363 S    
C74   H31   1.085270 S    
C5    N1    1.367189 A    
C73   H29   1.084190 S    
C45   C70   1.498435 S    
C19   C35   1.424614 A    
O29   H30   0.991814 S    
C30   H8    1.083295 S    
C38   H7    1.079945 S    
C42   C53   1.419724 A    
C7    C8    1.403131 A    
O2    C1    1.309703 A    
C61   C62   1.413739 A    
C46   C47   1.414367 A    
C72   H28   1.085678 S    
C55   C66   1.391372 A    
C74   O30   1.220966 D    
C62   C63   1.397937 A    
O4    C2    1.306840 A    
C25   C39   1.414425 A    
O7    C4    1.308670 A    
C19   C20   1.418945 A    
C28   O29   1.380385 S    
C75   O31   1.221534 D    
C61   C65   1.428517 A    
C44   C45   1.416695 A    
C22   C74   1.485484 S    
C71   O21   1.221584 D    
C41   O18   1.381715 S    
C41   C49   1.417557 A    
C21   C75   1.494398 S    
Cu2   O6    1.938059 S    
C33   C34   1.414747 A    
C17   C30   1.404289 A    
O15   H16   0.991678 S    
C75   H32   1.083011 S    
C48   C52   1.396837 A    
C10   C11   1.398821 A    
C70   H21   1.084043 S    
C8    H5    1.084128 S    
C28   C32   1.404712 A    
C14   C72   1.482375 S    
O25   H26   0.984789 S    
