data_mof_unit_50605.cif
_audit_creation_date              2012-12-10T18:11:48-0500
_audit_creation_method            fapswitch 2.2
_symmetry_space_group_name_H-M    P1
_symmetry_Int_Tables_number       1
_space_group_crystal_system       triclinic
_cell_length_a                    10.570307
_cell_length_b                    12.708267
_cell_length_c                    13.071507
_cell_angle_alpha                 81.848852
_cell_angle_beta                  92.0245
_cell_angle_gamma                 102.570308
_cell_volume                      1696.47782621

loop_
_atom_site_label
_atom_site_type_symbol
_atom_type_description
_atom_site_fract_x
_atom_site_fract_y
_atom_site_fract_z
_atom_type_partial_charge
C1    C     C_R   0.476114 0.438704 0.691238 0.937322
C2    C     C_R   0.455695 0.451256 0.972474 0.037341
C3    C     C_R   0.429426 0.474077 0.867033 -0.057492
C4    C     C_R   0.741475 0.499840 0.502444 0.949625
C5    C     C_R   0.476200 0.536912 0.032866 -0.056088
C6    C     C_R   0.441488 0.637090 0.993173 -0.142996
C7    C     C_R   0.386698 0.649962 0.893712 0.485410
C8    C     C_R   0.382655 0.568444 0.831087 -0.249210
C9    C     C_R   0.534535 0.527032 0.130621 0.428911
C10   C     C_R   0.491083 0.699573 0.159638 -0.357158
C11   C     C_R   0.445168 0.399161 0.801238 -0.159904
C12   C     C_3   0.068555 0.595349 0.529746 -0.299912
C13   C     C_R   0.353581 0.097952 0.324839 -0.329356
C14   C     C_R   0.656651 0.797712 0.630329 0.614615
C15   C     C_R   0.692740 0.902522 0.657004 -0.450216
C16   C     C_R   0.516753 0.561131 0.308760 0.879285
C17   C     C_R   0.633888 0.983466 0.607989 -0.179411
C18   C     C_R   0.536344 0.961143 0.532166 0.054383
C19   C     C_R   0.508090 0.854933 0.504134 0.063419
C20   C     C_R   0.472522 0.040751 0.478231 -0.110700
C21   C     C_R   0.400563 0.016548 0.387396 -0.065283
C22   C     C_R   0.378004 0.911915 0.358722 0.458470
C23   C     C_3   0.967499 0.509350 0.596737 0.348838
C24   C     C_R   0.426505 0.831289 0.420506 -0.304256
C25   C     C_R   0.481047 0.145074 0.507668 0.477413
C26   C     C_R   0.371406 0.201145 0.353899 0.535708
C27   C     C_R   0.258161 0.499652 0.498981 0.968139
C28   C     C_3   0.932530 0.405290 0.474044 0.291557
C29   C     C_3   0.023107 0.416029 0.567981 0.271619
C30   C     C_3   0.123280 0.499768 0.499560 -0.213243
C31   C     C_3   0.031844 0.490213 0.405775 0.217673
C32   C     C_3   0.975876 0.582621 0.436199 0.341485
C33   C     C_3   0.209200 0.276164 0.274238 0.074471
C34   C     C_3   0.875914 0.499085 0.503861 -0.242693
C35   C     C_3   0.178425 0.334116 0.169327 -0.744534
C36   C     C_3   0.201558 0.821771 0.275916 0.102824
C37   C     C_3   0.141649 0.807882 0.169791 -0.684981
C38   C     C_3   0.923298 0.246363 0.405033 0.114825
C39   C     C_3   0.842678 0.132505 0.400473 -0.810149
C40   C     C_3   0.363919 0.795583 0.772463 0.118815
C41   C     C_3   0.300500 0.893331 0.754631 -0.737468
C42   C     C_3   0.599381 0.875148 0.983228 0.110598
C43   C     C_3   0.611481 0.990848 0.929647 -0.799298
C44   C     C_R   0.463853 0.722367 0.054586 0.518069
C45   C     C_R   0.519703 0.599092 0.198456 -0.254140
C46   C     C_R   0.442142 0.289736 0.843853 0.341810
C47   C     C_R   0.433658 0.260390 0.952318 0.314382
C48   C     C_R   0.450622 0.342043 0.014964 -0.131915
H1    H     H_    0.447752 0.316987 0.097434 0.262622
H2    H     H_    0.669538 0.472361 0.213758 0.328310
H3    H     H_    0.485608 0.155733 0.817260 0.343812
H4    H     H_    0.362158 0.106527 0.950758 0.348534
H5    H     H_    0.178284 0.317289 0.334907 0.203075
H6    H     H_    0.151943 0.190664 0.281498 0.096778
H7    H     H_    0.202853 0.291121 0.107033 0.239626
H8    H     H_    0.073471 0.334297 0.163774 0.216086
H9    H     H_    0.234626 0.419575 0.158510 0.274851
H10   H     H_    0.136098 0.855912 0.320765 0.173932
H11   H     H_    0.209744 0.739966 0.315328 0.179310
H12   H     H_    0.334913 0.574903 0.756641 0.156897
H13   H     H_    0.204711 0.773096 0.123750 0.274726
H14   H     H_    0.044889 0.752039 0.177732 0.218282
H15   H     H_    0.130516 0.887950 0.128373 0.243232
H16   H     H_    0.587850 0.241510 0.589824 0.389707
H17   H     H_    0.775420 0.742869 0.730547 0.317206
H18   H     H_    0.013279 0.238357 0.449638 0.160598
H19   H     H_    0.946564 0.284928 0.324442 0.164341
H20   H     H_    0.746190 0.136468 0.365503 0.273519
H21   H     H_    0.893248 0.088495 0.353118 0.205426
H22   H     H_    0.830249 0.087014 0.479489 0.258091
H23   H     H_    0.306142 0.083276 0.251753 0.231032
H24   H     H_    0.993201 0.486432 0.261940 0.335147
H25   H     H_    0.883032 0.635066 0.317979 0.312072
H26   H     H_    0.008615 0.525948 0.738156 0.347719
H27   H     H_    0.337513 0.749245 0.706076 0.126693
H28   H     H_    0.470648 0.825658 0.775079 0.151051
H29   H     H_    0.320780 0.940570 0.820801 0.271556
H30   H     H_    0.338697 0.947010 0.683022 0.225408
H31   H     H_    0.193960 0.865510 0.746475 0.244699
H32   H     H_    0.634928 0.828086 0.928659 0.116742
H33   H     H_    0.663294 0.877895 0.052935 0.146722
H34   H     H_    0.674915 0.063456 0.626641 0.232005
H35   H     H_    0.580160 0.041105 0.982462 0.300059
H36   H     H_    0.714063 0.026494 0.907936 0.207328
H37   H     H_    0.551545 0.991082 0.858409 0.250681
H38   H     H_    0.767370 0.921970 0.714470 0.166172
H39   H     H_    0.406212 0.752008 0.397666 0.214752
H40   H     H_    0.125827 0.672990 0.552004 0.179695
H41   H     H_    0.492417 0.760890 0.209567 0.226472
H42   H     H_    0.968754 0.289030 0.666952 0.356128
N1    N     N_R   0.432930 0.222190 0.444670 -0.181723
N2    N     N_R   0.566370 0.776980 0.554790 -0.137581
O1    O     O_R   0.467970 0.366730 0.627150 -0.555629
O2    O     O_3   0.609475 0.450307 0.156825 -0.751315
O3    O     O_3   0.447030 0.214094 0.779197 -0.706892
O4    O     O_3   0.409373 0.153992 0.999855 -0.763408
O5    O     O_3   0.344226 0.284929 0.283423 -0.573497
O6    O     O_3   0.324133 0.892931 0.263064 -0.610184
O7    O     O_3   0.531922 0.168034 0.601519 -0.744951
O8    O     O_3   0.712875 0.714922 0.677260 -0.697906
O9    O     O_3   0.851160 0.307109 0.451909 -0.583299
O10   O     O_3   0.071353 0.485610 0.305967 -0.792892
O11   O     O_3   0.945512 0.669079 0.368377 -0.766659
O12   O     O_R   0.510820 0.544830 0.662520 -0.587478
O13   O     O_3   0.928401 0.517906 0.695695 -0.719018
O14   O     O_3   0.318749 0.731964 0.866747 -0.577463
O15   O     O_3   0.468798 0.828905 0.011328 -0.549120
O16   O     O_R   0.664630 0.410960 0.482340 -0.625961
O17   O     O_R   0.707470 0.589060 0.517710 -0.527739
O18   O     O_R   0.489180 0.455170 0.337480 -0.535856
O19   O     O_R   0.532030 0.633270 0.372850 -0.645395
O20   O     O_R   0.292530 0.410940 0.482290 -0.599067
O21   O     O_R   0.335370 0.589040 0.517660 -0.681357
O22   O     O_3   0.052942 0.330280 0.637123 -0.747834
Zn1   Zn    Zn3+2 0.471390 0.381080 0.476380 1.035120
Zn2   Zn    Zn3+2 0.528610 0.618920 0.523620 0.979406

loop_
_geom_bond_atom_site_label_1
_geom_bond_atom_site_label_2
_ccdc_geom_bond_type
C4    O17   A    
C9    C45   A    
C22   O6    S    
C43   H35   S    
C39   H20   S    
C1    C11   S    
C29   O22   S    
C36   H11   S    
C37   H14   S    
C16   O18   A    
C7    C8    A    
C42   H32   S    
C4    O16   A    
C12   C23   S    
C23   C29   S    
O16   Zn1   S    
C36   C37   S    
C18   C19   A    
C38   O9    S    
C36   H10   S    
C41   H29   S    
C30   C31   S    
C20   C25   A    
C23   O13   S    
C17   H34   S    
O1    Zn1   S    
C19   N2    A    
O17   Zn2   S    
O12   Zn2   S    
C28   O9    S    
C25   O7    S    
H16   O7    S    
C46   O3    S    
C31   C32   S    
C10   H41   S    
C47   O4    S    
H4    O4    S    
O19   Zn2   S    
C42   O15   S    
C18   C20   A    
O21   Zn2   S    
C28   C34   S    
C6    C44   A    
C21   C22   A    
C12   C32   S    
C27   C30   S    
C43   H36   S    
C42   H33   S    
C37   H15   S    
C33   H5    S    
C38   C39   S    
C4    C34   S    
C25   N1    A    
C12   H40   S    
C10   C44   A    
C43   H37   S    
C31   O10   S    
C38   H18   S    
C3    C8    A    
C41   H30   S    
H2    O2    S    
C13   H23   S    
C2    C48   A    
C26   N1    A    
C35   H7    S    
C40   H28   S    
C32   C34   S    
C5    C9    A    
C29   C30   S    
C47   C48   A    
C23   C34   S    
C10   C45   A    
C17   C18   A    
C39   H21   S    
C7    O14   S    
C13   C21   A    
C38   H19   S    
C32   O11   S    
N2    Zn2   S    
C1    O12   A    
C14   N2    A    
C15   H38   S    
C27   O21   A    
C40   C41   S    
C27   O20   A    
C22   C24   A    
C13   C26   A    
C2    C5    A    
C42   C43   S    
C40   O14   S    
C44   O15   S    
C33   H6    S    
C15   C17   A    
C46   C47   A    
C28   C29   S    
C12   C30   S    
C35   H8    S    
C28   C31   S    
H17   O8    S    
C16   C45   S    
C41   H31   S    
C37   H13   S    
C14   O8    S    
C6    C7    A    
C40   H27   S    
C35   H9    S    
C19   C24   A    
C8    H12   S    
H26   O13   S    
C5    C6    A    
H24   O10   S    
C48   H1    S    
C9    O2    S    
C33   C35   S    
C39   H22   S    
N1    Zn1   S    
C2    C3    A    
C33   O5    S    
H42   O22   S    
C24   H39   S    
C3    C11   A    
C26   O5    S    
H25   O11   S    
C20   C21   A    
C1    O1    A    
C14   C15   A    
C11   C46   A    
C36   O6    S    
O18   Zn1   S    
O20   Zn1   S    
C16   O19   A    
H3    O3    S    
