data_mof_unit_33935.cif
_audit_creation_date              2012-12-10T16:59:14-0500
_audit_creation_method            fapswitch 2.2
_symmetry_space_group_name_H-M    P1
_symmetry_Int_Tables_number       1
_space_group_crystal_system       triclinic
_cell_length_a                    7.729351
_cell_length_b                    8.561169
_cell_length_c                    27.748934
_cell_angle_alpha                 90.960538
_cell_angle_beta                  86.168958
_cell_angle_gamma                 93.793689
_cell_volume                      1827.9519854

loop_
_atom_site_label
_atom_site_type_symbol
_atom_type_description
_atom_site_fract_x
_atom_site_fract_y
_atom_site_fract_z
_atom_type_partial_charge
C1    C     C_R   0.546022 0.794914 0.498766 0.981932
C2    C     C_R   0.522723 0.652130 0.126768 -0.023620
C3    C     C_R   0.506370 0.484925 0.646449 -0.045296
C4    C     C_R   0.493298 0.519911 0.353749 -0.042236
C5    C     C_R   0.552967 0.644648 0.024665 0.050163
C6    C     C_R   0.479406 0.356239 0.974889 0.048261
C7    C     C_R   0.475492 0.359505 0.026049 0.049052
C8    C     C_R   0.566502 0.639756 0.973490 0.047385
C9    C     C_R   0.508857 0.504284 0.050601 0.076193
C10   C     C_R   0.525100 0.496455 0.948963 0.075869
C11   C     C_R   0.579746 0.786092 0.051081 -0.219150
C12   C     C_R   0.454001 0.205093 0.501292 0.990007
C13   C     C_R   0.437428 0.217398 0.948483 -0.221198
C14   C     C_R   0.563976 0.789456 0.101076 -0.133559
C15   C     C_R   0.437990 0.216880 0.898567 -0.133784
C16   C     C_R   0.502013 0.494243 0.593873 0.917867
C17   C     C_R   0.498425 0.506423 0.406161 0.920564
C18   C     C_R   0.619201 0.773972 0.945700 -0.220760
C19   C     C_R   0.437342 0.222815 0.053841 -0.221368
C20   C     C_2   0.570344 0.958414 0.498079 -0.312081
C21   C     C_2   0.429735 0.041604 0.502086 -0.364644
C22   C     C_R   0.573120 0.626380 0.821150 0.581780
C23   C     C_R   0.527866 0.493692 0.897843 -0.043557
C24   C     C_R   0.455201 0.376797 0.178623 0.585496
C25   C     C_R   0.477354 0.355587 0.822690 0.556733
C26   C     C_R   0.507077 0.654580 0.177236 0.551041
C27   C     C_R   0.641694 0.418962 0.718897 -0.227704
C28   C     C_R   0.631090 0.567985 0.274183 -0.217495
C29   C     C_R   0.637487 0.409676 0.668859 -0.042662
C30   C     C_R   0.640205 0.575189 0.324066 -0.047428
C31   C     C_R   0.376124 0.556165 0.675027 -0.342046
C32   C     C_R   0.336721 0.474933 0.332847 -0.336522
C33   C     C_R   0.374643 0.556665 0.725269 0.033646
C34   C     C_R   0.497374 0.508880 0.101795 -0.046975
C35   C     C_R   0.324239 0.479928 0.283002 0.053845
C36   C     C_R   0.511923 0.490283 0.747025 0.313559
C37   C     C_R   0.475384 0.522068 0.253483 0.303870
C38   C     C_2   0.226777 0.625678 0.753132 0.444759
C39   C     C_2   0.151632 0.442017 0.263690 0.432171
C40   C     C_2   0.801604 0.650133 0.342634 0.436604
C41   C     C_2   0.766688 0.313064 0.642739 0.433553
C42   C     C_R   0.575604 0.630836 0.871482 -0.012079
C43   C     C_R   0.460710 0.370244 0.128166 -0.019753
C44   C     C_R   0.623296 0.769249 0.895728 -0.124959
C45   C     C_R   0.431260 0.228361 0.103832 -0.129390
C46   C     C_R   0.481449 0.354084 0.872949 -0.022759
H1    H     H_    0.274078 0.611604 0.658044 0.160643
H2    H     H_    0.047642 0.385357 0.286689 0.049628
H3    H     H_    0.662635 0.875646 0.876167 0.193272
H4    H     H_    0.400864 0.120596 0.123419 0.194288
H5    H     H_    0.924383 0.642712 0.321643 0.054172
H6    H     H_    0.894664 0.307191 0.656278 0.060066
H7    H     H_    0.744417 0.603879 0.250837 0.170332
H8    H     H_    0.742939 0.365018 0.736692 0.149215
H9    H     H_    0.610932 0.897783 0.034454 0.137834
H10   H     H_    0.400208 0.106470 0.965026 0.144429
H11   H     H_    0.703027 0.009759 0.494265 0.190975
H12   H     H_    0.222745 0.436601 0.355590 0.156174
H13   H     H_    0.297059 0.990259 0.505916 0.181791
H14   H     H_    0.014220 0.383400 0.463438 0.190464
H15   H     H_    0.985767 0.616602 0.536558 0.190648
H16   H     H_    0.586183 0.900632 0.119571 0.190626
H17   H     H_    0.402928 0.107903 0.880127 0.198716
H18   H     H_    0.659712 0.885388 0.961169 0.144117
H19   H     H_    0.411935 0.108401 0.038369 0.139531
H20   H     H_    0.134969 0.688956 0.734333 0.071347
N1    N     N_R   0.520494 0.491011 0.798166 -0.336967
N2    N     N_R   0.475334 0.517938 0.201993 -0.334663
N3    N     N_2   0.950320 0.457960 0.486880 -0.155037
N4    N     N_2   0.049680 0.542040 0.513120 -0.165390
O1    O     O_R   0.389250 0.738570 0.503220 -0.621172
O2    O     O_2   0.430583 0.243517 0.204220 -0.530058
O3    O     O_2   0.523998 0.792173 0.201520 -0.524823
O4    O     O_2   0.428978 0.223537 0.798430 -0.534269
O5    O     O_2   0.202321 0.610390 0.796752 -0.562249
O6    O     O_2   0.120991 0.477529 0.222848 -0.568314
O7    O     O_2   0.797928 0.730060 0.379492 -0.549769
O8    O     O_2   0.728519 0.231049 0.608123 -0.553888
O9    O     O_R   0.610750 0.261430 0.496780 -0.595925
O10   O     O_R   0.678390 0.711630 0.494810 -0.607087
O11   O     O_R   0.321610 0.288370 0.505190 -0.633954
O12   O     O_R   0.355440 0.513440 0.575450 -0.630607
O13   O     O_R   0.644560 0.486560 0.424550 -0.593400
O14   O     O_R   0.644590 0.486500 0.567040 -0.602296
O15   O     O_R   0.355410 0.513500 0.432960 -0.635967
O16   O     O_2   0.620741 0.756209 0.795299 -0.542091
Zn1   Zn    Zn3+2 0.306940 0.517990 0.505620 0.966660
Zn2   Zn    Zn3+2 0.693060 0.482010 0.494380 1.009672

loop_
_geom_bond_atom_site_label_1
_geom_bond_atom_site_label_2
_ccdc_geom_bond_type
C44   H3    S    
H15   N4    S    
C37   N2    S    
C27   C29   A    
C25   N1    A    
C32   H12   S    
C26   O3    S    
C27   H8    S    
C1    O1    A    
C23   C42   A    
C17   O15   A    
C28   C37   A    
C35   C37   A    
C21   H13   S    
C11   C14   A    
O12   Zn1   S    
C14   H16   S    
C12   O9    A    
C16   O14   A    
C33   C36   A    
C25   O4    S    
C3    C29   A    
C38   H20   S    
C31   C33   A    
C41   H6    S    
C13   H10   S    
C2    C34   A    
O13   Zn2   S    
C23   C46   A    
C31   H1    S    
C42   C44   A    
N4    Zn1   S    
O9    Zn2   S    
C38   O5    D    
O15   Zn1   S    
C36   N1    S    
C32   C35   A    
C41   O8    D    
C12   C21   S    
C8    C18   A    
C17   O13   A    
C35   C39   S    
C5    C9    A    
C18   C44   A    
C16   O12   A    
C30   C40   S    
C2    C26   A    
C4    C32   A    
C39   O6    D    
C3    C31   A    
C43   C45   A    
O11   Zn1   S    
N3    Zn2   S    
O1    Zn1   S    
C4    C17   S    
H14   N3    S    
C7    C19   A    
C13   C15   A    
C9    C34   A    
C10   C23   A    
C11   H9    S    
C24   O2    S    
C7    C9    A    
C1    C20   S    
C29   C41   S    
C34   C43   A    
O14   Zn2   S    
C6    C10   A    
C5    C8    A    
C28   H7    S    
C19   C45   A    
C5    C11   A    
C6    C7    A    
C27   C36   A    
C40   H5    S    
C33   C38   S    
C26   N2    A    
C28   C30   A    
O10   Zn2   S    
C6    C13   A    
C18   H18   S    
C22   C42   A    
C45   H4    S    
C12   O11   A    
C19   H19   S    
C22   O16   S    
N3    N4    D    
C2    C14   A    
C22   N1    A    
C24   N2    A    
C20   C21   D    
C8    C10   A    
C24   C43   A    
C15   H17   S    
C40   O7    D    
C1    O10   A    
C15   C46   A    
C20   H11   S    
C25   C46   A    
C4    C30   A    
C3    C16   S    
C39   H2    S    
