data_mof_unit_62752.cif
_audit_creation_date              2013-03-05T16:29:00-0500
_audit_creation_method            fapswitch 2.2
_symmetry_space_group_name_H-M    P1
_symmetry_Int_Tables_number       1
_space_group_crystal_system       triclinic
_cell_length_a                    32.236954
_cell_length_b                    32.237055
_cell_length_c                    47.283681
_cell_angle_alpha                 90.000126
_cell_angle_beta                  90.219959
_cell_angle_gamma                 90.000085
_cell_volume                      49137.9957129

loop_
_atom_site_label
_atom_site_type_symbol
_atom_site_description
_atom_site_fract_x
_atom_site_fract_y
_atom_site_fract_z
_atom_type_partial_charge
O1    O     O_R   0.059820 0.534610 0.000040 -0.572723
O2    O     O_R   0.465390 0.059820 0.000040 -0.572277
O3    O     O_R   0.940180 0.465390 0.000040 -0.570843
O4    O     O_R   0.534610 0.940180 0.000040 -0.571762
O5    O     O_R   0.059820 0.465390 0.999960 -0.570870
O6    O     O_R   0.465390 0.940180 0.999960 -0.571771
O7    O     O_R   0.940180 0.534610 0.999960 -0.572701
O8    O     O_R   0.534610 0.059820 0.999960 -0.572267
O9    O     O_R   0.559820 0.034610 0.500040 -0.572809
O10   O     O_R   0.965390 0.559820 0.500040 -0.572334
O11   O     O_R   0.440180 0.965390 0.500040 -0.570967
O12   O     O_R   0.034610 0.440180 0.500040 -0.571681
O13   O     O_R   0.559820 0.965390 0.499960 -0.570985
O14   O     O_R   0.965390 0.440180 0.499960 -0.571678
O15   O     O_R   0.440180 0.034610 0.499960 -0.572789
O16   O     O_R   0.034610 0.559820 0.499960 -0.572340
C1    C     C_R   0.079583 0.500001 0.999988 0.822543
C2    C     C_R   0.500000 0.079583 1.000000 0.821420
C3    C     C_R   0.920417 0.500001 0.000012 0.822488
C4    C     C_R   0.500000 0.920416 0.000000 0.824654
C5    C     C_R   0.579583 0.000001 0.499988 0.822698
C6    C     C_R   0.000000 0.579583 0.500000 0.821519
C7    C     C_R   0.420417 0.000001 0.500012 0.822674
C8    C     C_R   1.000000 0.420416 0.500000 0.824514
O17   O     O_R   0.999950 0.534610 0.041090 -0.578450
O18   O     O_R   0.465390 0.999950 0.041090 -0.578137
O19   O     O_R   0.000050 0.465390 0.041090 -0.578041
O20   O     O_R   0.534610 0.000050 0.041090 -0.578543
O21   O     O_R   0.999950 0.465390 0.958910 -0.578069
O22   O     O_R   0.465390 0.000050 0.958910 -0.578544
O23   O     O_R   0.000050 0.534610 0.958910 -0.578446
O24   O     O_R   0.534610 0.999950 0.958910 -0.578125
O25   O     O_R   0.499950 0.034610 0.541090 -0.578468
O26   O     O_R   0.965390 0.499950 0.541090 -0.578109
O27   O     O_R   0.500050 0.965390 0.541090 -0.578080
O28   O     O_R   0.034610 0.500050 0.541090 -0.578566
O29   O     O_R   0.499950 0.965390 0.458910 -0.578074
O30   O     O_R   0.965390 0.500050 0.458910 -0.578570
O31   O     O_R   0.500050 0.034610 0.458910 -0.578462
O32   O     O_R   0.034610 0.499950 0.458910 -0.578126
C9    C     C_R   0.999441 0.500024 0.054635 0.845215
C10   C     C_R   0.500096 0.000569 0.054638 0.845625
C11   C     C_R   0.000555 0.500024 0.945364 0.845234
C12   C     C_R   0.499904 0.000571 0.945362 0.845616
C13   C     C_R   0.499443 0.000024 0.554636 0.845381
C14   C     C_R   0.000096 0.500573 0.554638 0.845573
C15   C     C_R   0.500559 0.000024 0.445364 0.845371
C16   C     C_R   0.999904 0.500568 0.445362 0.845596
Cu1   Cu    Cu3+1 0.000000 0.540980 0.000000 1.027584
Cu2   Cu    Cu3+1 0.459020 0.000000 0.000000 1.029528
Cu3   Cu    Cu3+1 0.000000 0.459020 0.000000 1.032393
Cu4   Cu    Cu3+1 0.540980 0.000000 0.000000 1.029559
Cu5   Cu    Cu3+1 0.500000 0.040980 0.500000 1.027388
Cu6   Cu    Cu3+1 0.959020 0.500000 0.500000 1.029508
Cu7   Cu    Cu3+1 0.500000 0.959020 0.500000 1.032129
Cu8   Cu    Cu3+1 0.040980 0.500000 0.500000 1.029486
C17   C     C_R   0.012237 0.474545 0.309776 0.670960
C18   C     C_R   0.522401 0.041183 0.309014 0.672128
C19   C     C_R   0.958611 0.522871 0.308765 0.672467
C20   C     C_R   0.474726 0.986986 0.309569 0.670863
C21   C     C_R   0.041231 0.523268 0.691259 0.672539
C22   C     C_R   0.525290 0.986933 0.690442 0.670887
C23   C     C_R   0.987904 0.474607 0.690195 0.670897
C24   C     C_R   0.477743 0.041240 0.690978 0.672108
C25   C     C_R   0.512161 0.974576 0.809791 0.670955
C26   C     C_R   0.022067 0.541312 0.809034 0.672075
C27   C     C_R   0.458694 0.023080 0.808753 0.672528
C28   C     C_R   0.974679 0.486868 0.809544 0.670897
C29   C     C_R   0.541364 0.022933 0.191238 0.672502
C30   C     C_R   0.025265 0.487007 0.190426 0.670837
C31   C     C_R   0.487784 0.974555 0.190219 0.670981
C32   C     C_R   0.977537 0.541158 0.190989 0.672158
N1    N     N_R   0.989898 0.504349 0.323966 -0.455628
N2    N     N_R   0.504235 0.009582 0.323988 -0.455483
N3    N     N_R   0.010097 0.504545 0.676028 -0.455649
N4    N     N_R   0.495833 0.009585 0.676015 -0.455477
N5    N     N_R   0.489900 0.004451 0.823969 -0.455647
N6    N     N_R   0.004072 0.509587 0.823982 -0.455466
N7    N     N_R   0.510100 0.004380 0.176033 -0.455640
N8    N     N_R   0.995735 0.509581 0.176011 -0.455489
O33   O     O_R   0.499970 0.440170 0.023830 -0.571967
O34   O     O_R   0.559830 0.499970 0.023830 -0.572039
O35   O     O_R   0.500030 0.559830 0.023830 -0.572006
O36   O     O_R   0.440170 0.500030 0.023830 -0.572428
O37   O     O_R   0.499970 0.559830 0.976170 -0.571992
O38   O     O_R   0.559830 0.500030 0.976170 -0.572465
O39   O     O_R   0.500030 0.440170 0.976170 -0.571991
O40   O     O_R   0.440170 0.499970 0.976170 -0.572017
O41   O     O_R   0.999970 0.940170 0.523830 -0.571895
O42   O     O_R   0.059830 0.999970 0.523830 -0.571921
O43   O     O_R   0.000030 0.059830 0.523830 -0.572088
O44   O     O_R   0.940170 0.000030 0.523830 -0.572331
O45   O     O_R   0.999970 0.059830 0.476170 -0.572086
O46   O     O_R   0.059830 0.000030 0.476170 -0.572356
O47   O     O_R   0.000030 0.940170 0.476170 -0.571915
O48   O     O_R   0.940170 0.999970 0.476170 -0.571905
C33   C     C_R   0.962964 0.529406 0.279491 -0.151774
C34   C     C_R   0.476969 0.982312 0.279797 -0.148802
C35   C     C_R   0.017020 0.476591 0.280010 -0.148590
C36   C     C_R   0.529049 0.037081 0.279737 -0.151544
C37   C     C_R   0.983075 0.476596 0.719960 -0.148505
C38   C     C_R   0.471085 0.037176 0.720256 -0.151539
C39   C     C_R   0.036777 0.529772 0.720528 -0.151803
C40   C     C_R   0.523027 0.982276 0.720213 -0.148834
C41   C     C_R   0.463099 0.029598 0.779482 -0.151808
C42   C     C_R   0.976969 0.482234 0.779772 -0.148871
C43   C     C_R   0.516967 0.976592 0.780026 -0.148555
C44   C     C_R   0.028739 0.537297 0.779753 -0.151535
C45   C     C_R   0.482994 0.976592 0.219985 -0.148587
C46   C     C_R   0.970894 0.537041 0.220266 -0.151572
C47   C     C_R   0.536996 0.029464 0.220512 -0.151795
C48   C     C_R   0.023030 0.482326 0.220198 -0.148790
C49   C     C_R   0.992216 0.505097 0.264878 -0.078655
C50   C     C_R   0.505198 0.007545 0.264895 -0.078683
C51   C     C_R   0.007674 0.505252 0.735117 -0.078643
C52   C     C_R   0.494855 0.007584 0.735107 -0.078686
C53   C     C_R   0.492271 0.005177 0.764881 -0.078639
C54   C     C_R   0.005069 0.507637 0.764890 -0.078712
C55   C     C_R   0.507766 0.005121 0.235121 -0.078644
C56   C     C_R   0.994778 0.507528 0.235104 -0.078699
C57   C     C_R   0.937982 0.558124 0.264494 0.245948
C58   C     C_R   0.451847 0.953802 0.264616 0.251411
C59   C     C_R   0.045259 0.451049 0.265056 0.251719
C60   C     C_R   0.557428 0.062549 0.264957 0.246264
C61   C     C_R   0.954981 0.450864 0.734889 0.251784
C62   C     C_R   0.442773 0.062728 0.735029 0.246286
C63   C     C_R   0.061529 0.558664 0.735545 0.245891
C64   C     C_R   0.548076 0.953712 0.735403 0.251385
C65   C     C_R   0.438237 0.058408 0.764474 0.245927
C66   C     C_R   0.952011 0.453605 0.764571 0.251364
C67   C     C_R   0.545129 0.950949 0.765084 0.251742
C68   C     C_R   0.056966 0.562956 0.764990 0.246320
C69   C     C_R   0.454777 0.951021 0.234935 0.251721
C70   C     C_R   0.942488 0.562474 0.235049 0.246262
C71   C     C_R   0.561942 0.058208 0.235512 0.245944
C72   C     C_R   0.048182 0.453838 0.235375 0.251424
Cu9   Cu    Cu3+1 0.500000 0.500000 0.028170 1.021120
Cu10  Cu    Cu3+1 0.500000 0.500000 0.971830 1.021097
Cu11  Cu    Cu3+1 1.000000 0.000000 0.528170 1.021327
Cu12  Cu    Cu3+1 1.000000 0.000000 0.471830 1.021300
O49   O     O_2   0.026860 0.441394 0.324037 -0.431380
O50   O     O_2   0.528551 0.078416 0.321143 -0.418069
O51   O     O_2   0.921366 0.529442 0.320649 -0.416946
O52   O     O_2   0.441599 0.972075 0.323589 -0.431356
O53   O     O_2   0.078466 0.530063 0.679421 -0.416764
O54   O     O_2   0.558396 0.971955 0.676432 -0.431285
O55   O     O_2   0.973457 0.441404 0.675907 -0.431504
O56   O     O_2   0.471678 0.078477 0.678833 -0.418125
O57   O     O_2   0.526690 0.941397 0.824066 -0.431321
O58   O     O_2   0.028029 0.578551 0.821201 -0.418169
O59   O     O_2   0.421455 0.029770 0.820614 -0.416787
O60   O     O_2   0.941598 0.471808 0.823540 -0.431358
O61   O     O_2   0.578608 0.029539 0.179361 -0.416852
O62   O     O_2   0.058401 0.472124 0.176402 -0.431449
O63   O     O_2   0.473189 0.941396 0.175954 -0.431278
O64   O     O_2   0.971353 0.578390 0.178867 -0.417992
C73   C     C_R   0.002227 0.466478 0.131327 0.415712
C74   C     C_R   0.532633 0.032935 0.127999 0.408169
C75   C     C_R   0.967049 0.532120 0.127904 0.408585
C76   C     C_R   0.466882 0.997960 0.131302 0.415688
C77   C     C_R   0.032782 0.532165 0.872069 0.408676
C78   C     C_R   0.533111 0.997979 0.868697 0.415705
C79   C     C_R   0.997718 0.466462 0.868675 0.415664
C80   C     C_R   0.467383 0.032998 0.872011 0.408134
C81   C     C_R   0.502248 0.966469 0.631326 0.415729
C82   C     C_R   0.032601 0.533075 0.627976 0.408073
C83   C     C_R   0.467139 0.032148 0.627918 0.408622
C84   C     C_R   0.966897 0.498012 0.631304 0.415753
C85   C     C_R   0.532924 0.032128 0.372092 0.408590
C86   C     C_R   0.033120 0.497950 0.368699 0.415703
C87   C     C_R   0.497765 0.966476 0.368673 0.415756
C88   C     C_R   0.967360 0.532908 0.371997 0.408178
C89   C     C_R   0.007175 0.466037 0.101921 -0.228748
C90   C     C_R   0.533111 0.025722 0.098871 -0.235295
C91   C     C_R   0.974169 0.532726 0.098787 -0.235318
C92   C     C_R   0.466300 0.992987 0.101887 -0.227682
C93   C     C_R   0.025726 0.532753 0.901193 -0.235154
C94   C     C_R   0.533692 0.992991 0.898111 -0.227620
C95   C     C_R   0.992812 0.466018 0.898085 -0.228950
C96   C     C_R   0.466900 0.025762 0.901136 -0.235338
C97   C     C_R   0.507175 0.966026 0.601918 -0.228731
C98   C     C_R   0.033091 0.525807 0.598854 -0.235366
C99   C     C_R   0.474227 0.032744 0.598797 -0.235165
C100  C     C_R   0.966316 0.493003 0.601892 -0.227666
C101  C     C_R   0.525814 0.032731 0.401210 -0.235179
C102  C     C_R   0.033702 0.492984 0.398114 -0.227822
C103  C     C_R   0.492824 0.966034 0.398080 -0.228706
C104  C     C_R   0.966885 0.525706 0.401126 -0.235259
H1    H     H_    0.018693 0.438272 0.091701 0.206261
H2    H     H_    0.556317 0.041053 0.086042 0.202200
H3    H     H_    0.958726 0.555924 0.085914 0.201977
H4    H     H_    0.438465 0.981515 0.091628 0.206143
H5    H     H_    0.041155 0.555979 0.914053 0.202027
H6    H     H_    0.561519 0.981492 0.908365 0.206126
H7    H     H_    0.981363 0.438232 0.908315 0.206307
H8    H     H_    0.443704 0.041098 0.913971 0.202181
H9    H     H_    0.518654 0.938248 0.591693 0.206270
H10   H     H_    0.056277 0.541145 0.586013 0.202169
H11   H     H_    0.458795 0.055958 0.585931 0.202022
H12   H     H_    0.938497 0.481475 0.591643 0.206095
H13   H     H_    0.541255 0.055933 0.414081 0.202008
H14   H     H_    0.061541 0.481522 0.408374 0.206149
H15   H     H_    0.481317 0.938265 0.408302 0.206247
H16   H     H_    0.943675 0.541034 0.413953 0.202203
C105  C     C_R   0.995633 0.500403 0.085678 -0.169716
C106  C     C_R   0.500640 0.004387 0.085692 -0.169607
C107  C     C_R   0.004327 0.500403 0.914319 -0.169816
C108  C     C_R   0.499360 0.004401 0.914309 -0.169572
C109  C     C_R   0.495652 0.000403 0.585680 -0.169759
C110  C     C_R   0.000641 0.504420 0.585690 -0.169552
C111  C     C_R   0.504361 0.000403 0.414321 -0.169725
C112  C     C_R   0.999360 0.504380 0.414307 -0.169648
C113  C     C_R   0.988818 0.503291 0.145366 0.100224
C114  C     C_R   0.503770 0.011325 0.145398 0.100483
C115  C     C_R   0.011026 0.503303 0.854624 0.100112
C116  C     C_R   0.496233 0.011382 0.854605 0.100523
C117  C     C_R   0.488896 0.003299 0.645371 0.100152
C118  C     C_R   0.003763 0.511459 0.645391 0.100556
C119  C     C_R   0.511158 0.003293 0.354632 0.100179
C120  C     C_R   0.996227 0.511299 0.354600 0.100445
H17   H     H_    0.211554 0.464219 0.961363 0.158719
H18   H     H_    0.541297 0.211811 0.964257 0.158064
H19   H     H_    0.787926 0.534228 0.960969 0.155804
H20   H     H_    0.447498 0.788184 0.971635 0.155526
H21   H     H_    0.212070 0.535870 0.038343 0.155757
H22   H     H_    0.552502 0.788185 0.028365 0.155531
H23   H     H_    0.788451 0.465859 0.039323 0.158890
H24   H     H_    0.458703 0.211811 0.035743 0.158054
H25   H     H_    0.711570 0.959452 0.463625 0.158320
H26   H     H_    0.043923 0.711811 0.465745 0.157815
H27   H     H_    0.287943 0.039728 0.463462 0.155634
H28   H     H_    0.951461 0.288184 0.468522 0.155622
H29   H     H_    0.712054 0.040640 0.536071 0.155602
H30   H     H_    0.048539 0.288185 0.531478 0.155631
H31   H     H_    0.288433 0.960363 0.536840 0.158392
H32   H     H_    0.956078 0.711811 0.534256 0.157835
C121  C     C_R   0.271625 0.479912 0.978179 -0.147450
C122  C     C_R   0.523219 0.271767 0.979905 -0.147019
C123  C     C_R   0.728086 0.519274 0.978153 -0.148958
C124  C     C_R   0.470481 0.728228 0.984053 -0.149018
C125  C     C_R   0.271911 0.520198 0.021458 -0.148958
C126  C     C_R   0.529518 0.728228 0.015947 -0.148991
C127  C     C_R   0.728377 0.480833 0.022206 -0.147423
C128  C     C_R   0.476780 0.271767 0.020095 -0.147037
C129  C     C_R   0.771634 0.977233 0.479449 -0.147512
C130  C     C_R   0.024695 0.771767 0.480741 -0.147112
C131  C     C_R   0.228095 0.022368 0.479558 -0.148878
C132  C     C_R   0.972709 0.228228 0.482302 -0.149068
C133  C     C_R   0.771903 0.022881 0.520178 -0.148873
C134  C     C_R   0.027291 0.228229 0.517698 -0.149044
C135  C     C_R   0.228368 0.977745 0.520812 -0.147507
C136  C     C_R   0.975305 0.771768 0.519259 -0.147108
H33   H     H_    0.288028 0.464224 0.961324 0.156032
H34   H     H_    0.541300 0.288282 0.964258 0.155152
H35   H     H_    0.711458 0.534237 0.961009 0.154684
H36   H     H_    0.447497 0.711714 0.971637 0.153336
H37   H     H_    0.288537 0.535879 0.038302 0.154552
H38   H     H_    0.552503 0.711714 0.028364 0.153348
H39   H     H_    0.711976 0.465863 0.039362 0.156203
H40   H     H_    0.458700 0.288282 0.035742 0.155149
H41   H     H_    0.788044 0.959457 0.463586 0.155547
H42   H     H_    0.043925 0.788282 0.465746 0.154835
H43   H     H_    0.211475 0.039737 0.463503 0.154242
H44   H     H_    0.951460 0.211714 0.468523 0.153772
H45   H     H_    0.788522 0.040649 0.536030 0.154157
H46   H     H_    0.048540 0.211714 0.531478 0.153780
H47   H     H_    0.211959 0.960367 0.536879 0.155647
H48   H     H_    0.956076 0.788282 0.534254 0.154844
C137  C     C_R   0.293635 0.500054 0.999810 0.135902
C138  C     C_R   0.500000 0.293634 1.000000 0.135976
C139  C     C_R   0.706365 0.500053 0.000189 0.135726
C140  C     C_R   0.500000 0.706362 0.000000 0.138294
C141  C     C_R   0.793635 0.000056 0.499804 0.136416
C142  C     C_R   0.000000 0.793634 0.500000 0.136323
C143  C     C_R   0.206365 0.000055 0.500194 0.136312
C144  C     C_R   0.000000 0.206362 0.500000 0.137798
C145  C     C_R   0.228471 0.520192 0.021482 -0.146343
C146  C     C_R   0.476782 0.228326 0.020095 -0.141711
C147  C     C_R   0.771820 0.480829 0.022183 -0.141712
C148  C     C_R   0.529518 0.771670 0.015947 -0.145666
C149  C     C_R   0.228182 0.479908 0.978202 -0.141762
C150  C     C_R   0.470481 0.771670 0.984053 -0.145668
C151  C     C_R   0.771526 0.519268 0.978130 -0.146420
C152  C     C_R   0.523218 0.228326 0.979904 -0.141690
C153  C     C_R   0.728463 0.022874 0.520202 -0.146139
C154  C     C_R   0.975306 0.728326 0.519260 -0.141676
C155  C     C_R   0.271810 0.977740 0.520789 -0.141767
C156  C     C_R   0.027290 0.271670 0.517698 -0.145790
C157  C     C_R   0.728191 0.977229 0.479471 -0.141758
C158  C     C_R   0.972710 0.271670 0.482302 -0.145807
C159  C     C_R   0.271536 0.022362 0.479534 -0.146176
C160  C     C_R   0.024695 0.728326 0.480741 -0.141720
C161  C     C_R   0.206461 0.500042 0.999857 0.136360
C162  C     C_R   0.500000 0.206460 1.000000 0.135857
C163  C     C_R   0.793539 0.500042 0.000142 0.136251
C164  C     C_R   0.500000 0.793536 0.000000 0.137752
C165  C     C_R   0.706461 0.000044 0.499852 0.136644
C166  C     C_R   0.000000 0.706460 0.500000 0.136116
C167  C     C_R   0.293539 0.000043 0.500147 0.136589
C168  C     C_R   1.000000 0.293536 0.500000 0.137657
C169  C     C_1   0.338413 0.500028 0.999812 -0.038393
C170  C     C_1   0.500000 0.338413 1.000000 -0.037105
C171  C     C_1   0.661587 0.500027 0.000187 -0.038405
C172  C     C_1   0.500000 0.661585 0.000000 -0.038697
C173  C     C_1   0.838413 0.000029 0.499811 -0.038287
C174  C     C_1   0.000000 0.838413 0.500000 -0.037174
C175  C     C_1   0.161587 0.000028 0.500189 -0.038302
C176  C     C_1   0.000000 0.161585 0.500000 -0.038869
C177  C     C_1   0.161685 0.500019 0.999897 -0.030172
C178  C     C_1   0.500000 0.161684 1.000000 -0.027228
C179  C     C_1   0.838315 0.500018 0.000103 -0.030160
C180  C     C_1   0.500000 0.838313 0.000000 -0.032781
C181  C     C_1   0.661685 0.000019 0.499894 -0.030143
C182  C     C_1   0.000000 0.661684 0.500000 -0.027251
C183  C     C_1   0.338315 0.000019 0.500105 -0.030153
C184  C     C_1   1.000000 0.338313 0.500000 -0.032826
C185  C     C_1   0.124210 0.500006 0.999939 -0.130529
C186  C     C_1   0.500000 0.124209 1.000000 -0.127142
C187  C     C_1   0.875790 0.500005 0.000061 -0.130506
C188  C     C_1   0.500000 0.875788 0.000000 -0.133736
C189  C     C_1   0.624210 0.000006 0.499938 -0.130547
C190  C     C_1   0.000000 0.624209 0.500000 -0.127184
C191  C     C_1   0.375790 0.000005 0.500062 -0.130549
C192  C     C_1   1.000000 0.375788 0.500000 -0.133765
C193  C     C_1   0.375889 0.500012 0.999853 -0.139061
C194  C     C_1   0.500000 0.375889 1.000000 -0.138294
C195  C     C_1   0.624111 0.500012 0.000147 -0.139060
C196  C     C_1   0.500000 0.624109 0.000000 -0.139166
C197  C     C_1   0.875889 0.000012 0.499853 -0.139001
C198  C     C_1   0.000000 0.875889 0.500000 -0.138377
C199  C     C_1   0.124111 0.000012 0.500147 -0.139005
C200  C     C_1   0.000000 0.124109 0.500000 -0.139267
C201  C     C_R   0.500000 0.420520 1.000000 0.815123
C202  C     C_R   0.579480 0.500001 0.000047 0.814937
C203  C     C_R   0.500000 0.579480 0.000000 0.814620
C204  C     C_R   0.420520 0.500001 0.999953 0.814895
C205  C     C_R   0.000000 0.920520 0.500000 0.814899
C206  C     C_R   0.079480 0.000000 0.500047 0.814795
C207  C     C_R   0.000000 0.079480 0.500000 0.814618
C208  C     C_R   0.920520 0.000000 0.499953 0.814770
N9    N     N_R   0.909292 0.584489 0.279106 0.193562
O65   O     O_R   0.870196 0.584469 0.272172 -0.231180
O66   O     O_R   0.922816 0.611066 0.297677 -0.222113
N10   N     N_R   0.423948 0.926476 0.279071 0.192963
O67   O     O_R   0.384272 0.928490 0.274124 -0.240356
O68   O     O_R   0.438598 0.896355 0.294452 -0.211145
N11   N     N_R   0.072157 0.422835 0.279741 0.192946
O69   O     O_R   0.069571 0.383168 0.274986 -0.240420
O70   O     O_R   0.102490 0.437129 0.295126 -0.211543
N12   N     N_R   0.583281 0.091617 0.279786 0.193647
O71   O     O_R   0.582525 0.130750 0.273073 -0.232089
O72   O     O_R   0.610206 0.078444 0.298274 -0.221334
N13   N     N_R   0.928277 0.422493 0.720181 0.192938
O73   O     O_R   0.931118 0.382838 0.724915 -0.240515
O74   O     O_R   0.897859 0.436609 0.704797 -0.211548
N14   N     N_R   0.417008 0.091866 0.720195 0.193664
O75   O     O_R   0.417891 0.131001 0.726894 -0.232155
O76   O     O_R   0.390026 0.078763 0.701721 -0.221256
N15   N     N_R   0.090025 0.585263 0.720950 0.193513
O77   O     O_R   0.129105 0.585585 0.727923 -0.231023
O78   O     O_R   0.076321 0.611679 0.702334 -0.222389
N16   N     N_R   0.575915 0.926315 0.720957 0.192969
O79   O     O_R   0.615593 0.928232 0.725911 -0.240292
O80   O     O_R   0.561197 0.896227 0.705575 -0.211146
N17   N     N_R   0.409649 0.084896 0.779078 0.193539
O81   O     O_R   0.370561 0.085055 0.772124 -0.231040
O82   O     O_R   0.423269 0.111390 0.797671 -0.222316
N18   N     N_R   0.924247 0.426117 0.779005 0.192958
O83   O     O_R   0.884566 0.427915 0.774040 -0.240376
O84   O     O_R   0.939048 0.396071 0.794388 -0.211177
N19   N     N_R   0.571925 0.922651 0.779781 0.192953
O85   O     O_R   0.569203 0.882991 0.775037 -0.240380
O86   O     O_R   0.602303 0.936851 0.795165 -0.211495
N20   N     N_R   0.082617 0.592183 0.779833 0.193690
O87   O     O_R   0.081570 0.631322 0.773152 -0.232187
O88   O     O_R   0.109674 0.579169 0.798284 -0.221210
N21   N     N_R   0.427909 0.922782 0.220247 0.192954
O89   O     O_R   0.430534 0.883117 0.224998 -0.240349
O90   O     O_R   0.397563 0.937049 0.204861 -0.211511
N22   N     N_R   0.916598 0.591513 0.220223 0.193644
O91   O     O_R   0.917302 0.630645 0.226941 -0.232046
O92   O     O_R   0.889697 0.578312 0.201728 -0.221508
N23   N     N_R   0.590603 0.084609 0.220903 0.193558
O93   O     O_R   0.629697 0.084641 0.227843 -0.231083
O94   O     O_R   0.577051 0.111162 0.202325 -0.222203
N24   N     N_R   0.076107 0.426542 0.220917 0.192955
O95   O     O_R   0.115781 0.428595 0.225860 -0.240442
O96   O     O_R   0.061483 0.396407 0.205536 -0.211163
Cl1   Cl    Cl    0.004027 0.417717 0.148318 -0.451798
Cl2   Cl    Cl    0.554657 0.081049 0.137753 -0.438797
Cl3   Cl    Cl    0.919001 0.554112 0.137661 -0.440394
Cl4   Cl    Cl    0.418242 0.995995 0.148313 -0.453739
Cl5   Cl    Cl    0.080729 0.554307 0.862240 -0.440387
Cl6   Cl    Cl    0.581742 0.995953 0.851677 -0.453807
Cl7   Cl    Cl    0.996079 0.417677 0.851708 -0.451583
Cl8   Cl    Cl    0.445416 0.081149 0.862284 -0.438769
Cl9   Cl    Cl    0.503958 0.917696 0.648305 -0.451680
Cl10  Cl    Cl    0.054506 0.581270 0.637667 -0.438507
Cl11  Cl    Cl    0.419146 0.054225 0.637712 -0.439987
Cl12  Cl    Cl    0.918278 0.495915 0.648336 -0.453964
Cl13  Cl    Cl    0.580956 0.054144 0.362324 -0.439859
Cl14  Cl    Cl    0.081764 0.496009 0.351691 -0.453719
Cl15  Cl    Cl    0.495991 0.917711 0.351686 -0.451758
Cl16  Cl    Cl    0.945314 0.581006 0.362232 -0.438652

loop_
_geom_bond_atom_site_label_1
_geom_bond_atom_site_label_2
_geom_bond_distance
_ccdc_geom_bond_type
O25   C13   1.285947 A    
C139  C171  1.443503 S    
C95   H7    1.083487 S    
C82   Cl10  1.766350 S    
C93   H5    1.084123 S    
C122  H34   1.083429 S    
C128  C138  1.401960 A    
C121  C137  1.401967 A    
C20   C34   1.417867 A    
O18   Cu2   1.952925 S    
C64   N16   1.434137 S    
C34   C50   1.411121 A    
C102  H14   1.083481 S    
C42   C66   1.418216 A    
C92   C106  1.397630 A    
C122  C138  1.401960 A    
O24   Cu4   1.952930 S    
C40   C52   1.411118 A    
C74   C90   1.396910 A    
H20   C150  1.083417 S    
C16   C112  1.473551 S    
Cu1   Cu3   2.642152 S    
C94   C108  1.397624 A    
Cu2   Cu4   2.642144 S    
O3    C3    1.284834 A    
C81   Cl9   1.766178 S    
C134  C144  1.401947 A    
C19   N1    1.372876 A    
C197  C208  1.438738 S    
C96   H8    1.084137 S    
C63   N15   1.435352 S    
C77   C115  1.425979 A    
C42   C54   1.411113 A    
C126  H38   1.083415 S    
C135  C155  1.400471 A    
N18   O83   1.300974 A    
N13   O74   1.300878 A    
C32   C46   1.407842 A    
C72   N24   1.434134 S    
C95   C107  1.397679 A    
C25   N5    1.376814 A    
C8    C192  1.438679 S    
C45   C69   1.418299 A    
C86   Cl14  1.766179 S    
C130  C142  1.401959 A    
C18   C36   1.407851 A    
H26   C160  1.083437 S    
O17   C9    1.285941 A    
C48   C56   1.411124 A    
C27   C41   1.407646 A    
C62   C65   1.407375 A    
C129  C157  1.400468 A    
C14   C110  1.473539 S    
O27   Cu7   1.953702 S    
O10   C6    1.284819 A    
C36   C60   1.415737 A    
N24   O96   1.300865 A    
C125  C145  1.400378 A    
C49   C56   1.412711 A    
C40   C64   1.418229 A    
N4    C117  1.479193 S    
C51   C54   1.412711 A    
C156  C168  1.401948 A    
O13   C5    1.284833 A    
N21   O90   1.300878 A    
O40   Cu10  1.940409 S    
C30   C48   1.417873 A    
C61   N13   1.434097 S    
C103  C111  1.397669 A    
O26   Cu6   1.952925 S    
O7    C3    1.284800 A    
C123  H35   1.083423 S    
C37   C51   1.411183 A    
C91   C105  1.397123 A    
C131  C143  1.401944 A    
N23   O93   1.301075 A    
O27   C13   1.287363 A    
C135  H47   1.083420 S    
C142  C174  1.443521 S    
O31   C15   1.285943 A    
C35   C59   1.418297 A    
O32   C16   1.287256 A    
C44   C68   1.415756 A    
O41   C205  1.292637 A    
C60   C71   1.407375 A    
C73   Cl1   1.766175 S    
Cu11  Cu12  2.663958 S    
C83   C117  1.425984 A    
C157  C165  1.401974 A    
H25   C157  1.083429 S    
C144  C176  1.443488 S    
N17   O81   1.301082 A    
H28   C158  1.083418 S    
C104  C112  1.397169 A    
O9    C5    1.284801 A    
C168  C184  1.443475 S    
C147  C163  1.401973 A    
O11   C7    1.284834 A    
C25   O57   1.347810 S    
N12   O71   1.301073 A    
O4    C4    1.284814 A    
C184  C192  1.208097 T    
N19   O86   1.300876 A    
N15   O77   1.301080 A    
C90   C106  1.397164 A    
O5    Cu3   1.939325 S    
O44   Cu11  1.938843 S    
C136  C142  1.401962 A    
O37   Cu10  1.939629 S    
C195  C202  1.438741 S    
C131  H43   1.083428 S    
N5    C116  1.479102 S    
N22   O91   1.301073 A    
C132  H44   1.083414 S    
C32   O64   1.344623 S    
C15   C111  1.473461 S    
C82   C98   1.396922 A    
C97   H9    1.083486 S    
C140  C172  1.443488 S    
C31   N7    1.376802 A    
C78   C116  1.427539 A    
C24   C38   1.407873 A    
C130  C160  1.400429 A    
O23   C11   1.285951 A    
C132  C158  1.400426 A    
C58   N10   1.434133 S    
C196  C203  1.438724 S    
N16   O79   1.300973 A    
C17   C35   1.417990 A    
C98   C110  1.397172 A    
C75   Cl3   1.766390 S    
O14   C8    1.284813 A    
C76   Cl4   1.766179 S    
N20   O87   1.301070 A    
C33   C57   1.415654 A    
O2    Cu2   1.939323 S    
C5    C189  1.438640 S    
C182  C190  1.208071 T    
C151  C163  1.401920 A    
C100  H12   1.083482 S    
O17   Cu1   1.953716 S    
C37   C61   1.418317 A    
C101  C111  1.397119 A    
O28   C14   1.286080 A    
O26   C14   1.287254 A    
O29   C15   1.287358 A    
C39   C63   1.415635 A    
O8    Cu4   1.939324 S    
O30   C16   1.286088 A    
C50   C55   1.412711 A    
C88   C120  1.426092 A    
C158  C168  1.401945 A    
C81   C117  1.427624 A    
C19   O51   1.344408 S    
C124  C150  1.400426 A    
C24   O56   1.344651 S    
C80   Cl8   1.766353 S    
C66   N18   1.434137 S    
C48   C72   1.418240 A    
C23   O55   1.347820 S    
O19   Cu3   1.953702 S    
C22   C40   1.417854 A    
N9    O66   1.300850 A    
C24   N4    1.373026 A    
C124  H36   1.083414 S    
C36   C50   1.409315 A    
H18   C152  1.083436 S    
H24   C146  1.083435 S    
C104  H16   1.084133 S    
C13   C109  1.473469 S    
C126  C148  1.400426 A    
O16   Cu8   1.939324 S    
C152  C162  1.401945 A    
C76   C114  1.427545 A    
N14   O76   1.300815 A    
O6    Cu2   1.939328 S    
C171  C195  1.208119 T    
C88   Cl16  1.766354 S    
O36   Cu9   1.938843 S    
C79   C95   1.400248 A    
C173  C197  1.208119 T    
C29   N7    1.372873 A    
C87   Cl15  1.766176 S    
O39   Cu10  1.939632 S    
C64   C67   1.409829 A    
C85   Cl13  1.766389 S    
C18   N2    1.373016 A    
C29   O61   1.344396 S    
O21   Cu3   1.953708 S    
C34   C58   1.418237 A    
C6    C190  1.438608 S    
C1    C185  1.438640 S    
C3    C187  1.438640 S    
C38   C62   1.415744 A    
C130  H42   1.083431 S    
N6    C115  1.479206 S    
O48   Cu12  1.940409 S    
O35   C203  1.292619 A    
N8    C113  1.479185 S    
C74   C114  1.426095 A    
O12   C8    1.284814 A    
O1    C1    1.284801 A    
H17   C149  1.083424 S    
C32   N8    1.373009 A    
C137  C169  1.443503 S    
C150  C164  1.401949 A    
C23   N3    1.376827 A    
C148  C164  1.401949 A    
C125  C137  1.401942 A    
C170  C194  1.208132 T    
C46   C70   1.415737 A    
O29   Cu7   1.953708 S    
C143  C175  1.443502 S    
N10   O67   1.300972 A    
C22   O54   1.347727 S    
C131  C159  1.400381 A    
H21   C145  1.083425 S    
C193  C204  1.438741 S    
C198  C205  1.438759 S    
C79   Cl7   1.766178 S    
C25   C43   1.418007 A    
C62   N14   1.435182 S    
C77   Cl5   1.766394 S    
C74   Cl2   1.766354 S    
C4    C188  1.438679 S    
C75   C113  1.425987 A    
C102  C112  1.397632 A    
O46   Cu12  1.938839 S    
C160  C166  1.401940 A    
O22   C12   1.286084 A    
C166  C182  1.443456 S    
N18   O84   1.300867 A    
N13   O73   1.300971 A    
C67   N19   1.434101 S    
C80   C116  1.426100 A    
O33   Cu9   1.939631 S    
C94   H6    1.083480 S    
O18   C10   1.287254 A    
C155  C167  1.401972 A    
O15   Cu5   1.939314 S    
C121  H33   1.083419 S    
C21   C39   1.407618 A    
C172  C196  1.208109 T    
C26   O58   1.344684 S    
O5    C1    1.284833 A    
N19   O85   1.300970 A    
C103  H15   1.083485 S    
C101  H13   1.084124 S    
C21   O53   1.344340 S    
C71   N23   1.435319 S    
C79   C115  1.427634 A    
C136  H48   1.083430 S    
N7    C114  1.479112 S    
H29   C153  1.083433 S    
C83   Cl11  1.766389 S    
O32   Cu8   1.952930 S    
C179  C187  1.208080 T    
C180  C188  1.208097 T    
C57   C70   1.407375 A    
H27   C159  1.083429 S    
C80   C96   1.396910 A    
C161  C177  1.443460 S    
O22   Cu2   1.954497 S    
C129  H41   1.083423 S    
O21   C11   1.287360 A    
C41   C53   1.409190 A    
O23   Cu1   1.953719 S    
C200  C207  1.438724 S    
C60   N12   1.435194 S    
O46   C206  1.292461 A    
H19   C151  1.083425 S    
C84   Cl12  1.766174 S    
C28   N6    1.376715 A    
C26   N6    1.373032 A    
C11   C107  1.473481 S    
C69   N21   1.434100 S    
C134  H46   1.083419 S    
N11   O69   1.300970 A    
O3    Cu3   1.939329 S    
C65   N17   1.435332 S    
C169  C193  1.208116 T    
O8    C2    1.284818 A    
N1    C120  1.479116 S    
C57   N9    1.435312 S    
C126  C140  1.401951 A    
O45   C207  1.292622 A    
C39   C51   1.409169 A    
C28   O60   1.347721 S    
C27   N5    1.372865 A    
C18   O50   1.344629 S    
O30   Cu6   1.954497 S    
C31   O63   1.347801 S    
C86   C102  1.400106 A    
C128  C146  1.400429 A    
C127  H39   1.083420 S    
N12   O72   1.300820 A    
O37   C203  1.292621 A    
C90   H2    1.084133 S    
O43   Cu11  1.939630 S    
C85   C119  1.425987 A    
H32   C154  1.083437 S    
C127  C147  1.400475 A    
O35   Cu9   1.939630 S    
O11   Cu7   1.939329 S    
C45   C55   1.411172 A    
N22   O92   1.300818 A    
O16   C6    1.284818 A    
C153  C165  1.401917 A    
C175  C199  1.208119 T    
C35   C49   1.411168 A    
C100  C110  1.397614 A    
C123  C139  1.401942 A    
C149  C161  1.401976 A    
O6    C4    1.284813 A    
C17   O49   1.347798 S    
N17   O82   1.300855 A    
N24   O95   1.300973 A    
O45   Cu12  1.939629 S    
C20   O52   1.347734 S    
C47   C71   1.415652 A    
O31   Cu5   1.953719 S    
N16   O80   1.300864 A    
H30   C156  1.083414 S    
C10   C106  1.473552 S    
C127  C139  1.401969 A    
C128  H40   1.083429 S    
C85   C101  1.396792 A    
O33   C201  1.292637 A    
C2    C186  1.438604 S    
C89   C105  1.397665 A    
H23   C147  1.083428 S    
C43   C53   1.411178 A    
C73   C89   1.400231 A    
O13   Cu7   1.939325 S    
C146  C162  1.401943 A    
O2    C2    1.284819 A    
O20   Cu4   1.954493 S    
C98   H10   1.084140 S    
C23   C37   1.418031 A    
C129  C141  1.401962 A    
O42   Cu11  1.940406 S    
C138  C170  1.443521 S    
N9    O65   1.301077 A    
C21   N3    1.372856 A    
O47   Cu12  1.939632 S    
C125  H37   1.083425 S    
O4    Cu4   1.939328 S    
O28   Cu8   1.954493 S    
C97   C109  1.397676 A    
C135  C143  1.401964 A    
C132  C144  1.401953 A    
O34   Cu9   1.940406 S    
C174  C198  1.208129 T    
C91   H3    1.084126 S    
C92   H4    1.083482 S    
C133  H45   1.083432 S    
O47   C205  1.292635 A    
C12   C108  1.473545 S    
C52   C53   1.412710 A    
O43   C207  1.292620 A    
C89   H1    1.083484 S    
C20   N2    1.376740 A    
C63   C68   1.407378 A    
O42   C206  1.292797 A    
C177  C185  1.208083 T    
C61   C66   1.409830 A    
C78   Cl6   1.766178 S    
C163  C179  1.443463 S    
C84   C100  1.400094 A    
N2    C119  1.479186 S    
H31   C155  1.083427 S    
C159  C167  1.401920 A    
C82   C118  1.426101 A    
C167  C183  1.443464 S    
C26   C44   1.407904 A    
O15   C7    1.284800 A    
C133  C153  1.400381 A    
O38   C202  1.292461 A    
C194  C201  1.438759 S    
C76   C92   1.400102 A    
C28   C42   1.417834 A    
C86   C120  1.427545 A    
Cu5   Cu7   2.642152 S    
O25   Cu5   1.953716 S    
Cu6   Cu8   2.642144 S    
C78   C94   1.400098 A    
C27   O59   1.344374 S    
C44   C54   1.409352 A    
O34   C202  1.292797 A    
C38   C52   1.409332 A    
O7    Cu1   1.939314 S    
C43   C67   1.418308 A    
C46   C56   1.409310 A    
C59   N11   1.434101 S    
O39   C201  1.292635 A    
C41   C65   1.415643 A    
C178  C186  1.208074 T    
N3    C118  1.479090 S    
C164  C180  1.443475 S    
C123  C151  1.400378 A    
C99   H11   1.084121 S    
C93   C107  1.397113 A    
N23   O94   1.300854 A    
C58   C69   1.409826 A    
N11   O70   1.300873 A    
O19   C9    1.287357 A    
C162  C178  1.443453 S    
C68   N20   1.435158 S    
O24   C12   1.287252 A    
C145  C161  1.401921 A    
N15   O78   1.300867 A    
C30   N8    1.376743 A    
H22   C148  1.083413 S    
N21   O89   1.300970 A    
O12   Cu8   1.939328 S    
O40   C204  1.292797 A    
O48   C208  1.292797 A    
C47   C55   1.409209 A    
O14   Cu6   1.939328 S    
N10   O68   1.300867 A    
C19   C33   1.407676 A    
C133  C141  1.401945 A    
C33   C49   1.409212 A    
C121  C149  1.400471 A    
O41   Cu11  1.939631 S    
C7    C191  1.438640 S    
C83   C99   1.396789 A    
C22   N4    1.376729 A    
C30   O62   1.347738 S    
C17   N1    1.376800 A    
C181  C189  1.208083 T    
C176  C200  1.208106 T    
C136  C154  1.400426 A    
C199  C206  1.438738 S    
C70   N22   1.435201 S    
C99   C109  1.397121 A    
Cu9   Cu10  2.663958 S    
O36   C204  1.292461 A    
C73   C113  1.427617 A    
C87   C103  1.400235 A    
C59   C72   1.409826 A    
C81   C97   1.400241 A    
C124  C140  1.401949 A    
C165  C181  1.443461 S    
C29   C47   1.407666 A    
O1    Cu1   1.939311 S    
C88   C104  1.396905 A    
C31   C45   1.417997 A    
O20   C10   1.286086 A    
N14   O75   1.301073 A    
N20   O88   1.300815 A    
C141  C173  1.443502 S    
C9    C105  1.473457 S    
O10   Cu6   1.939323 S    
C87   C119  1.427618 A    
O44   C208  1.292461 A    
C122  C152  1.400429 A    
O38   Cu10  1.938839 S    
O9    Cu5   1.939311 S    
C134  C156  1.400426 A    
C154  C166  1.401947 A    
C75   C91   1.396791 A    
C84   C118  1.427532 A    
C96   C108  1.397168 A    
C77   C93   1.396781 A    
C183  C191  1.208083 T    
