data_mof_unit_13897.cif
_audit_creation_date              2013-03-05T15:42:26-0500
_audit_creation_method            fapswitch 2.2
_symmetry_space_group_name_H-M    P1
_symmetry_Int_Tables_number       1
_space_group_crystal_system       triclinic
_cell_length_a                    10.944859
_cell_length_b                    10.95599
_cell_length_c                    18.823073
_cell_angle_alpha                 90.3714
_cell_angle_beta                  89.895252
_cell_angle_gamma                 60.466473
_cell_volume                      1963.76203321

loop_
_atom_site_label
_atom_site_type_symbol
_atom_site_description
_atom_site_fract_x
_atom_site_fract_y
_atom_site_fract_z
_atom_type_partial_charge
O1    O     O_R   0.507340 0.255690 0.581430 -0.528312
O2    O     O_R   0.280360 0.527380 0.578910 -0.515069
C1    C     C_R   0.240443 0.643904 0.611076 0.530957
O3    O     O_R   0.260600 0.739610 0.584580 -0.532409
O4    O     O_R   0.532370 0.695050 0.573830 -0.511824
C2    C     C_R   0.654229 0.623197 0.600397 0.536861
O5    O     O_R   0.744850 0.503430 0.576380 -0.530002
O6    O     O_R   0.699080 0.276500 0.571950 -0.511186
C3    C     C_R   0.627456 0.229870 0.603706 0.531262
O7    O     O_R   0.498860 0.256520 0.419860 -0.538202
O8    O     O_R   0.272490 0.528150 0.429140 -0.495190
C4    C     C_R   0.219187 0.652394 0.401739 0.545550
O9    O     O_R   0.252110 0.740440 0.423010 -0.531925
O10   O     O_R   0.524510 0.695820 0.424050 -0.492337
C5    C     C_R   0.643877 0.619702 0.391256 0.545032
O11   O     O_R   0.736370 0.504260 0.414810 -0.539574
O12   O     O_R   0.691220 0.277270 0.422180 -0.498499
C6    C     C_R   0.614787 0.227918 0.395190 0.548377
Cr1   Cr    Cr6+3 0.392940 0.397950 0.502230 0.998011
Cr2   Cr    Cr6+3 0.398400 0.708500 0.501260 0.998975
Cr3   Cr    Cr6+3 0.708640 0.393530 0.496460 0.995361
O13   O     O_3   0.499990 0.499990 0.499980 -0.239582
C7    C     C_3   0.583670 0.818588 0.779916 -0.228277
H1    H     H_    0.609931 0.903346 0.789662 0.146904
H2    H     H_    0.481080 0.850443 0.806370 0.123977
C8    C     C_3   0.569755 0.803967 0.699230 -0.242096
H3    H     H_    0.458945 0.835780 0.686898 0.127585
H4    H     H_    0.596144 0.876189 0.670162 0.118293
H5    H     H_    0.870308 0.716434 0.777679 0.123771
H6    H     H_    0.849483 0.684072 0.658937 0.110109
C9    C     C_3   0.838548 0.635035 0.770118 -0.223245
C10   C     C_3   0.657151 0.564271 0.799487 -0.247444
C11   C     C_3   0.700024 0.676986 0.811246 0.038170
H7    H     H_    0.741172 0.461882 0.818737 0.186305
H8    H     H_    0.559111 0.591407 0.829453 0.126257
C12   C     C_3   0.669978 0.650166 0.675580 0.058133
C13   C     C_3   0.821973 0.615531 0.690660 -0.246008
C14   C     C_3   0.635577 0.551056 0.719947 -0.221435
H9    H     H_    0.525352 0.576132 0.710599 0.133486
H10   H     H_    0.704279 0.440048 0.703184 0.150697
H11   H     H_    0.923735 0.534961 0.791090 0.176570
H12   H     H_    0.895605 0.504877 0.675291 0.148870
H13   H     H_    0.444427 0.249232 0.700624 0.170815
C15   C     C_R   0.687479 0.172351 0.827212 0.016202
C16   C     C_R   0.803571 0.155753 0.785031 -0.001419
C17   C     C_R   0.792799 0.149133 0.709461 -0.021143
C18   C     C_R   0.546458 0.218868 0.722227 -0.161291
C19   C     C_R   0.558808 0.214198 0.794582 -0.169722
C20   C     C_R   0.930514 0.142381 0.813770 0.232407
C21   C     C_R   0.047750 0.097914 0.769070 -0.124081
C22   C     C_R   0.039071 0.079742 0.696672 -0.180684
C23   C     C_R   0.913481 0.104822 0.666961 -0.103642
C24   C     C_R   0.661216 0.186657 0.678313 -0.008086
H14   H     H_    0.468518 0.231601 0.825344 0.152262
H15   H     H_    0.147276 0.078355 0.790105 0.119323
H16   H     H_    0.130335 0.047506 0.662981 0.110552
H17   H     H_    0.913350 0.085300 0.610609 0.139303
H18   H     H_    0.258710 0.818209 0.703148 0.135181
C25   C     C_R   0.194262 0.657390 0.837517 -0.009364
C26   C     C_R   0.197075 0.543907 0.799593 0.019796
C27   C     C_R   0.190079 0.548054 0.724212 0.018104
C28   C     C_R   0.231374 0.746747 0.728187 -0.157104
C29   C     C_R   0.222760 0.750963 0.801370 -0.160192
C30   C     C_R   0.206017 0.426837 0.835080 -0.094606
C31   C     C_R   0.195081 0.322766 0.798025 -0.140949
C32   C     C_R   0.171402 0.334800 0.725264 -0.167890
C33   C     C_R   0.167124 0.446997 0.688617 -0.119435
C34   C     C_R   0.207964 0.651928 0.687891 -0.000023
H19   H     H_    0.228732 0.410829 0.891228 0.139109
H20   H     H_    0.231712 0.832571 0.829607 0.150745
H21   H     H_    0.205263 0.233319 0.826569 0.148282
H22   H     H_    0.158495 0.256231 0.696640 0.117115
H23   H     H_    0.142137 0.453920 0.632900 0.137774
H24   H     H_    0.536255 0.867226 0.321256 0.123689
C35   C     C_R   0.650938 0.675025 0.168252 -0.010545
C36   C     C_R   0.713474 0.539927 0.196765 0.020524
C37   C     C_R   0.745568 0.524362 0.269575 0.040052
C38   C     C_R   0.591327 0.775682 0.287230 -0.148483
C39   C     C_R   0.594753 0.792310 0.214156 -0.146293
C40   C     C_R   0.766394 0.420428 0.152005 -0.077839
C41   C     C_R   0.877026 0.294208 0.174225 -0.105379
C42   C     C_R   0.925112 0.282194 0.243211 -0.153829
C43   C     C_R   0.860580 0.394195 0.290752 -0.091157
C44   C     C_R   0.666206 0.641961 0.316233 0.003343
H25   H     H_    0.731776 0.428093 0.097495 0.142893
H26   H     H_    0.555548 0.897163 0.193673 0.146544
H27   H     H_    0.926684 0.206259 0.137665 0.144985
H28   H     H_    0.010968 0.184792 0.260625 0.111047
H29   H     H_    0.911892 0.377970 0.341332 0.138088
H30   H     H_    0.857929 0.084172 0.324559 0.117302
C45   C     C_R   0.657024 0.154088 0.176815 -0.000439
C46   C     C_R   0.522823 0.216109 0.207245 0.018918
C47   C     C_R   0.512938 0.201781 0.280518 0.039278
C48   C     C_R   0.765078 0.114834 0.292644 -0.157993
C49   C     C_R   0.777406 0.096507 0.220188 -0.141452
C50   C     C_R   0.399828 0.277815 0.165454 -0.085454
C51   C     C_R   0.273966 0.297124 0.192817 -0.118698
C52   C     C_R   0.265931 0.267525 0.263495 -0.145331
C53   C     C_R   0.383718 0.217925 0.306748 -0.085562
C54   C     C_R   0.633418 0.171403 0.323493 0.007032
H31   H     H_    0.401627 0.305696 0.110547 0.129916
H32   H     H_    0.882532 0.038110 0.198218 0.154871
H33   H     H_    0.182823 0.334458 0.158997 0.128140
H34   H     H_    0.167788 0.283469 0.285246 0.095408
H35   H     H_    0.372095 0.185019 0.359023 0.135592
H36   H     H_    0.079805 0.537942 0.332475 0.120477
C55   C     C_R   0.147457 0.670107 0.183834 -0.004111
C56   C     C_R   0.208171 0.743991 0.215123 0.024749
C57   C     C_R   0.182582 0.776366 0.287242 0.040890
C58   C     C_R   0.107798 0.601952 0.300109 -0.151178
C59   C     C_R   0.091223 0.605032 0.226956 -0.141006
C60   C     C_R   0.272942 0.804901 0.174478 -0.075929
C61   C     C_R   0.284069 0.917073 0.201642 -0.112648
C62   C     C_R   0.243303 0.960653 0.271169 -0.145798
C63   C     C_R   0.187018 0.896126 0.312567 -0.087687
C64   C     C_R   0.156776 0.685261 0.331003 -0.000279
H37   H     H_    0.306240 0.772154 0.120112 0.126971
H38   H     H_    0.033300 0.557835 0.204316 0.146384
H39   H     H_    0.322406 0.971369 0.168456 0.127408
H40   H     H_    0.253220 0.045609 0.293540 0.101046
H41   H     H_    0.144009 0.943959 0.363658 0.128509
O14   O     O_R   0.089570 0.825450 0.930590 -0.489323
O15   O     O_R   0.818700 0.054260 0.929860 -0.436832
C65   C     C_R   0.702399 0.105094 0.896895 0.564471
O16   O     O_R   0.606310 0.077010 0.915520 -0.545304
O17   O     O_R   0.646730 0.806540 0.917560 -0.513062
C66   C     C_R   0.724853 0.689174 0.887583 0.552195
O18   O     O_R   0.837290 0.593240 0.915240 -0.483693
O19   O     O_R   0.065320 0.635310 0.931580 -0.519136
C67   C     C_R   0.122026 0.703429 0.906780 0.521672
O20   O     O_R   0.068470 0.828620 0.091850 -0.526695
O21   O     O_R   0.799150 0.057200 0.079350 -0.505682
C68   C     C_R   0.676377 0.106391 0.103985 0.530622
O22   O     O_R   0.585220 0.080180 0.076770 -0.528405
O23   O     O_R   0.627170 0.809480 0.067050 -0.506755
C69   C     C_R   0.694564 0.690881 0.097146 0.532259
O24   O     O_R   0.816200 0.596410 0.076500 -0.507299
O25   O     O_R   0.045770 0.638240 0.081070 -0.513319
C70   C     C_R   0.094026 0.708287 0.112401 0.521194
Cr4   Cr    Cr6+3 0.937880 0.938320 0.007620 1.089189
Cr5   Cr    Cr6+3 0.625560 0.937220 0.994510 1.014331
Cr6   Cr    Cr6+3 0.938080 0.625010 0.001190 1.040421
O26   O     O_3   0.833840 0.833520 0.001110 -0.264187
N1    N     N_R   0.939156 0.188616 0.884570 0.084087
O27   O     O_R   0.830059 0.292436 0.914819 -0.377195
O28   O     O_R   0.059592 0.135513 0.916758 -0.374758

loop_
_geom_bond_atom_site_label_1
_geom_bond_atom_site_label_2
_geom_bond_distance
_ccdc_geom_bond_type
H18   C28   1.076955 S    
C15   C19   1.393189 A    
O24   Cr6   2.073172 S    
C25   C67   1.474381 S    
O17   C66   1.268001 A    
C63   H41   1.081530 S    
C1    C34   1.479986 S    
Cr4   O26   1.979303 S    
C11   C66   1.480225 S    
C51   C52   1.384220 A    
O23   C69   1.272611 A    
O4    Cr2   1.958200 S    
C16   C17   1.431861 A    
C19   H14   1.076537 S    
O8    Cr1   1.960522 S    
C8    H3    1.109760 S    
O11   Cr3   2.076389 S    
C59   H38   1.082692 S    
O4    C2    1.273210 A    
C12   C13   1.540401 S    
C61   C62   1.385454 A    
Cr5   O26   1.988049 S    
C60   H37   1.083392 S    
C42   H28   1.070653 S    
C37   C43   1.420086 A    
C5    O11   1.252071 A    
C52   C53   1.392488 A    
C20   N1    1.442379 S    
C17   C23   1.406857 A    
C46   C50   1.414756 A    
C56   C57   1.393371 A    
C22   H16   1.082420 S    
C7    C8    1.541818 S    
C13   H12   1.110987 S    
C58   C59   1.387655 A    
O20   Cr4   2.083392 S    
C57   C64   1.429094 A    
C61   H39   1.081696 S    
C32   H22   1.079530 S    
O16   Cr5   2.076831 S    
O6    C3    1.276665 A    
C7    C11   1.563076 S    
C55   C56   1.403293 A    
C9    C11   1.553490 S    
C33   H23   1.078006 S    
C10   C14   1.533126 S    
H13   C18   1.077144 S    
C47   C53   1.423018 A    
C49   H32   1.083191 S    
C18   C24   1.393123 A    
C7    H2    1.113505 S    
C32   C33   1.394052 A    
C25   C26   1.416701 A    
C50   H31   1.082488 S    
C6    C54   1.452578 S    
C53   H35   1.078757 S    
C60   C61   1.387891 A    
C26   C30   1.410117 A    
H30   C48   1.083860 S    
C2    O5    1.271816 A    
C43   H29   1.076642 S    
O1    Cr1   2.081450 S    
C22   C23   1.382081 A    
C10   H8    1.113123 S    
O10   Cr2   1.958973 S    
O15   C65   1.274337 A    
Cr1   O13   1.978919 S    
O1    C3    1.273208 A    
C36   C37   1.405887 A    
N1    O28   1.301750 A    
O25   Cr6   1.960380 S    
C45   C46   1.398270 A    
C38   C39   1.391521 A    
O21   C68   1.261596 A    
O19   Cr6   1.954258 S    
C37   C44   1.437023 A    
C21   C22   1.386129 A    
O5    Cr3   2.078222 S    
O15   Cr4   1.963401 S    
C15   C65   1.478092 S    
C41   C42   1.384530 A    
C56   C60   1.415710 A    
H6    C13   1.113193 S    
C26   C27   1.420926 A    
C10   H7    1.106718 S    
C35   C36   1.400064 A    
C40   H25   1.083758 S    
C38   C44   1.394401 A    
C27   C33   1.415310 A    
C18   C19   1.367678 A    
C45   C68   1.441446 S    
C29   H20   1.082547 S    
C48   C54   1.381872 A    
O7    Cr1   2.083310 S    
C7    H1    1.113421 S    
C50   C51   1.384324 A    
C28   C29   1.379495 A    
O12   C6    1.301611 A    
C51   H33   1.082179 S    
C30   H19   1.081641 S    
C47   C54   1.441747 A    
C41   H27   1.082209 S    
C8    C12   1.551464 S    
Cr2   O13   1.987603 S    
C42   C43   1.390831 A    
C68   O22   1.273864 A    
C25   C29   1.390941 A    
C3    C24   1.473390 S    
C66   O18   1.274519 A    
C58   C64   1.391119 A    
C15   C16   1.429885 A    
O19   C67   1.272862 A    
H36   C58   1.083288 S    
C9    H11   1.107429 S    
O9    Cr2   2.078084 S    
O2    Cr1   1.963856 S    
C35   C69   1.460148 S    
C55   C59   1.408622 A    
C36   C40   1.412701 A    
C40   C41   1.382746 A    
O6    Cr3   1.956882 S    
C23   H17   1.080848 S    
O8    C4    1.298690 A    
C62   C63   1.386091 A    
C5    C44   1.474904 S    
O21   Cr4   1.960836 S    
O17   Cr5   1.961210 S    
C8    H4    1.113220 S    
C21   H15   1.077865 S    
C28   C34   1.404658 A    
N1    O27   1.301496 A    
C10   C11   1.536965 S    
C12   C14   1.559447 S    
O2    C1    1.275307 A    
O14   Cr4   2.081298 S    
H5    C9    1.113811 S    
C31   H21   1.077420 S    
C30   C31   1.387586 A    
O22   Cr5   2.080848 S    
C14   H10   1.112070 S    
C27   C34   1.424815 A    
C14   H9    1.111976 S    
C35   C39   1.407328 A    
O7    C6    1.235987 A    
C52   H34   1.079095 S    
C17   C24   1.417513 A    
C46   C47   1.399154 A    
C2    C12   1.471535 S    
C16   C20   1.430930 A    
C31   C32   1.389352 A    
C55   C70   1.447027 S    
C48   C49   1.373928 A    
O12   Cr3   1.957289 S    
O20   C70   1.268631 A    
O25   C70   1.269084 A    
C57   C63   1.416309 A    
C45   C49   1.411255 A    
O3    Cr2   2.080423 S    
C9    C13   1.533144 S    
O23   Cr5   1.955477 S    
C4    O9    1.248539 A    
C20   C21   1.402211 A    
H24   C38   1.083367 S    
Cr6   O26   1.987680 S    
O10   C5    1.303687 A    
C69   O24   1.276357 A    
Cr3   O13   1.988055 S    
O18   Cr6   2.081642 S    
O14   C67   1.279736 A    
C39   H26   1.082977 S    
C62   H40   1.072441 S    
C1    O3    1.277229 A    
C65   O16   1.281671 A    
C4    C64   1.461543 S    
