data_mof_unit_57960.cif
_audit_creation_date              2012-12-11T14:39:38-0500
_audit_creation_method            fapswitch 2.2
_symmetry_space_group_name_H-M    P1
_symmetry_Int_Tables_number       1
_space_group_crystal_system       monoclinic
_cell_length_a                    7.224036
_cell_length_b                    14.051408
_cell_length_c                    16.361545
_cell_angle_alpha                 90.0
_cell_angle_beta                  97.586292
_cell_angle_gamma                 90.0
_cell_volume                      1646.28875008

loop_
_atom_site_label
_atom_site_type_symbol
_atom_type_description
_atom_site_fract_x
_atom_site_fract_y
_atom_site_fract_z
_atom_type_partial_charge
O1    O     O_R   0.525340 0.338340 0.164530 -0.537887
O2    O     O_R   0.474660 0.661660 0.835470 -0.537887
O3    O     O_R   0.974660 0.838340 0.835470 -0.537886
O4    O     O_R   0.025340 0.161660 0.164530 -0.537886
O5    O     O_R   0.253520 0.352000 0.336710 -0.518585
O6    O     O_R   0.746480 0.648000 0.663290 -0.518584
O7    O     O_R   0.246480 0.852000 0.663290 -0.518585
O8    O     O_R   0.753520 0.148000 0.336710 -0.518585
O9    O     O_R   0.083330 0.168380 0.337300 -0.492307
O10   O     O_R   0.916670 0.831620 0.662700 -0.492306
O11   O     O_R   0.416670 0.668380 0.662700 -0.492308
O12   O     O_R   0.583330 0.331620 0.337300 -0.492308
C1    C     C_R   0.432891 0.367348 0.364829 0.913501
C2    C     C_R   0.567109 0.632652 0.635171 0.913501
C3    C     C_R   0.067109 0.867348 0.635171 0.913499
C4    C     C_R   0.932890 0.132652 0.364829 0.913499
O13   O     O_R   0.195840 0.349670 0.165140 -0.557591
O14   O     O_R   0.804160 0.650330 0.834860 -0.557591
O15   O     O_R   0.304160 0.849670 0.834860 -0.557591
O16   O     O_R   0.695840 0.150330 0.165140 -0.557592
C5    C     C_R   0.356772 0.371402 0.137176 0.803486
C6    C     C_R   0.643228 0.628598 0.862824 0.803486
C7    C     C_R   0.143228 0.871402 0.862824 0.803485
C8    C     C_R   0.856772 0.128598 0.137176 0.803485
O17   O     O_3   0.387830 0.193120 0.250910 -0.372078
O18   O     O_3   0.612170 0.806880 0.749090 -0.372078
O19   O     O_3   0.112170 0.693120 0.749090 -0.372078
O20   O     O_3   0.887830 0.306880 0.250910 -0.372078
V1    V     V_3+5 0.113010 0.264540 0.250910 1.580436
V2    V     V_3+5 0.886990 0.735460 0.749090 1.580436
V3    V     V_3+5 0.386990 0.764540 0.749090 1.580434
V4    V     V_3+5 0.613010 0.235460 0.250910 1.580434
H1    H     H_    0.034240 0.816568 0.255329 0.160820
H2    H     H_    0.965760 0.183432 0.744671 0.160820
H3    H     H_    0.465767 0.316568 0.744671 0.160820
H4    H     H_    0.534233 0.683432 0.255329 0.160820
C9    C     C_R   0.959612 0.199007 0.537891 0.253558
C10   C     C_R   0.040388 0.800993 0.462109 0.253558
C11   C     C_R   0.540386 0.699007 0.462109 0.253557
C12   C     C_R   0.459614 0.300993 0.537891 0.253557
C13   C     C_R   0.954577 0.226466 0.619328 -0.210304
C14   C     C_R   0.045423 0.773534 0.380672 -0.210304
C15   C     C_R   0.545419 0.726467 0.380672 -0.210304
C16   C     C_R   0.454581 0.273533 0.619328 -0.210304
C17   C     C_R   0.970187 0.160299 0.681816 -0.216534
C18   C     C_R   0.029813 0.839700 0.318184 -0.216534
C19   C     C_R   0.529808 0.660300 0.318183 -0.216535
C20   C     C_R   0.470192 0.339700 0.681817 -0.216535
C21   C     C_R   0.994574 0.064939 0.664947 0.578671
C22   C     C_R   0.005426 0.935061 0.335053 0.578671
C23   C     C_R   0.505422 0.564940 0.335053 0.578671
C24   C     C_R   0.494578 0.435060 0.664947 0.578671
C25   C     C_R   0.000090 0.032089 0.582674 -0.066906
C26   C     C_R   0.999910 0.967911 0.417326 -0.066906
C27   C     C_R   0.499908 0.532089 0.417326 -0.066906
C28   C     C_R   0.500092 0.467910 0.582674 -0.066906
C29   C     C_R   0.976382 0.099806 0.516906 -0.018702
C30   C     C_R   0.023618 0.900194 0.483094 -0.018702
C31   C     C_R   0.523617 0.599806 0.483094 -0.018702
C32   C     C_R   0.476383 0.400194 0.516906 -0.018702
C33   C     C_R   0.028555 0.933904 0.565710 -0.096723
C34   C     C_R   0.971445 0.066096 0.434290 -0.096723
C35   C     C_R   0.471445 0.433904 0.434290 -0.096723
C36   C     C_R   0.528555 0.566096 0.565710 -0.096723
H5    H     H_    0.940063 0.300804 0.634926 0.181287
H6    H     H_    0.059937 0.699196 0.365074 0.181287
H7    H     H_    0.559933 0.800804 0.365073 0.181287
H8    H     H_    0.440067 0.199196 0.634926 0.181287
H9    H     H_    0.137950 0.066145 0.056963 0.151129
H10   H     H_    0.862050 0.933855 0.943037 0.151129
H11   H     H_    0.362050 0.566145 0.943037 0.151129
H12   H     H_    0.637950 0.433855 0.056962 0.151129
C37   C     C_2   0.150434 0.941489 0.931191 -0.282130
C38   C     C_2   0.849566 0.058510 0.068808 -0.282130
C39   C     C_2   0.349566 0.441490 0.068809 -0.282129
C40   C     C_2   0.650434 0.558510 0.931191 -0.282129
C41   C     C_2   0.996362 0.965526 0.965550 -0.115494
C42   C     C_2   0.003638 0.034474 0.034450 -0.115493
C43   C     C_2   0.503638 0.465526 0.034449 -0.115494
C44   C     C_2   0.496362 0.534474 0.965550 -0.115494
H13   H     H_    0.715672 0.026826 0.045598 0.113650
H14   H     H_    0.284328 0.973173 0.954401 0.113650
H15   H     H_    0.784328 0.526826 0.954401 0.113650
H16   H     H_    0.215672 0.473174 0.045599 0.113650
Br1   Br    Br    0.953922 0.308133 0.466224 -0.527856
Br2   Br    Br    0.046078 0.691867 0.533776 -0.527856
Br3   Br    Br    0.546078 0.808133 0.533776 -0.527856
Br4   Br    Br    0.453922 0.191867 0.466224 -0.527856
F1    F     F_    0.009781 0.006194 0.731040 -0.723438
F2    F     F_    0.990219 0.993805 0.268960 -0.723438
F3    F     F_    0.490214 0.506195 0.268960 -0.723439
F4    F     F_    0.509786 0.493805 0.731040 -0.723439

loop_
_geom_bond_atom_site_label_1
_geom_bond_atom_site_label_2
_ccdc_geom_bond_type
O1    C5    A    
C12   C32   A    
C27   C31   A    
O13   V1    S    
O3    C7    A    
C6    C40   S    
O15   V3    S    
C29   C34   A    
C41   C42   S    
C31   C36   A    
C22   C26   A    
C10   Br2   S    
C32   C35   A    
C9    Br1   S    
O20   V1    S    
O9    C4    A    
C10   C14   A    
H12   C43   S    
O10   C3    A    
C26   C30   A    
O4    C8    A    
O11   C2    A    
C39   H16   S    
H4    C19   S    
C14   C18   A    
C23   F3    S    
C10   C30   A    
C25   C33   A    
C22   F2    S    
O16   C8    A    
C27   C35   A    
O2    C6    A    
C28   C36   A    
O14   V2    S    
C11   Br3   S    
O5    C1    A    
O4    V1    S    
O9    V1    S    
C30   C33   A    
O7    C3    A    
O11   V3    S    
O18   V3    S    
O8    C4    A    
O12   V4    S    
O19   V2    S    
C9    C13   A    
H1    C18   S    
H9    C42   S    
C4    C34   S    
C7    C37   S    
H3    C20   S    
C40   H15   S    
H11   C44   S    
O5    V1    S    
O7    V3    S    
O8    V4    S    
C25   C29   A    
C19   C23   A    
C26   C34   A    
O1    V4    S    
O13   C5    A    
C28   C32   A    
O2    V3    S    
O3    V2    S    
O15   C7    A    
O6    C2    A    
O10   V2    S    
C1    C35   S    
C17   C21   A    
C11   C31   A    
C3    C33   S    
H2    C17   S    
C2    C36   S    
O6    V2    S    
C16   H8    S    
C38   H13   S    
C37   H14   S    
O16   V4    S    
C5    C39   S    
C37   C41   D    
O14   C6    A    
C40   C44   D    
C21   F1    S    
C11   C15   A    
C18   C22   A    
C12   Br4   S    
C8    C38   S    
C39   C43   D    
O17   V4    S    
C21   C25   A    
C23   C27   A    
C13   H5    S    
C24   F4    S    
C43   C44   S    
C16   C20   A    
C12   C16   A    
O12   C1    A    
C15   H7    S    
C38   C42   D    
C14   H6    S    
C13   C17   A    
C20   C24   A    
C15   C19   A    
C9    C29   A    
C24   C28   A    
H10   C41   S    
