data_mof_unit_36552.cif
_audit_creation_date              2012-12-11T17:43:58-0500
_audit_creation_method            fapswitch 2.2
_symmetry_space_group_name_H-M    P1
_symmetry_Int_Tables_number       1
_space_group_crystal_system       triclinic
_cell_length_a                    20.307129
_cell_length_b                    22.679015
_cell_length_c                    6.937503
_cell_angle_alpha                 89.999477
_cell_angle_beta                  86.348186
_cell_angle_gamma                 89.99998
_cell_volume                      3188.54965515

loop_
_atom_site_label
_atom_site_type_symbol
_atom_type_description
_atom_site_fract_x
_atom_site_fract_y
_atom_site_fract_z
_atom_type_partial_charge
O1    O     O_R   0.751270 0.447300 0.600030 -0.537354
O2    O     O_R   0.248730 0.947300 0.399970 -0.537356
O3    O     O_R   0.613530 0.440160 0.952150 -0.542929
O4    O     O_R   0.386470 0.940160 0.047850 -0.542953
O5    O     O_R   0.613050 0.552700 0.122560 -0.537247
O6    O     O_R   0.386950 0.052700 0.877440 -0.537257
C1    C     C_R   0.591849 0.425042 0.787124 0.678957
C2    C     C_R   0.408150 0.925041 0.212878 0.678979
O7    O     O_R   0.750780 0.440350 0.929820 -0.548753
O8    O     O_R   0.249220 0.940350 0.070180 -0.548755
O9    O     O_R   0.751280 0.552900 0.100070 -0.515918
O10   O     O_R   0.248720 0.052900 0.899930 -0.515922
C3    C     C_R   0.774142 0.426511 0.756508 0.735288
C4    C     C_R   0.225857 0.926511 0.243492 0.735292
O11   O     O_R   0.613040 0.447100 0.622520 -0.534967
O12   O     O_R   0.386960 0.947100 0.377480 -0.534944
O13   O     O_3   0.682160 0.536920 0.777780 -0.347608
O14   O     O_3   0.317840 0.036920 0.222220 -0.347607
V1    V     V_3+5 0.682160 0.493150 0.052630 1.467243
V2    V     V_3+5 0.317840 0.993150 0.947370 1.467199
O15   O     O_R   0.750790 0.559840 0.429870 -0.524737
O16   O     O_R   0.249210 0.059840 0.570130 -0.524735
C5    C     C_R   0.774569 0.573431 0.256272 0.722130
C6    C     C_R   0.225431 0.073430 0.743727 0.722132
O17   O     O_R   0.613540 0.559650 0.452200 -0.540760
O18   O     O_R   0.386460 0.059650 0.547800 -0.540747
C7    C     C_R   0.591649 0.574513 0.287658 0.693295
C8    C     C_R   0.408351 0.074513 0.712340 0.693303
V3    V     V_3+5 0.682160 0.506850 0.552630 1.489198
V4    V     V_3+5 0.317840 0.006850 0.447370 1.489222
O19   O     O_3   0.682150 0.463080 0.277610 -0.377217
O20   O     O_3   0.317850 0.963080 0.722390 -0.377222
C9    C     C_R   0.582226 0.864837 0.238098 -0.068699
C10   C     C_R   0.417765 0.364832 0.762135 -0.068694
H1    H     H_    0.673342 0.776470 0.206840 0.117158
H2    H     H_    0.326660 0.276459 0.793511 0.117155
C11   C     C_R   0.464198 0.883000 0.213566 -0.254202
C12   C     C_R   0.535803 0.382999 0.786447 -0.254202
C13   C     C_R   0.473514 0.596770 0.339820 -0.180892
C14   C     C_R   0.526479 0.096777 0.660034 -0.180905
C15   C     C_R   0.421983 0.635612 0.385686 -0.077532
C16   C     C_R   0.578001 0.135624 0.614109 -0.077537
C17   C     C_R   0.431965 0.696882 0.379550 0.008939
C18   C     C_R   0.568015 0.196894 0.620307 0.008935
C19   C     C_R   0.493290 0.719832 0.299082 0.038396
C20   C     C_R   0.506703 0.219835 0.700899 0.038406
C21   C     C_R   0.547477 0.679621 0.273072 0.055528
C22   C     C_R   0.452522 0.179619 0.726980 0.055530
C23   C     C_R   0.504335 0.781494 0.257467 0.037803
C24   C     C_R   0.495662 0.281494 0.742569 0.037791
C25   C     C_R   0.570121 0.803166 0.244962 -0.068717
C26   C     C_R   0.429874 0.303162 0.755212 -0.068721
C27   C     C_R   0.622633 0.762437 0.230978 -0.156777
C28   C     C_R   0.377366 0.262430 0.769269 -0.156781
C29   C     C_R   0.611303 0.702075 0.236403 -0.154938
C30   C     C_R   0.388700 0.202068 0.763780 -0.154958
C31   C     C_R   0.452790 0.821072 0.214160 0.225693
C32   C     C_R   0.547215 0.321072 0.785801 0.225709
C33   C     C_R   0.529108 0.904698 0.229653 0.337220
C34   C     C_R   0.470885 0.404696 0.770487 0.337222
C35   C     C_R   0.537014 0.617851 0.292604 -0.102294
C36   C     C_R   0.462986 0.117852 0.707379 -0.102306
H3    H     H_    0.464806 0.549813 0.355871 0.150477
H4    H     H_    0.535187 0.049822 0.643924 0.150519
H5    H     H_    0.375174 0.617365 0.440542 0.184476
H6    H     H_    0.624801 0.117384 0.559156 0.184488
H7    H     H_    0.653600 0.673055 0.218107 0.101512
H8    H     H_    0.346407 0.173045 0.782134 0.101534
C37   C     C_R   0.169810 0.884280 0.266225 -0.037120
C38   C     C_R   0.830190 0.384280 0.733776 -0.037124
C39   C     C_R   0.152170 0.848790 0.112263 -0.216353
C40   C     C_R   0.847831 0.348791 0.887739 -0.216359
C41   C     C_R   0.099353 0.809254 0.136075 -0.162848
C42   C     C_R   0.900648 0.309255 0.863928 -0.162850
C43   C     C_R   0.061680 0.804733 0.314425 0.418569
C44   C     C_R   0.938321 0.304733 0.685576 0.418565
C45   C     C_R   0.079420 0.840601 0.470330 -0.054688
C46   C     C_R   0.920580 0.340603 0.529672 -0.054691
C47   C     C_R   0.133096 0.879586 0.444345 -0.266766
C48   C     C_R   0.866904 0.379587 0.555657 -0.266761
C49   C     C_R   0.889795 0.699066 0.377837 0.383712
C50   C     C_R   0.110204 0.199066 0.622159 0.383710
C51   C     C_R   0.837290 0.658054 0.384639 -0.303742
C52   C     C_R   0.162709 0.158054 0.615357 -0.303736
C53   C     C_R   0.937313 0.698148 0.218546 0.394806
C54   C     C_R   0.062686 0.198147 0.781453 0.394803
N1    N     N_2   0.006462 0.765478 0.341349 -0.161080
N2    N     N_2   0.993539 0.265479 0.658652 -0.161079
N3    N     N_2   0.992317 0.737639 0.194258 -0.272699
N4    N     N_2   0.007683 0.237639 0.805741 -0.272700
C55   C     C_R   0.830078 0.616788 0.235928 -0.117659
C56   C     C_R   0.169921 0.116787 0.764070 -0.117665
H9    H     H_    0.801189 0.658914 0.506522 0.166499
H10   H     H_    0.198810 0.158914 0.493473 0.166501
H11   H     H_    0.145930 0.906964 0.564461 0.124644
H12   H     H_    0.854070 0.406966 0.435540 0.124646
C57   C     C_R   0.877316 0.617143 0.075602 -0.043846
C58   C     C_R   0.122684 0.117142 0.924397 -0.043848
C59   C     C_R   0.929923 0.657235 0.070747 -0.287344
C60   C     C_R   0.070078 0.157235 0.929254 -0.287345
H13   H     H_    0.088183 0.782232 0.013866 0.170048
H14   H     H_    0.911818 0.282232 0.986137 0.170052
H15   H     H_    0.966044 0.656857 0.948577 0.170223
H16   H     H_    0.033958 0.156856 0.051424 0.170222
H17   H     H_    0.179565 0.851161 0.973315 0.140887
H18   H     H_    0.820437 0.351161 0.026688 0.140896
O21   O     O_3   0.542980 0.964511 0.237618 -0.608954
H19   H     H_    0.504089 0.988410 0.209344 0.285972
O22   O     O_3   0.457004 0.464508 0.762575 -0.608937
H20   H     H_    0.495919 0.488412 0.790582 0.285968
O23   O     O_3   0.894326 0.740355 0.522725 -0.588297
H21   H     H_    0.857778 0.734304 0.622520 0.305353
O24   O     O_3   0.105672 0.240355 0.477269 -0.588296
H22   H     H_    0.142219 0.234304 0.377473 0.305353
C61   C     C_2   0.043265 0.839572 0.663398 0.426642
H23   H     H_    0.055934 0.871148 0.772702 0.024448
O25   O     O_2   0.999790 0.803766 0.704691 -0.477792
C62   C     C_2   0.956734 0.339574 0.336602 0.426641
H24   H     H_    0.944065 0.371150 0.227298 0.024448
O26   O     O_2   0.000209 0.303768 0.295309 -0.477792
C63   C     C_2   0.876446 0.575131 0.913115 0.383114
H25   H     H_    0.917816 0.545452 0.884343 0.036347
O27   O     O_2   0.832239 0.576332 0.802052 -0.517767
C64   C     C_2   0.123555 0.075129 0.086884 0.383116
H26   H     H_    0.082186 0.045449 0.115654 0.036346
O28   O     O_2   0.167761 0.076331 0.197951 -0.517768
C65   C     C_2   0.650413 0.888470 0.249044 0.507515
H27   H     H_    0.686168 0.865293 0.330578 0.017278
O29   O     O_2   0.667532 0.934058 0.166641 -0.475867
C66   C     C_2   0.349571 0.388462 0.751343 0.507532
H28   H     H_    0.313797 0.365289 0.669867 0.017276
O30   O     O_2   0.332467 0.434043 0.833811 -0.475866
O31   O     O_3   0.393800 0.797574 0.159742 -0.640059
H29   H     H_    0.364764 0.828883 0.113980 0.291743
O32   O     O_3   0.606220 0.297572 0.840105 -0.640040
H30   H     H_    0.635266 0.328880 0.885817 0.291733
C67   C     C_2   0.382790 0.734369 0.490419 0.486588
H31   H     H_    0.396510 0.777747 0.540166 0.039001
O33   O     O_2   0.326654 0.716923 0.530172 -0.512319
C68   C     C_2   0.617166 0.234390 0.509378 0.486589
H32   H     H_    0.603432 0.277770 0.459683 0.038999
O34   O     O_2   0.673298 0.216950 0.469517 -0.512313

loop_
_geom_bond_atom_site_label_1
_geom_bond_atom_site_label_2
_ccdc_geom_bond_type
C59   H15   S    
C5    C55   S    
H1    C27   S    
O13   V3    S    
C27   C29   A    
O23   H21   S    
C9    C65   S    
O4    C2    A    
V1    O19   S    
C56   C58   A    
O32   H30   S    
C13   C15   A    
C58   C64   S    
C67   O33   D    
O9    V1    S    
C42   C44   A    
C64   O28   D    
C46   C62   S    
C44   C46   A    
O5    V1    S    
O3    C1    A    
C46   C48   A    
C3    C38   S    
O12   V4    S    
C61   H23   S    
C51   H9    S    
C60   H16   S    
C23   C31   A    
O9    C5    A    
C37   C39   A    
O7    C3    A    
C62   H24   S    
C57   C63   S    
C34   O22   S    
C7    C35   S    
C57   C59   A    
O5    C7    A    
O7    V1    S    
O6    C8    A    
C49   O23   S    
C18   C20   A    
C61   O25   D    
C24   C26   A    
O21   H19   S    
O3    V1    S    
O14   V4    S    
C48   H12   S    
C54   C60   A    
C44   N2    S    
C42   H14   S    
C45   C47   A    
C9    C33   A    
C14   C36   A    
C2    O12   A    
C12   C32   A    
C10   C34   A    
C15   C17   A    
C31   O31   S    
C16   C18   A    
C6    C56   S    
C49   C51   A    
C26   C28   A    
O11   V3    S    
C20   C22   A    
C19   C21   A    
O17   V3    S    
C13   C35   A    
C28   C30   A    
C38   C48   A    
C24   C32   A    
C68   H32   S    
C40   C42   A    
C54   N4    S    
O8    V2    S    
C39   C41   A    
C53   N3    S    
C15   H5    S    
C23   C25   A    
C50   C54   A    
O15   V3    S    
C33   O21   S    
C25   C27   A    
C66   O30   D    
C65   O29   D    
C47   H11   S    
C53   C59   A    
C17   C19   A    
C22   C36   A    
C19   C23   A    
O10   V2    S    
O1    V3    S    
C52   H10   S    
C55   C57   A    
C43   C45   A    
C63   H25   S    
C11   C33   A    
C12   C34   A    
C43   N1    S    
C40   H18   S    
O18   V4    S    
C50   C52   A    
C39   H17   S    
O8    C4    A    
O31   H29   S    
C4    C37   S    
O16   C6    A    
C37   C47   A    
O1    C3    A    
C2    C11   S    
C41   C43   A    
C65   H27   S    
C10   C26   A    
C51   C55   A    
C21   C29   A    
O24   H22   S    
V2    O20   S    
C22   C30   A    
O10   C6    A    
C41   H13   S    
O16   V4    S    
O18   C8    A    
C50   O24   S    
N2    N4    D    
C14   C16   A    
C21   C35   A    
C29   H7    S    
C11   C31   A    
C68   O34   D    
C32   O32   S    
C9    C25   A    
C13   H3    S    
C67   H31   S    
C20   C24   A    
C58   C60   A    
C14   H4    S    
O2    V4    S    
O15   C5    A    
C66   H28   S    
V3    O19   S    
C30   H8    S    
O22   H20   S    
V4    O20   S    
O6    V2    S    
C1    O11   A    
O13   V1    S    
C1    C12   S    
C17   C67   S    
O14   V2    S    
O2    C4    A    
C62   O26   D    
C63   O27   D    
H2    C28   S    
O4    V2    S    
C10   C66   S    
C18   C68   S    
C16   H6    S    
N1    N3    D    
C38   C40   A    
C52   C56   A    
C45   C61   S    
C49   C53   A    
C64   H26   S    
O17   C7    A    
C8    C36   S    
