data_mof_unit_17065.cif
_audit_creation_date              2012-12-10T17:08:12-0500
_audit_creation_method            fapswitch 2.2
_symmetry_space_group_name_H-M    P1
_symmetry_Int_Tables_number       1
_space_group_crystal_system       triclinic
_cell_length_a                    23.525052
_cell_length_b                    11.062307
_cell_length_c                    9.833535
_cell_angle_alpha                 112.145289
_cell_angle_beta                  97.706109
_cell_angle_gamma                 91.340619
_cell_volume                      2341.26969757

loop_
_atom_site_label
_atom_site_type_symbol
_atom_type_description
_atom_site_fract_x
_atom_site_fract_y
_atom_site_fract_z
_atom_type_partial_charge
C1    C     C_R   0.496445 0.253240 0.438701 0.805028
C2    C     C_R   0.503555 0.746760 0.561298 0.805032
C3    C     C_R   0.231438 0.493108 0.381362 -0.085848
C4    C     C_R   0.768555 0.506653 0.618543 -0.085819
C5    C     C_R   0.290481 0.493225 0.379009 -0.187437
C6    C     C_R   0.709512 0.506554 0.620905 -0.187451
C7    C     C_R   0.328634 0.499828 0.505019 -0.045439
C8    C     C_R   0.671365 0.500162 0.494977 -0.045418
C9    C     C_R   0.306564 0.505885 0.633251 -0.192618
C10   C     C_R   0.693440 0.494304 0.366821 -0.192622
C11   C     C_R   0.247338 0.505151 0.635017 -0.085121
C12   C     C_R   0.752666 0.495027 0.365048 -0.085095
C13   C     C_R   0.209750 0.498950 0.509108 0.337447
C14   C     C_R   0.790248 0.501011 0.490872 0.337403
C15   C     C_2   0.496708 0.111805 0.399872 -0.194315
C16   C     C_2   0.503294 0.888194 0.600128 -0.194307
C17   C     C_2   0.495036 0.067466 0.508955 -0.176542
C18   C     C_2   0.504970 0.932534 0.491048 -0.176537
C19   C     C_2   0.504784 0.511282 0.081739 -0.047149
C20   C     C_2   0.495217 0.488717 0.918261 -0.047170
C21   C     C_R   0.390994 0.499918 0.501705 0.810290
C22   C     C_R   0.609005 0.500081 0.498294 0.810278
C23   C     C_R   0.882080 0.613611 0.514293 0.591668
C24   C     C_R   0.117918 0.386345 0.485670 0.591664
C25   C     C_R   0.876119 0.385594 0.466155 0.574943
C26   C     C_R   0.123880 0.614361 0.533810 0.574954
C27   C     C_R   0.936734 0.382654 0.475843 -0.105457
C28   C     C_R   0.063264 0.617299 0.524109 -0.105462
C29   C     C_R   0.969798 0.499758 0.498274 -0.085796
C30   C     C_R   0.030200 0.500193 0.501674 -0.085800
C31   C     C_R   0.942243 0.616333 0.516246 -0.048151
C32   C     C_R   0.057755 0.383619 0.483704 -0.048156
C33   C     C_R   0.965007 0.267123 0.462247 -0.119339
C34   C     C_R   0.034992 0.732828 0.537701 -0.119341
C35   C     C_R   0.025384 0.268069 0.466725 0.381580
C36   C     C_R   0.974615 0.731883 0.533223 0.381578
Cu1   Cu    Cu3+1 0.509980 0.521810 0.644910 0.986584
Cu2   Cu    Cu3+1 0.490020 0.478190 0.355090 0.986591
H1    H     H_    0.555719 0.625346 0.935762 0.201658
H2    H     H_    0.444280 0.374655 0.064238 0.201655
H3    H     H_    0.202414 0.488510 0.283944 0.149078
H4    H     H_    0.797574 0.511085 0.715896 0.149105
H5    H     H_    0.306196 0.488710 0.278746 0.168522
H6    H     H_    0.693792 0.510907 0.721106 0.168523
H7    H     H_    0.334955 0.510747 0.731761 0.162295
H8    H     H_    0.665053 0.489614 0.268378 0.162244
H9    H     H_    0.230619 0.509918 0.734131 0.145575
H10   H     H_    0.769389 0.490417 0.265993 0.145577
H11   H     H_    0.512511 0.864774 0.383273 0.202150
H12   H     H_    0.487498 0.135228 0.616733 0.202151
H13   H     H_    0.462133 0.414442 0.844339 0.156995
H14   H     H_    0.537868 0.585557 0.155660 0.156981
N1    N     N_R   0.851043 0.499924 0.489207 -0.489282
N2    N     N_R   0.148957 0.500034 0.510765 -0.489291
N3    N     N_2   0.475010 0.445410 0.137370 -0.279100
N4    N     N_2   0.524990 0.554590 0.862630 -0.279105
O1    O     O_R   0.505330 0.332340 0.577400 -0.577815
O2    O     O_R   0.494670 0.667660 0.422600 -0.577810
O3    O     O_R   0.488470 0.295500 0.332650 -0.544879
O4    O     O_R   0.511530 0.704500 0.667350 -0.544884
O5    O     O_R   0.426310 0.518390 0.622390 -0.577614
O6    O     O_R   0.573690 0.481610 0.377610 -0.577603
O7    O     O_R   0.409450 0.481550 0.377650 -0.573284
O8    O     O_R   0.590550 0.518450 0.622350 -0.573280
O9    O     O_2   0.854272 0.723349 0.537690 -0.434117
O10   O     O_2   0.145729 0.276610 0.462285 -0.434107
O11   O     O_2   0.841783 0.275696 0.432330 -0.483936
O12   O     O_2   0.158216 0.724260 0.567638 -0.483924
C37   C     C_2   0.932735 0.143583 0.442856 0.916274
O13   O     O_2   0.911973 0.134669 0.546582 -0.515725
O14   O     O_R   0.927822 0.036639 0.307315 -0.712068
H15   H     H_    0.905154 0.957669 0.307573 0.355064
C38   C     C_2   0.067265 0.856366 0.557091 0.916269
O15   O     O_2   0.088029 0.865275 0.453366 -0.515714
O16   O     O_R   0.072181 0.963309 0.692633 -0.712071
H16   H     H_    0.094857 0.042271 0.692380 0.355071
O17   O     O_3   0.054077 0.157446 0.455519 -0.629085
H17   H     H_    0.031552 0.097671 0.485358 0.325777
O18   O     O_3   0.945923 0.842508 0.544434 -0.629084
H18   H     H_    0.968448 0.902285 0.514598 0.325773
C39   C     C_2   0.499929 0.975511 0.756475 0.878539
O19   O     O_2   0.467417 0.942941 0.825997 -0.567316
O20   O     O_R   0.535261 0.092243 0.825590 -0.749997
H19   H     H_    0.528765 0.142898 0.931455 0.357978
C40   C     C_2   0.500071 0.024487 0.243523 0.878541
O21   O     O_2   0.532578 0.057063 0.173994 -0.567315
O22   O     O_R   0.464745 0.907746 0.174417 -0.750003
H20   H     H_    0.471239 0.857090 0.068551 0.357966

loop_
_geom_bond_atom_site_label_1
_geom_bond_atom_site_label_2
_ccdc_geom_bond_type
O22   H20   S    
C9    H7    S    
C27   C29   A    
C38   O15   D    
C11   H9    S    
C19   C20   S    
C25   O11   S    
C12   H10   S    
C39   O19   D    
O17   H17   S    
C27   C33   A    
Cu1   Cu2   S    
C25   N1    A    
Cu2   O7    S    
C20   H13   S    
C1    O3    A    
C40   O21   D    
C2    O4    A    
C24   N2    A    
C7    C9    A    
C37   O14   S    
Cu2   O2    S    
Cu1   N4    S    
C19   H14   S    
Cu2   N3    S    
O20   H19   S    
C10   H8    S    
C8    C22   S    
C1    C15   S    
C2    C16   S    
C21   O5    A    
C3    C13   A    
C33   C37   S    
C15   C40   S    
C5    H5    S    
C28   C34   A    
C6    H6    S    
C38   O16   S    
C26   N2    A    
C39   O20   S    
C23   N1    A    
C40   O22   S    
C32   C35   A    
C4    C6    A    
C5    C7    A    
C6    C8    A    
C7    C21   S    
C35   O17   S    
O18   H18   S    
C23   C31   A    
O16   H16   S    
C24   C32   A    
C29   C30   A    
C1    O1    A    
C22   O6    A    
H1    N4    S    
H2    N3    S    
C17   C18   S    
C9    C11   A    
C10   C12   A    
C16   C18   D    
C12   C14   A    
Cu1   O8    S    
C13   N2    S    
C19   N3    D    
C15   C17   D    
C3    H3    S    
C3    C5    A    
C36   O18   S    
C17   H12   S    
Cu1   O5    S    
C2    O2    A    
C24   O10   S    
C25   C27   A    
C26   C28   A    
C26   O12   S    
C23   O9    S    
C28   C30   A    
O14   H15   S    
C29   C31   A    
C30   C32   A    
C11   C13   A    
C4    H4    S    
C16   C39   S    
C33   C35   A    
C34   C36   A    
C20   N4    D    
C4    C14   A    
C37   O13   D    
C21   O7    A    
Cu1   O4    S    
C34   C38   S    
C22   O8    A    
Cu2   O3    S    
C14   N1    S    
C8    C10   A    
C31   C36   A    
Cu1   O1    S    
C18   H11   S    
Cu2   O6    S    
