data_mof_unit_35100.cif
_audit_creation_date              2012-12-11T15:20:18-0500
_audit_creation_method            fapswitch 2.2
_symmetry_space_group_name_H-M    P1
_symmetry_Int_Tables_number       1
_space_group_crystal_system       triclinic
_cell_length_a                    13.084423
_cell_length_b                    13.035033
_cell_length_c                    15.382008
_cell_angle_alpha                 117.469284
_cell_angle_beta                  63.683766
_cell_angle_gamma                 97.679701
_cell_volume                      2078.17460251

loop_
_atom_site_label
_atom_site_type_symbol
_atom_type_description
_atom_site_fract_x
_atom_site_fract_y
_atom_site_fract_z
_atom_type_partial_charge
C1    C     C_R   0.997037 0.832461 0.060332 -0.115905
C2    C     C_R   0.676161 0.539593 0.325567 0.002627
C3    C     C_R   0.671008 0.452195 0.915301 0.032551
C4    C     C_R   0.079688 0.794038 0.302255 0.057840
C5    C     C_R   0.337980 0.525151 0.957846 -0.135051
C6    C     C_R   0.982643 0.178725 0.780847 -0.142543
C7    C     C_R   0.202420 0.502791 0.692886 -0.146788
C8    C     C_R   0.039600 0.260157 0.098222 -0.200311
C9    C     C_R   0.936451 0.178135 0.008170 0.316680
C10   C     C_R   0.303953 0.585986 0.788966 -0.132591
C11   C     C_R   0.260569 0.428459 0.057031 0.068313
C12   C     C_R   0.680211 0.467089 0.223679 0.310728
C13   C     C_R   0.060818 0.277953 0.684985 -0.115574
C14   C     C_R   0.362641 0.449598 0.986299 0.092579
C15   C     C_R   0.055400 0.167833 0.678105 0.051203
C16   C     C_R   0.301102 0.553813 0.692176 0.053146
C17   C     C_R   0.985341 0.161110 0.064454 0.048907
C18   C     C_R   0.184442 0.964234 0.382256 0.066448
C19   C     C_R   0.174964 0.059194 0.479109 -0.223434
C20   C     C_R   0.102895 0.058791 0.578708 0.125256
C21   C     C_R   0.060925 0.954937 0.580001 -0.166332
C22   C     C_R   0.067393 0.861856 0.485025 -0.182436
C23   C     C_R   0.758975 0.518888 0.890418 -0.170021
C24   C     C_R   0.117060 0.870775 0.387181 0.071645
C25   C     C_R   0.588879 0.483100 0.471693 0.047144
C26   C     C_R   0.493752 0.485783 0.560493 -0.230515
C27   C     C_R   0.395524 0.554617 0.600611 0.121762
C28   C     C_R   0.389129 0.621711 0.554024 -0.180815
C29   C     C_R   0.484661 0.620429 0.465060 -0.175954
C30   C     C_R   0.583636 0.551583 0.424733 0.081691
C31   C     C_2   0.474183 0.428010 0.972429 -0.245356
C32   C     C_2   0.572024 0.434924 0.893677 0.039325
C33   C     C_2   0.818542 0.951578 0.114205 -0.211839
C34   C     C_R   0.018688 0.698724 0.301459 -0.125235
C35   C     C_2   0.816225 0.039792 0.205791 -0.110761
C36   C     C_R   0.687009 0.408957 0.974415 0.054332
C37   C     C_R   0.097621 0.799582 0.208631 -0.145938
C38   C     C_R   0.785269 0.558432 0.315805 -0.181586
C39   C     C_R   0.896267 0.747835 0.964210 -0.148101
C40   C     C_R   0.905884 0.851582 0.044559 0.137090
H1    H     H_    0.024251 0.893301 0.120961 0.097433
H2    H     H_    0.962233 0.110011 0.803965 0.122016
H3    H     H_    0.170642 0.478023 0.632520 0.099314
H4    H     H_    0.068018 0.283940 0.160195 0.139320
H5    H     H_    0.364683 0.638182 0.816952 0.102514
H6    H     H_    0.107378 0.301738 0.620041 0.095138
H7    H     H_    0.217951 0.135529 0.476700 0.123152
H8    H     H_    0.011375 0.948221 0.654731 0.113339
H9    H     H_    0.021899 0.788799 0.492576 0.117150
H10   H     H_    0.494436 0.431916 0.596923 0.145367
H11   H     H_    0.311294 0.674113 0.586380 0.126484
H12   H     H_    0.481161 0.670416 0.426221 0.136633
H13   H     H_    0.473760 0.424337 0.041647 0.137801
H14   H     H_    0.749690 0.950975 0.092899 0.148865
H15   H     H_    0.880364 0.045426 0.234023 0.126547
H16   H     H_    0.781152 0.551934 0.831991 0.110711
H17   H     H_    0.003799 0.656851 0.351858 0.088198
H18   H     H_    0.150959 0.855184 0.175849 0.111417
H19   H     H_    0.812102 0.602676 0.380357 0.121913
H20   H     H_    0.829796 0.731296 0.937187 0.106416
H21   H     H_    0.395863 0.571962 0.916360 0.114453
N1    N     N_R   0.037310 0.720000 0.995790 -0.045603
N2    N     N_R   0.946240 0.290860 0.848040 -0.041656
N3    N     N_R   0.146140 0.501160 0.788590 -0.038186
N4    N     N_R   0.025760 0.332690 0.063610 -0.057077
N5    N     N_R   0.962690 0.280000 0.004210 -0.060851
N6    N     N_R   0.209210 0.553840 0.847990 -0.038516
N7    N     N_R   0.175110 0.482040 0.063580 -0.062794
N8    N     N_R   0.996790 0.351810 0.788620 -0.040022
N9    N     N_R   0.790790 0.446160 0.152010 -0.057424
N10   N     N_R   0.824890 0.517960 0.936420 -0.048652
N11   N     N_R   0.003210 0.648190 0.211380 -0.038011
N12   N     N_R   0.774330 0.457010 0.995840 -0.058839
N13   N     N_R   0.053760 0.709140 0.151960 -0.041915
N14   N     N_R   0.853860 0.498840 0.211410 -0.054026
N15   N     N_R   0.974240 0.667310 0.936390 -0.042061
N16   N     N_R   0.225670 0.542990 0.004160 -0.056044
Ni1   Ni    Ni4+2 0.130310 0.630310 0.999970 0.211400
Ni2   Ni    Ni4+2 0.869690 0.369690 0.000030 0.219079
Ni3   Ni    Ni4+2 0.985640 0.509470 0.863740 0.209878
Ni4   Ni    Ni4+2 0.014360 0.490530 0.136260 0.213833
C41   C     C_3   0.838203 0.114623 0.991144 -1.069794
H22   H     H_    0.866186 0.021156 0.935055 0.250275
H23   H     H_    0.768572 0.125116 0.070408 0.264991
H24   H     H_    0.803549 0.151357 0.957091 0.260755
C42   C     C_1   0.250826 0.388757 0.133337 -0.002390
N17   N     N_1   0.244831 0.357790 0.194778 -0.091525
C43   C     C_1   0.262880 0.966930 0.281691 0.008760
N18   N     N_1   0.326592 0.969729 0.201473 -0.088280
C44   C     C_3   0.585906 0.396007 0.203853 -1.005777
H25   H     H_    0.518221 0.395942 0.279680 0.255043
H26   H     H_    0.544793 0.432904 0.173958 0.245025
H27   H     H_    0.620375 0.304430 0.146783 0.261197
C45   C     C_1   0.687531 0.404820 0.426867 0.055548
N19   N     N_1   0.766389 0.342209 0.390945 -0.085541
C46   C     C_1   0.581341 0.433873 0.795963 0.055651
N20   N     N_1   0.589718 0.432873 0.717492 -0.105139
C47   C     C_1   0.658690 0.293000 0.960070 0.029133
N21   N     N_1   0.633515 0.200245 0.947112 -0.086805

loop_
_geom_bond_atom_site_label_1
_geom_bond_atom_site_label_2
_ccdc_geom_bond_type
C37   N13   A    
C3    C23   A    
C19   C20   A    
C14   C31   S    
C2    C12   A    
C1    N1    A    
C23   H16   S    
N2    Ni2   S    
N16   Ni1   S    
N5    Ni2   S    
C26   C27   A    
C18   C24   A    
N7    Ni4   S    
C12   C44   S    
C28   C29   A    
C26   H10   S    
C13   H6    S    
C4    C24   S    
C11   C14   A    
C19   H7    S    
C11   C42   S    
C33   H14   S    
C18   C19   A    
C9    N5    A    
C1    C40   A    
C6    C15   A    
N4    Ni4   S    
N2    N8    A    
C4    C37   A    
C34   H17   S    
C7    H3    S    
C37   H18   S    
C9    C41   S    
C21   H8    S    
C16   C27   S    
C8    N4    A    
C21   C22   A    
N3    Ni3   S    
N1    N15   A    
C3    C32   S    
N6    Ni1   S    
N10   Ni3   S    
C38   N14   A    
C15   C20   S    
N7    N16   A    
C4    C34   A    
C33   C40   S    
C35   H15   S    
N3    N6    A    
N15   Ni3   S    
N11   N13   A    
C39   C40   A    
N10   N12   A    
C42   N17   T    
N14   Ni4   S    
C25   C26   A    
C10   N6    A    
C41   H22   S    
C18   C43   S    
C6    N2    A    
C29   C30   A    
C23   N10   A    
C2    C38   A    
C44   H26   S    
C31   C32   D    
C46   N20   T    
C20   C21   A    
C10   H5    S    
N12   Ni2   S    
C5    H21   S    
C39   N15   A    
C31   H13   S    
C8    H4    S    
C5    C14   A    
C22   H9    S    
C9    C17   A    
C7    C16   A    
C32   C46   S    
C47   N21   T    
C41   H23   S    
C13   C15   A    
N13   Ni1   S    
C28   H11   S    
C22   C24   A    
C5    N16   A    
C34   N11   A    
N9    N14   A    
C11   N7    A    
C44   H27   S    
C1    H1    S    
C25   C30   A    
C12   N9    A    
N9    Ni2   S    
N1    Ni1   S    
N11   Ni4   S    
C41   H24   S    
C8    C17   A    
C2    C30   S    
C10   C16   A    
C44   H25   S    
C13   N8    A    
C3    C36   A    
C39   H20   S    
C33   C35   D    
C45   N19   T    
C7    N3    A    
C36   N12   A    
C38   H19   S    
C25   C45   S    
C43   N18   T    
N4    N5    A    
C6    H2    S    
C27   C28   A    
N8    Ni3   S    
C36   C47   S    
C29   H12   S    
