data_mof_unit_18922.cif
_audit_creation_date              2012-12-10T19:33:11-0500
_audit_creation_method            fapswitch 2.2
_symmetry_space_group_name_H-M    P1
_symmetry_Int_Tables_number       1
_space_group_crystal_system       triclinic
_cell_length_a                    8.788405
_cell_length_b                    15.830478
_cell_length_c                    17.139543
_cell_angle_alpha                 97.069587
_cell_angle_beta                  90.920988
_cell_angle_gamma                 84.855068
_cell_volume                      2356.83958736

loop_
_atom_site_label
_atom_site_type_symbol
_atom_type_description
_atom_site_fract_x
_atom_site_fract_y
_atom_site_fract_z
_atom_type_partial_charge
C1    C     C_R   0.498576 0.489034 0.348538 0.852050
C2    C     C_R   0.500244 0.511146 0.651485 0.818207
C3    C     C_R   0.429338 0.754872 0.460028 -0.040332
C4    C     C_R   0.583498 0.243965 0.533286 -0.022243
C5    C     C_R   0.428502 0.844205 0.462898 0.029147
C6    C     C_R   0.585289 0.154373 0.530117 0.035938
C7    C     C_R   0.523589 0.889458 0.518288 0.296615
C8    C     C_R   0.474978 0.110875 0.482894 0.280233
C9    C     C_R   0.614263 0.841546 0.569483 0.092399
C10   C     C_R   0.370301 0.159957 0.438993 0.095901
C11   C     C_R   0.609987 0.752164 0.563281 0.022052
C12   C     C_R   0.376499 0.249092 0.443959 0.028220
C13   C     C_R   0.205979 0.521552 0.502033 0.833310
C14   C     C_R   0.793854 0.478470 0.498780 0.832013
C15   C     C_2   0.042940 0.532596 0.513566 0.030899
C16   C     C_2   0.956913 0.467108 0.488838 0.031439
C17   C     C_R   0.502260 0.481325 0.262295 -0.105994
C18   C     C_R   0.504128 0.518052 0.737756 -0.145345
C19   C     C_R   0.571679 0.542860 0.226850 -0.368924
C20   C     C_R   0.563565 0.446602 0.772389 -0.337294
C21   C     C_R   0.579787 0.538354 0.145297 0.208629
C22   C     C_R   0.567286 0.447356 0.853773 0.209175
C23   C     C_R   0.515985 0.470630 0.097691 0.281671
C24   C     C_R   0.509455 0.522176 0.902503 0.255158
C25   C     C_R   0.447552 0.407814 0.132687 0.155844
C26   C     C_R   0.452259 0.594836 0.868106 0.213785
C27   C     C_R   0.441206 0.412682 0.215319 0.065209
C28   C     C_R   0.449984 0.593554 0.786024 0.047932
Cu1   Cu    Cu3+1 0.492520 0.415770 0.496210 0.951038
Cu2   Cu    Cu3+1 0.507480 0.584230 0.503790 0.932428
H1    H     H_    0.608876 0.389304 0.735911 0.175612
H2    H     H_    0.622698 0.594284 0.262723 0.184427
H3    H     H_    0.666545 0.277746 0.569116 0.137934
H4    H     H_    0.355987 0.720592 0.418430 0.146942
H5    H     H_    0.680092 0.715446 0.601693 0.162940
H6    H     H_    0.296636 0.286629 0.410709 0.183527
N1    N     N_2   0.522834 0.460965 0.014506 -0.169164
N2    N     N_2   0.508965 0.529718 0.985986 -0.185399
N3    N     N_R   0.518730 0.710760 0.509500 -0.199816
N4    N     N_R   0.481270 0.289240 0.490500 -0.204114
N5    N     N_2   0.527328 0.981117 0.527927 -0.196555
N6    N     N_2   0.470616 0.019373 0.473206 -0.188794
O1    O     O_R   0.493000 0.421040 0.382520 -0.548247
O2    O     O_R   0.507000 0.578960 0.617480 -0.596133
O3    O     O_R   0.505640 0.563310 0.388930 -0.600931
O4    O     O_R   0.494360 0.436690 0.611070 -0.584140
O5    O     O_R   0.269980 0.445280 0.497530 -0.550453
O6    O     O_R   0.730020 0.554720 0.502470 -0.548707
O7    O     O_R   0.282610 0.587550 0.503940 -0.604483
O8    O     O_R   0.717390 0.412450 0.496060 -0.606694
N7    N     N_2   0.980179 0.609301 0.559144 -0.422649
H7    H     H_    0.032613 0.663130 0.550547 0.267392
C29   C     C_3   0.962628 0.601580 0.641769 -0.694976
H8    H     H_    0.914358 0.663592 0.672961 0.225656
H9    H     H_    0.075086 0.583710 0.668481 0.209793
H10   H     H_    0.883427 0.552450 0.649651 0.223589
N8    N     N_2   0.019853 0.389721 0.444705 -0.424247
H11   H     H_    0.976589 0.335599 0.459983 0.266678
C30   C     C_3   0.017181 0.391970 0.360568 -0.693299
H12   H     H_    0.068372 0.330025 0.330653 0.226110
H13   H     H_    0.084507 0.443645 0.345098 0.229863
H14   H     H_    0.897648 0.402593 0.339245 0.217700
N9    N     N_2   0.634400 0.373767 0.885531 -0.395336
H15   H     H_    0.741540 0.353279 0.863206 0.242752
C31   C     C_3   0.536722 0.304461 0.881677 -0.632008
H16   H     H_    0.590985 0.253335 0.914468 0.225059
H17   H     H_    0.424136 0.327231 0.908724 0.255236
H18   H     H_    0.519226 0.277285 0.819577 0.205371
N10   N     N_2   0.659253 0.599394 0.111730 -0.395753
H19   H     H_    0.768804 0.603241 0.133583 0.243593
C32   C     C_3   0.576230 0.682880 0.114230 -0.641410
H20   H     H_    0.564877 0.713918 0.175900 0.200959
H21   H     H_    0.460657 0.677597 0.087848 0.258340
H22   H     H_    0.639048 0.723709 0.080088 0.223439
N11   N     N_2   0.383143 0.340476 0.083676 -0.418441
H23   H     H_    0.391783 0.282221 0.105122 0.247596
C33   C     C_3   0.232086 0.363227 0.053630 -0.698543
H24   H     H_    0.149078 0.378360 0.102648 0.218082
H25   H     H_    0.194623 0.308773 0.012972 0.221895
H26   H     H_    0.232621 0.419269 0.020526 0.243970
N12   N     N_2   0.396421 0.670021 0.917401 -0.411257
H27   H     H_    0.417987 0.726492 0.897202 0.272678
C34   C     C_3   0.239700 0.670078 0.941952 -0.681345
H28   H     H_    0.208245 0.728456 0.983338 0.217078
H29   H     H_    0.225125 0.613489 0.972646 0.235003
H30   H     H_    0.161839 0.669618 0.890171 0.233870
N13   N     N_3   0.369372 0.349775 0.251743 -0.587081
H31   H     H_    0.258580 0.346118 0.229381 0.213300
H32   H     H_    0.431691 0.290575 0.237891 0.211583
N14   N     N_3   0.387170 0.668655 0.753661 -0.596385
H33   H     H_    0.300896 0.652372 0.713440 0.233695
H34   H     H_    0.473827 0.694111 0.725429 0.235755
N15   N     N_3   0.701471 0.108309 0.572101 -0.575618
H35   H     H_    0.777830 0.075310 0.530463 0.225159
H36   H     H_    0.764220 0.150511 0.608578 0.202307
N16   N     N_3   0.328350 0.887553 0.411073 -0.575232
H37   H     H_    0.216546 0.874332 0.421559 0.211675
H38   H     H_    0.356109 0.862293 0.353280 0.213683
N17   N     N_2   0.713502 0.881940 0.626145 -0.428416
H39   H     H_    0.743651 0.940768 0.615203 0.287875
C35   C     C_3   0.671928 0.880310 0.707251 -0.685581
H40   H     H_    0.757595 0.911454 0.746597 0.227907
H41   H     H_    0.669902 0.813550 0.720618 0.216642
H42   H     H_    0.557919 0.915489 0.719362 0.235482
N18   N     N_2   0.254595 0.121005 0.391768 -0.426393
H43   H     H_    0.227278 0.062999 0.406416 0.290059
C36   C     C_3   0.271040 0.121347 0.307984 -0.703378
H44   H     H_    0.174582 0.090982 0.276645 0.227055
H45   H     H_    0.379933 0.084823 0.287470 0.233298
H46   H     H_    0.268712 0.187737 0.293196 0.223255

loop_
_geom_bond_atom_site_label_1
_geom_bond_atom_site_label_2
_ccdc_geom_bond_type
N13   H31   S    
N9    C31   S    
C35   H40   S    
C2    C18   S    
N5    N6    D    
Cu2   O3    S    
N12   H27   S    
N8    H11   S    
C29   H8    S    
C2    O4    A    
N18   C36   S    
N15   H35   S    
Cu1   O5    S    
Cu2   O6    S    
C19   C21   A    
N1    N2    D    
C8    N6    S    
N8    C30   S    
C15   C16   D    
N10   C32   S    
C22   N9    S    
C13   O5    A    
C1    O1    A    
N17   H39   S    
C2    O2    A    
C31   H17   S    
N16   H38   S    
C24   N2    S    
C36   H44   S    
C15   N7    S    
C12   H6    S    
C18   C20   A    
C33   H24   S    
C6    N15   S    
C29   H9    S    
C3    N3    A    
C30   H12   S    
N15   H36   S    
Cu1   O1    S    
C36   H45   S    
Cu2   O2    S    
C19   H2    S    
N12   C34   S    
Cu1   O8    S    
C33   H25   S    
C30   H13   S    
N7    H7    S    
C17   C27   A    
C4    N4    A    
C18   C28   A    
C4    C6    A    
C5    C7    A    
C14   O6    A    
C3    H4    S    
C23   N1    S    
C21   N10   S    
N7    C29   S    
C12   N4    A    
C11   N3    A    
N11   H23   S    
Cu1   Cu2   S    
N11   C33   S    
N14   H34   S    
C34   H28   S    
C31   H18   S    
N16   H37   S    
C34   H30   S    
C27   N13   S    
C9    C11   A    
C10   C12   A    
C13   O7    A    
C34   H29   S    
Cu2   O7    S    
C20   C22   A    
C26   N12   S    
C13   C15   S    
C36   H46   S    
C14   C16   S    
C5    N16   S    
C32   H21   S    
C35   H41   S    
C29   H10   S    
C7    C9    A    
C4    H3    S    
C30   H14   S    
N17   C35   S    
C1    C17   S    
C24   C26   A    
C3    C5    A    
C32   H22   S    
C6    C8    A    
C25   C27   A    
N18   H43   S    
C9    N17   S    
C26   C28   A    
Cu1   O4    S    
C21   C23   A    
C32   H20   S    
C33   H26   S    
C1    O3    A    
N14   H33   S    
C14   O8    A    
Cu1   N4    S    
C11   H5    S    
C17   C19   A    
Cu2   N3    S    
C22   C24   A    
C16   N8    S    
C7    N5    S    
N10   H19   S    
N9    H15   S    
C23   C25   A    
C8    C10   A    
C31   H16   S    
N13   H32   S    
C10   N18   S    
C28   N14   S    
C35   H42   S    
C25   N11   S    
C20   H1    S    
