data_mof_unit_46150.cif
_audit_creation_date              2012-12-11T14:19:21-0500
_audit_creation_method            fapswitch 2.2
_symmetry_space_group_name_H-M    P1
_symmetry_Int_Tables_number       1
_space_group_crystal_system       triclinic
_cell_length_a                    19.437332
_cell_length_b                    7.238306
_cell_length_c                    17.756625
_cell_angle_alpha                 90.002917
_cell_angle_beta                  107.659794
_cell_angle_gamma                 89.987739
_cell_volume                      2380.50858939

loop_
_atom_site_label
_atom_site_type_symbol
_atom_type_description
_atom_site_fract_x
_atom_site_fract_y
_atom_site_fract_z
_atom_type_partial_charge
O1    O     O_R   0.414820 0.494320 0.416790 -0.530925
O2    O     O_R   0.585180 0.994320 0.583210 -0.531327
O3    O     O_R   0.560270 0.819500 0.430140 -0.543909
O4    O     O_R   0.439730 0.319500 0.569860 -0.544672
C1    C     C_R   0.581078 0.655382 0.414600 0.711728
C2    C     C_R   0.418884 0.155415 0.585352 0.711184
O5    O     O_R   0.413840 0.823740 0.407440 -0.548563
O6    O     O_R   0.586160 0.323740 0.592560 -0.548077
O7    O     O_R   0.437710 0.998590 0.560350 -0.540457
O8    O     O_R   0.562290 0.498590 0.439650 -0.539981
C3    C     C_R   0.386047 0.655421 0.387735 0.708897
C4    C     C_R   0.610893 0.154644 0.616373 0.707484
O9    O     O_3   0.508000 0.662290 0.550200 -0.379001
O10   O     O_3   0.492000 0.162290 0.449800 -0.378055
V1    V     V_3+5 0.498520 0.935380 0.490690 1.396177
V2    V     V_3+5 0.501480 0.435380 0.509310 1.396275
C5    C     C_2   0.786395 0.266590 0.785655 -0.130790
C6    C     C_2   0.216628 0.765909 0.210307 -0.131849
C7    C     C_2   0.824890 0.112739 0.812965 -0.315144
C8    C     C_2   0.183360 0.610349 0.176271 -0.314369
H1    H     H_    0.804162 0.398247 0.814249 0.143338
H2    H     H_    0.192994 0.899317 0.189253 0.143377
H3    H     H_    0.810395 0.984006 0.780911 0.149282
H4    H     H_    0.209709 0.478051 0.192701 0.150046
C9    C     C_2   0.723168 0.269565 0.712607 -0.143352
C10   C     C_2   0.289070 0.766340 0.271138 -0.144661
C11   C     C_2   0.670793 0.138776 0.691551 0.022260
C12   C     C_2   0.312247 0.642720 0.330939 0.024524
H5    H     H_    0.718788 0.390370 0.675139 0.109372
H6    H     H_    0.324699 0.879030 0.267143 0.110583
C13   C     C_R   0.325718 0.990473 0.631642 -0.216769
C14   C     C_R   0.674199 0.490349 0.368207 -0.218784
C15   C     C_R   0.369277 0.147048 0.634458 -0.081845
C16   C     C_R   0.630641 0.646956 0.365430 -0.081182
C17   C     C_R   0.363955 0.296800 0.683052 -0.223685
C18   C     C_R   0.635928 0.796702 0.316820 -0.223747
C19   C     C_R   0.315887 0.290711 0.728250 0.091819
C20   C     C_R   0.683989 0.790614 0.271612 0.091832
C21   C     C_R   0.271265 0.134586 0.723717 0.066339
C22   C     C_R   0.728637 0.634494 0.276144 0.066407
C23   C     C_R   0.276349 0.984362 0.675122 0.092372
C24   C     C_R   0.723566 0.484244 0.324723 0.092823
C25   C     C_R   0.311470 0.438356 0.777722 -0.189458
C26   C     C_R   0.688387 0.938272 0.222145 -0.189737
C27   C     C_R   0.263431 0.431403 0.822441 -0.176190
C28   C     C_R   0.736443 0.931349 0.177443 -0.175994
C29   C     C_R   0.218106 0.277924 0.817605 0.088328
C30   C     C_R   0.781809 0.777896 0.182300 0.088357
C31   C     C_R   0.221313 0.129184 0.767505 0.016695
C32   C     C_R   0.778612 0.629134 0.232384 0.016712
C33   C     C_R   0.174332 0.976337 0.760339 0.081014
C34   C     C_R   0.825635 0.476317 0.239576 0.081281
C35   C     C_R   0.181396 0.826374 0.712221 -0.182858
C36   C     C_R   0.818577 0.326313 0.287663 -0.182873
C37   C     C_R   0.231748 0.830500 0.670481 -0.198224
C38   C     C_R   0.768193 0.330383 0.329362 -0.199058
C39   C     C_R   0.170761 0.270079 0.863268 -0.262668
C40   C     C_R   0.829187 0.770095 0.136673 -0.262147
C41   C     C_R   0.123469 0.119896 0.857414 -0.086417
C42   C     C_R   0.876526 0.619950 0.142566 -0.087495
C43   C     C_R   0.121581 0.977629 0.801077 0.106195
C44   C     C_R   0.878426 0.477681 0.198898 0.105499
H7    H     H_    0.328983 0.874652 0.594141 0.128045
H8    H     H_    0.670950 0.374515 0.405698 0.126775
H9    H     H_    0.397579 0.417790 0.686177 0.130388
H10   H     H_    0.602294 0.917704 0.313707 0.129605
H11   H     H_    0.345330 0.559235 0.782005 0.133474
H12   H     H_    0.654505 0.059146 0.217858 0.133434
H13   H     H_    0.261373 0.547007 0.860490 0.130331
H14   H     H_    0.738489 0.046965 0.139401 0.130350
H15   H     H_    0.171371 0.381309 0.904378 0.137799
H16   H     H_    0.828567 0.881323 0.095564 0.138122
H17   H     H_    0.149224 0.702548 0.707406 0.146582
H18   H     H_    0.850783 0.202509 0.292489 0.146593
H19   H     H_    0.235620 0.712798 0.634237 0.132942
H20   H     H_    0.764328 0.212655 0.365586 0.132828
O11   O     O_R   0.937810 0.773680 0.060480 -0.538240
O12   O     O_R   0.062190 0.273680 0.939520 -0.539312
O13   O     O_R   0.086190 0.439740 0.092580 -0.545314
O14   O     O_R   0.913810 0.939740 0.907420 -0.544875
C45   C     C_R   0.113212 0.607904 0.113333 0.727557
C46   C     C_R   0.888524 0.108377 0.884361 0.727355
O15   O     O_R   0.939760 0.444210 0.069890 -0.536091
O16   O     O_R   0.060240 0.944210 0.930110 -0.536904
O17   O     O_R   0.914790 0.269640 0.916760 -0.533502
O18   O     O_R   0.085210 0.769640 0.083240 -0.533792
C47   C     C_R   0.921681 0.612613 0.087864 0.705948
C48   C     C_R   0.078330 0.112589 0.912140 0.702467
O19   O     O_3   0.992050 0.601530 0.949880 -0.377824
O20   O     O_3   0.007950 0.101530 0.050120 -0.376885
V3    V     V_3+5 0.001480 0.328340 0.009300 1.396015
V4    V     V_3+5 0.998520 0.828340 0.990700 1.395893
C49   C     C_3   0.060771 0.837101 0.779368 -0.745067
H21   H     H_    0.042871 0.810608 0.714762 0.189996
H22   H     H_    0.078842 0.705708 0.811590 0.212796
H23   H     H_    0.011445 0.888701 0.791430 0.205710
C50   C     C_3   0.939286 0.337232 0.220669 -0.744162
H24   H     H_    0.957177 0.310863 0.285286 0.190040
H25   H     H_    0.921266 0.205769 0.188493 0.212846
H26   H     H_    0.988600 0.388832 0.208598 0.206708
C51   C     C_3   0.667212 0.978320 0.744970 -0.746166
H27   H     H_    0.610301 0.934740 0.734753 0.197796
H28   H     H_    0.697400 0.858372 0.732110 0.200723
H29   H     H_    0.688290 0.017091 0.808314 0.217831
C52   C     C_3   0.263100 0.496842 0.348016 -0.749815
H30   H     H_    0.279351 0.465240 0.412260 0.193900
H31   H     H_    0.206265 0.545007 0.332019 0.218980
H32   H     H_    0.267021 0.367117 0.316266 0.202188

loop_
_geom_bond_atom_site_label_1
_geom_bond_atom_site_label_2
_ccdc_geom_bond_type
O15   C47   A    
O11   V4    S    
O4    V2    S    
C51   H27   S    
C38   H20   S    
O1    C3    A    
O2    C4    A    
C2    O7    A    
C50   H24   S    
O17   V3    S    
C29   C31   A    
O5    C3    A    
C52   H31   S    
C49   H21   S    
C17   C19   A    
C18   H10   S    
C39   C41   A    
C17   H9    S    
C40   C42   A    
C42   C44   A    
C27   C29   A    
C41   C48   S    
C23   C37   A    
C24   C38   A    
C36   H18   S    
C8    H4    S    
C34   C36   A    
C31   C33   A    
C6    C10   S    
C32   C34   A    
C13   C15   A    
C7    C46   S    
O13   V3    S    
C45   O18   A    
C37   H19   S    
O5    V1    S    
C51   H28   S    
C8    C45   S    
C50   H25   S    
C42   C47   S    
C26   C28   A    
C36   C38   A    
C35   C37   A    
C9    H5    S    
C52   H32   S    
C28   C30   A    
C41   C43   A    
C4    C11   S    
C27   H13   S    
C13   H7    S    
C14   H8    S    
C21   C23   A    
O13   C45   A    
C5    C7    D    
C11   C51   S    
C5    H1    S    
C33   C35   A    
C14   C16   A    
O14   V4    S    
C7    H3    S    
C25   H11   S    
C20   C26   A    
C29   C39   A    
C44   C50   S    
C12   C52   S    
O6    C4    A    
C1    C16   S    
O1    V2    S    
C39   H15   S    
O19   V4    S    
O2    V1    S    
C25   C27   A    
O11   C47   A    
O4    C2    A    
C21   C31   A    
C10   H6    S    
C49   H23   S    
C19   C25   A    
C26   H12   S    
C9    C11   D    
O18   V4    S    
C50   H26   S    
O3    V1    S    
O12   C48   A    
C13   C23   A    
C6    H2    S    
C35   H17   S    
O16   C48   A    
C22   C24   A    
O3    C1    A    
C30   C40   A    
O12   V3    S    
C51   H29   S    
C46   O17   A    
O15   V3    S    
C52   H30   S    
C10   C12   D    
C2    C15   S    
C5    C9    S    
C18   C20   A    
O7    V1    S    
C1    O8    A    
C19   C21   A    
O8    V2    S    
C20   C22   A    
C33   C43   A    
C40   H16   S    
O20   V3    S    
C49   H22   S    
C3    C12   S    
C22   C32   A    
C30   C32   A    
C15   C17   A    
O14   C46   A    
C6    C8    D    
C28   H14   S    
C16   C18   A    
O6    V2    S    
O9    V2    S    
C14   C24   A    
O10   V1    S    
C34   C44   A    
O16   V4    S    
C43   C49   S    
