data_mof_unit_45267.cif
_audit_creation_date              2012-12-11T16:37:36-0500
_audit_creation_method            fapswitch 2.2
_symmetry_space_group_name_H-M    P1
_symmetry_Int_Tables_number       1
_space_group_crystal_system       triclinic
_cell_length_a                    18.988244
_cell_length_b                    18.861807
_cell_length_c                    20.409618
_cell_angle_alpha                 107.268025
_cell_angle_beta                  106.618202
_cell_angle_gamma                 110.502808
_cell_volume                      5883.99756342

loop_
_atom_site_label
_atom_site_type_symbol
_atom_type_description
_atom_site_fract_x
_atom_site_fract_y
_atom_site_fract_z
_atom_type_partial_charge
C1    C     C_R   0.033736 0.088365 0.347239 -0.131250
C2    C     C_R   0.245565 0.070199 0.519696 -0.146530
C3    C     C_R   0.160207 0.184183 0.719106 -0.125624
C4    C     C_R   0.762183 0.927891 0.503052 -0.118281
C5    C     C_R   0.039053 0.791888 0.468486 -0.134994
C6    C     C_R   0.241586 0.209066 0.727524 0.037935
C7    C     C_R   0.020093 0.762365 0.518839 0.030538
C8    C     C_R   0.254343 0.998532 0.495119 0.050451
C9    C     C_R   0.949771 0.978677 0.718418 0.046194
C10   C     C_R   0.047916 0.494458 0.622527 -0.164447
C11   C     C_R   0.027166 0.410411 0.602213 -0.174250
C12   C     C_R   0.758558 0.998191 0.545202 0.037213
C13   C     C_R   0.075661 0.378169 0.576760 0.143849
C14   C     C_R   0.150113 0.433235 0.579576 -0.166244
C15   C     C_R   0.170913 0.517646 0.599960 -0.184746
C16   C     C_R   0.847575 0.777159 0.290374 0.130580
C17   C     C_R   0.116950 0.547242 0.616819 0.115679
C18   C     C_R   0.118464 0.624320 0.538739 -0.163355
C19   C     C_R   0.088596 0.671998 0.511392 -0.172230
C20   C     C_R   0.057113 0.717241 0.551043 0.152052
C21   C     C_R   0.062348 0.719719 0.621653 -0.173751
C22   C     C_R   0.092215 0.671613 0.649104 -0.192266
C23   C     C_R   0.768630 0.731864 0.285121 0.005011
C24   C     C_R   0.116532 0.620384 0.605778 0.119865
C25   C     C_R   0.579324 0.926069 0.595123 -0.171086
C26   C     C_R   0.647968 0.929506 0.581620 -0.164165
C27   C     C_R   0.697303 0.999488 0.574383 0.143809
C28   C     C_R   0.996471 0.233480 0.566073 -0.127124
C29   C     C_R   0.684557 0.070236 0.590940 -0.195981
C30   C     C_R   0.615577 0.066087 0.603005 -0.193224
C31   C     C_R   0.558994 0.991081 0.598226 0.131727
C32   C     C_R   0.459873 0.034472 0.625365 -0.216785
C33   C     C_R   0.389365 0.043373 0.598104 -0.163213
C34   C     C_R   0.046444 0.287078 0.545646 0.039107
C35   C     C_R   0.330437 0.992496 0.522035 0.122722
C36   C     C_R   0.339944 0.929829 0.474284 -0.242332
C37   C     C_R   0.411263 0.920898 0.500088 0.160353
C38   C     C_R   0.473114 0.975890 0.576509 0.056329
C39   C     C_R   0.315884 0.238907 0.797927 0.150292
C40   C     C_R   0.768179 0.775871 0.352476 -0.171313
C41   C     C_R   0.309240 0.248007 0.866440 -0.188200
C42   C     C_R   0.380492 0.284766 0.934322 -0.164331
C43   C     C_R   0.459968 0.313682 0.934790 0.221104
C44   C     C_R   0.465635 0.295686 0.865623 -0.188969
C45   C     C_R   0.238184 0.193730 0.655403 -0.125473
C46   C     C_R   0.394369 0.258828 0.797619 -0.182512
C47   C     C_R   0.632094 0.543002 0.096065 -0.170729
C48   C     C_R   0.688765 0.624693 0.151205 -0.197792
C49   C     C_R   0.589716 0.481419 0.116296 0.228416
C50   C     C_R   0.705507 0.646238 0.227648 0.147582
C51   C     C_R   0.663016 0.585564 0.248310 -0.196968
C52   C     C_R   0.075910 0.241976 0.504179 -0.140998
C53   C     C_R   0.604600 0.503606 0.192515 -0.189196
C54   C     C_R   0.932379 0.030761 0.208443 0.124973
C55   C     C_R   0.855358 0.963629 0.150014 -0.246238
C56   C     C_R   0.965461 0.789139 0.536494 -0.135955
C57   C     C_R   0.820141 0.965763 0.080611 0.150901
C58   C     C_R   0.864060 0.036353 0.070224 0.165888
C59   C     C_R   0.934716 0.107321 0.132000 -0.204924
C60   C     C_R   0.969040 0.104559 0.200597 -0.184235
C61   C     C_R   0.871525 0.024646 0.867037 -0.170400
C62   C     C_R   0.891596 0.024239 0.806572 -0.210909
C63   C     C_R   0.883413 0.971956 0.900288 0.193033
C64   C     C_R   0.831649 0.068299 0.566166 -0.135437
C65   C     C_R   0.924102 0.971912 0.778667 0.065280
C66   C     C_R   0.934063 0.916450 0.810274 0.140804
C67   C     C_R   0.175594 0.930282 0.453567 -0.124574
C68   C     C_R   0.912146 0.917224 0.870599 -0.223493
C69   C     C_R   0.962710 0.948167 0.282361 -0.151569
C70   C     C_R   0.976054 0.022699 0.275985 0.060695
C71   C     C_3   0.891487 0.741659 0.249830 -0.466693
C72   C     C_3   0.893717 0.665560 0.261644 -0.208653
C73   C     C_3   0.956275 0.644754 0.238422 -0.953977
C74   C     C_3   0.420963 0.856965 0.442585 -0.448290
C75   C     C_3   0.471028 0.897777 0.404718 -0.219110
C76   C     C_3   0.488006 0.835272 0.353088 -0.921986
C77   C     C_3   0.971257 0.860678 0.781785 -0.437262
C78   C     C_R   0.990438 0.052585 0.713396 -0.136767
C79   C     C_3   0.995546 0.817504 0.831045 -0.242973
C80   C     C_3   0.036277 0.767366 0.800338 -0.957209
C81   C     C_3   0.739391 0.890683 0.016922 -0.446976
C82   C     C_3   0.669842 0.915092 0.997010 -0.234272
C83   C     C_3   0.587959 0.839323 0.933656 -0.917702
C84   C     C_R   0.922096 0.912818 0.648782 -0.149310
H1    H     H_    0.055752 0.154860 0.363637 0.097145
H2    H     H_    0.190423 0.410785 0.563008 0.107743
H3    H     H_    0.720470 0.862620 0.486020 0.084791
H4    H     H_    0.225040 0.557900 0.596121 0.114392
H5    H     H_    0.135378 0.584266 0.503392 0.115181
H6    H     H_    0.085691 0.668981 0.456863 0.109766
H7    H     H_    0.090927 0.669639 0.701242 0.127293
H8    H     H_    0.537493 0.869357 0.594803 0.107987
H9    H     H_    0.659485 0.875913 0.572695 0.107450
H10   H     H_    0.722866 0.125605 0.587214 0.116641
H11   H     H_    0.601062 0.117404 0.606538 0.125073
H12   H     H_    0.937156 0.776173 0.573385 0.093136
H13   H     H_    0.507254 0.077477 0.683248 0.131518
H14   H     H_    0.380998 0.090175 0.636364 0.120734
H15   H     H_    0.718348 0.671490 0.133867 0.114916
H16   H     H_    0.618634 0.528892 0.037047 0.125568
H17   H     H_    0.526285 0.317229 0.865077 0.118218
H18   H     H_    0.402075 0.249998 0.745838 0.106706
H19   H     H_    0.675184 0.601328 0.307312 0.117827
H20   H     H_    0.373539 0.296226 0.986747 0.124397
H21   H     H_    0.570426 0.457631 0.208445 0.120645
H22   H     H_    0.249822 0.230565 0.868950 0.113509
H23   H     H_    0.160262 0.866337 0.419898 0.085099
H24   H     H_    0.882989 0.066075 0.782187 0.132088
H25   H     H_    0.849546 0.067950 0.889082 0.129816
H26   H     H_    0.968560 0.161377 0.124210 0.130214
H27   H     H_    0.920401 0.878021 0.898204 0.115137
H28   H     H_    0.824108 0.908315 0.157315 0.116927
H29   H     H_    0.722315 0.753209 0.372969 0.105258
H30   H     H_    0.854858 0.131680 0.608507 0.088422
H31   H     H_    0.919203 0.885332 0.237823 0.099532
H32   H     H_    0.290476 0.210484 0.641966 0.083398
H33   H     H_    0.076352 0.778987 0.440751 0.096677
H34   H     H_    0.007775 0.115493 0.752634 0.090169
H35   H     H_    0.041215 0.756851 0.654331 0.123992
H36   H     H_    0.939957 0.630857 0.177637 0.268253
H37   H     H_    0.020484 0.698517 0.274650 0.254779
H38   H     H_    0.955031 0.588469 0.245974 0.251467
H39   H     H_    0.911353 0.678906 0.322432 0.200922
H40   H     H_    0.831117 0.609199 0.226912 0.206960
H41   H     H_    0.861346 0.723957 0.188108 0.174406
H42   H     H_    0.956944 0.791723 0.273277 0.199984
H43   H     H_    0.293023 0.889908 0.415742 0.115765
H44   H     H_    0.526114 0.814333 0.387009 0.260623
H45   H     H_    0.875487 0.848287 0.627876 0.088006
H46   H     H_    0.428301 0.779460 0.307878 0.260014
H47   H     H_    0.523110 0.866137 0.325626 0.251484
H48   H     H_    0.435361 0.920158 0.370246 0.190237
H49   H     H_    0.531747 0.952970 0.448261 0.213809
H50   H     H_    0.449111 0.824200 0.469010 0.190158
H51   H     H_    0.358292 0.806009 0.397155 0.180645
H52   H     H_    0.974414 0.251070 0.608491 0.087015
H53   H     H_    0.027656 0.157869 0.245140 0.117025
H54   H     H_    0.991408 0.715953 0.742239 0.258616
H55   H     H_    0.093216 0.809313 0.798670 0.267253
H56   H     H_    0.294848 0.134270 0.545911 0.089404
H57   H     H_    0.054492 0.738580 0.838009 0.253452
H58   H     H_    0.040290 0.865937 0.890471 0.201768
H59   H     H_    0.938852 0.772842 0.831148 0.194225
H60   H     H_    0.925376 0.810765 0.723371 0.180663
H61   H     H_    0.028446 0.900236 0.778797 0.199916
H62   H     H_    0.595896 0.814230 0.881203 0.261612
H63   H     H_    0.567225 0.788756 0.951869 0.260901
H64   H     H_    0.538901 0.858891 0.920444 0.250375
H65   H     H_    0.659970 0.939899 0.048397 0.198260
H66   H     H_    0.687879 0.965237 0.977810 0.199638
H67   H     H_    0.139111 0.187674 0.763064 0.091884
H68   H     H_    0.749105 0.865139 0.965698 0.198237
H69   H     H_    0.718890 0.838933 0.033947 0.185771
H70   H     H_    0.125692 0.267672 0.488730 0.086402
H71   H     H_    0.004669 0.515337 0.634506 0.115678
H72   H     H_    0.969758 0.369670 0.601249 0.109032
N1    N     N_R   0.051550 0.054780 0.395070 -0.039414
N2    N     N_2   0.522452 0.402367 0.059188 -0.107600
N3    N     N_2   0.854007 0.028492 0.996784 -0.106242
N4    N     N_R   0.835860 0.954800 0.499920 -0.037044
N5    N     N_2   0.878111 0.978339 0.969342 -0.096765
N6    N     N_R   0.889940 0.849160 0.355180 -0.056356
N7    N     N_R   0.997480 0.160420 0.539810 -0.037936
N8    N     N_R   0.842280 0.845520 0.395070 -0.046344
N9    N     N_R   0.045130 0.164060 0.499920 -0.038150
N10   N     N_R   0.878630 0.041580 0.539810 -0.037558
N11   N     N_R   0.008780 0.968000 0.355180 -0.044179
N12   N     N_R   0.954870 0.835940 0.500080 -0.038026
N13   N     N_R   0.157720 0.154480 0.604930 -0.037839
N14   N     N_R   0.121370 0.958420 0.460190 -0.037738
N15   N     N_R   0.991220 0.032000 0.644820 -0.036580
N16   N     N_R   0.948450 0.945220 0.604930 -0.033605
N17   N     N_R   0.164140 0.045200 0.500080 -0.036006
N18   N     N_R   0.110060 0.150840 0.644820 -0.039447
N19   N     N_R   0.002520 0.839580 0.460190 -0.038179
N20   N     N_2   0.533599 0.376916 0.001188 -0.106862
Ni1   Ni    Ni4+2 0.103690 0.103690 0.500000 0.211799
Ni2   Ni    Ni4+2 0.896310 0.896310 0.500000 0.205530
Ni3   Ni    Ni4+2 0.005600 0.904650 0.408510 0.207724
Ni4   Ni    Ni4+2 0.994400 0.095350 0.591490 0.209703

loop_
_geom_bond_atom_site_label_1
_geom_bond_atom_site_label_2
_ccdc_geom_bond_type
C25   C31   A    
N12   N19   A    
C66   C68   A    
N15   N16   A    
C49   C53   A    
C75   C76   S    
C6    C45   A    
N18   Ni4   S    
C55   H28   S    
C27   C29   A    
N9    Ni1   S    
C41   C42   A    
N11   Ni3   S    
C19   C20   A    
C37   C74   S    
C3    C6    A    
C61   H25   S    
N1    N11   A    
C66   C77   S    
C81   C82   S    
C39   C41   A    
C4    H3    S    
C54   C60   A    
C46   H18   S    
C26   C27   A    
C37   C38   A    
C18   C24   A    
C36   C37   A    
C78   H34   S    
C40   N8    A    
C58   N3    S    
C2    N17   A    
C30   C31   A    
C12   C64   A    
C76   H47   S    
C80   H54   S    
C79   H58   S    
C62   H24   S    
C10   C17   A    
C52   H70   S    
C23   C40   A    
C84   H45   S    
C59   H26   S    
C81   H69   S    
C32   H13   S    
C15   C17   A    
C33   H14   S    
C61   C63   A    
C64   N10   A    
C34   C52   A    
C63   C68   A    
C76   H46   S    
C79   H59   S    
C35   C36   A    
N13   N18   A    
N3    N5    D    
C71   H42   S    
N4    N10   A    
C4    C12   A    
C29   C30   A    
C60   H53   S    
C26   H9    S    
C48   C50   A    
C28   C34   A    
C59   C60   A    
C73   H36   S    
C13   C14   A    
C72   H40   S    
C5    N19   A    
C61   C62   A    
C16   C71   S    
C7    C56   A    
N13   Ni1   S    
C44   C46   A    
N6    N8    A    
C77   C79   S    
C67   N14   A    
C1    H1    S    
C17   C24   S    
C64   H30   S    
C41   H22   S    
C12   C27   S    
C14   H2    S    
C47   C49   A    
C74   C75   S    
C5    C7    A    
C18   C19   A    
C23   C50   S    
N19   Ni3   S    
C16   N6    A    
C25   C26   A    
C82   C83   S    
C40   H29   S    
C47   H16   S    
C83   H64   S    
C5    H33   S    
C51   C53   A    
C68   H27   S    
C43   C44   A    
C69   N11   A    
C30   H11   S    
C52   N9    A    
C83   H62   S    
C43   N20   S    
C3    N18   A    
C47   C48   A    
C54   C70   S    
N17   Ni1   S    
C22   H7    S    
C74   H51   S    
C56   N12   A    
C14   C15   A    
C50   C51   A    
N1    Ni1   S    
N4    Ni2   S    
N6    Ni3   S    
C82   H66   S    
C11   H72   S    
C39   C46   A    
C83   H63   S    
N2    N20   D    
C7    C20   S    
C16   C23   A    
C32   C38   A    
C55   C57   A    
C72   H39   S    
C76   H44   S    
C57   C81   S    
N15   Ni4   S    
C36   H43   S    
N10   Ni4   S    
C42   C43   A    
C80   H55   S    
C77   H61   S    
N8    Ni2   S    
C75   H48   S    
N16   Ni2   S    
C63   N5    S    
C48   H15   S    
C54   C55   A    
C69   H31   S    
C25   H8    S    
C62   C65   A    
N7    N9    A    
C28   H52   S    
C18   H5    S    
C3    H67   S    
C73   H38   S    
C2    C8    A    
C72   C73   S    
C84   N16   A    
C42   H20   S    
C10   H71   S    
C4    N4    A    
C44   H17   S    
C75   H49   S    
C81   H68   S    
C73   H37   S    
C1    C70   A    
C31   C38   S    
N14   Ni3   S    
C2    H56   S    
C32   C33   A    
C1    N1    A    
C58   C59   A    
C77   H60   S    
C71   C72   S    
C21   H35   S    
C19   H6    S    
C11   C13   A    
C45   H32   S    
C67   H23   S    
C57   C58   A    
C29   H10   S    
N12   Ni2   S    
C74   H50   S    
C78   N15   A    
C33   C35   A    
C22   C24   A    
C9    C78   A    
C65   C66   A    
C56   H12   S    
C69   C70   A    
C49   N2    S    
C9    C65   S    
C82   H65   S    
C10   C11   A    
C9    C84   A    
C79   C80   S    
C53   H21   S    
C13   C34   S    
C20   C21   A    
C8    C67   A    
C80   H57   S    
N7    Ni4   S    
C6    C39   S    
C71   H41   S    
C21   C22   A    
C51   H19   S    
C8    C35   S    
C45   N13   A    
C28   N7    A    
C15   H4    S    
N14   N17   A    
