data_mof_unit_12709.cif
_audit_creation_date              2012-12-10T20:25:43-0500
_audit_creation_method            fapswitch 2.2
_symmetry_space_group_name_H-M    P1
_symmetry_Int_Tables_number       1
_space_group_crystal_system       triclinic
_cell_length_a                    8.585358
_cell_length_b                    10.677097
_cell_length_c                    9.903518
_cell_angle_alpha                 90.010963
_cell_angle_beta                  98.425255
_cell_angle_gamma                 90.826071
_cell_volume                      897.929681555

loop_
_atom_site_label
_atom_site_type_symbol
_atom_type_description
_atom_site_fract_x
_atom_site_fract_y
_atom_site_fract_z
_atom_type_partial_charge
C1    C     C_R   0.498516 0.260189 0.499988 0.887771
C2    C     C_R   0.377013 0.448335 0.913472 0.188304
C3    C     C_3   0.316039 0.316921 0.899098 -0.561923
C4    C     C_R   0.201411 0.501062 0.464518 1.025446
C5    C     C_3   0.315563 0.317296 0.053181 -0.214069
C6    C     C_R   0.498367 0.739688 0.499958 0.895595
C7    C     C_R   0.798712 0.507986 0.535674 0.819625
C8    C     C_2   0.036242 0.493654 0.448394 -0.435303
C9    C     C_2   0.964106 0.530860 0.551835 0.307858
C10   C     C_R   0.526762 0.064085 0.622244 0.106189
C11   C     C_R   0.484762 0.128112 0.500319 -0.178926
C12   C     C_R   0.421187 0.934124 0.381158 -0.197761
C13   C     C_R   0.421603 0.063526 0.381268 -0.152635
C14   C     C_2   0.153143 0.310494 0.092673 0.447179
C15   C     C_3   0.018796 0.582159 0.782415 -0.178415
C16   C     C_3   0.768001 0.210715 0.894757 -0.280595
C17   C     C_2   0.736531 0.640584 0.168274 0.409210
C18   C     C_R   0.483944 0.871227 0.500325 -0.093701
C19   C     C_R   0.525881 0.936261 0.622256 0.061206
C20   C     C_3   0.674901 0.930109 0.721187 -0.504712
C21   C     C_3   0.676869 0.072357 0.720302 0.367460
C22   C     C_R   0.376438 0.448855 0.055292 0.107026
C23   C     C_R   0.612221 0.565384 0.084719 0.005372
C24   C     C_R   0.610551 0.564682 0.940806 -0.122646
H1    H     H_    0.976623 0.444520 0.358704 0.164071
H2    H     H_    0.776084 0.114086 0.672812 0.051724
H3    H     H_    0.061996 0.372975 0.046030 0.052248
H4    H     H_    0.004518 0.479373 0.796946 0.111235
H5    H     H_    0.918329 0.633699 0.811737 0.179017
H6    H     H_    0.124577 0.613669 0.852711 0.181885
H7    H     H_    0.766580 0.291233 0.823331 0.167740
H8    H     H_    0.886085 0.166917 0.910708 0.175628
H9    H     H_    0.744721 0.247706 0.994478 0.199490
H10   H     H_    0.719632 0.677924 0.265866 0.136457
H11   H     H_    0.697150 0.617706 0.895767 0.163815
H12   H     H_    0.197440 0.310866 0.836745 0.177220
H13   H     H_    0.402911 0.251887 0.866346 0.270168
H14   H     H_    0.401362 0.251636 0.108907 0.192537
H15   H     H_    0.379291 0.112222 0.287823 0.201244
H16   H     H_    0.378682 0.884072 0.287498 0.181308
H17   H     H_    0.655142 0.888275 0.820238 0.236195
H18   H     H_    0.773479 0.888721 0.675636 0.169888
N1    N     N_R   0.498950 0.499140 0.142680 -0.153242
N2    N     N_R   0.498950 0.499180 0.857030 -0.114732
O1    O     O_R   0.500020 0.316790 0.614690 -0.612684
O2    O     O_3   0.038939 0.615678 0.648473 -0.599020
O3    O     O_3   0.649676 0.121932 0.847127 -0.587690
O4    O     O_2   0.860710 0.664572 0.126725 -0.615378
O5    O     O_R   0.500000 0.316760 0.385350 -0.614049
O6    O     O_R   0.271760 0.500010 0.587850 -0.569071
O7    O     O_R   0.271740 0.499970 0.358500 -0.610000
O8    O     O_R   0.500000 0.683240 0.614650 -0.601843
O9    O     O_R   0.499980 0.683210 0.385310 -0.660753
O10   O     O_R   0.728260 0.500030 0.641500 -0.643503
O11   O     O_R   0.728240 0.499990 0.412150 -0.656624
O12   O     O_2   0.122509 0.235022 0.177782 -0.592297
Zn1   Zn    Zn3+2 0.500010 0.500020 0.653130 0.962215
Zn2   Zn    Zn3+2 0.499990 0.499980 0.346870 0.949244

loop_
_geom_bond_atom_site_label_1
_geom_bond_atom_site_label_2
_ccdc_geom_bond_type
C2    C22   A    
C20   H18   S    
O9    Zn2   S    
C12   H16   S    
C15   H5    S    
C17   H10   S    
C14   H3    S    
C16   H8    S    
C10   C19   A    
C14   O12   D    
C19   C20   S    
C7    O10   A    
C17   O4    D    
C7    O11   A    
N2    Zn1   S    
C4    C8    S    
O1    Zn1   S    
C2    C3    S    
C15   H4    S    
C9    O2    S    
O7    Zn2   S    
C5    H14   S    
C12   C13   A    
C16   H7    S    
C8    H1    S    
C11   C13   A    
C1    O1    A    
C5    C14   S    
C17   C23   S    
C3    H12   S    
C24   N2    A    
C16   O3    S    
C21   H2    S    
C20   H17   S    
C10   C21   S    
C16   H9    S    
C6    C18   S    
C6    O9    A    
C13   H15   S    
C24   H11   S    
C10   C11   A    
C5    C22   S    
C23   C24   A    
C3    C5    S    
C23   N1    A    
C20   C21   S    
C3    H13   S    
C15   H6    S    
C18   C19   A    
O8    Zn1   S    
O11   Zn2   S    
C12   C18   A    
C7    C9    S    
N1    Zn2   S    
C4    O7    A    
C15   O2    S    
C6    O8    A    
O6    Zn1   S    
C1    O5    A    
C2    N2    A    
O5    Zn2   S    
C22   N1    A    
C4    O6    A    
C8    C9    D    
C21   O3    S    
O10   Zn1   S    
C1    C11   S    
