data_mof_unit_16024.cif
_audit_creation_date              2012-12-11T16:48:30-0500
_audit_creation_method            fapswitch 2.2
_symmetry_space_group_name_H-M    P1
_symmetry_Int_Tables_number       1
_space_group_crystal_system       triclinic
_cell_length_a                    17.436114
_cell_length_b                    24.473658
_cell_length_c                    15.001547
_cell_angle_alpha                 90.154795
_cell_angle_beta                  125.624907
_cell_angle_gamma                 89.541591
_cell_volume                      5203.29700964

loop_
_atom_site_label
_atom_site_type_symbol
_atom_type_description
_atom_site_fract_x
_atom_site_fract_y
_atom_site_fract_z
_atom_type_partial_charge
C1    C     C_R   0.350948 0.349481 0.909545 -0.051310
C2    C     C_R   0.524357 0.496760 0.698587 0.065341
C3    C     C_R   0.060605 0.848635 0.908763 -0.125973
C4    C     C_R   0.375335 0.320290 0.000537 0.094632
C5    C     C_R   0.625808 0.318647 0.001336 0.093566
C6    C     C_R   0.874446 0.820170 0.000507 0.088746
C7    C     C_R   0.125295 0.818826 0.001224 0.104390
C8    C     C_3   0.575086 0.340210 0.475978 -0.381988
C9    C     C_3   0.506153 0.293239 0.412865 -0.250300
C10   C     C_3   0.558223 0.240661 0.422758 -0.944396
C11   C     C_3   0.386902 0.419149 0.474064 -0.379100
C12   C     C_3   0.318092 0.372882 0.405854 -0.320148
C13   C     C_R   0.066281 0.996096 0.366084 0.065708
C14   C     C_3   0.215922 0.391312 0.349842 -0.781246
C15   C     C_3   0.072443 0.840286 0.474803 -0.376218
C16   C     C_3   0.002553 0.793696 0.411887 -0.258699
C17   C     C_3   0.053583 0.740625 0.421975 -0.935294
C18   C     C_3   0.886901 0.920613 0.475895 -0.378542
C19   C     C_3   0.816856 0.874849 0.407695 -0.315778
C20   C     C_3   0.715366 0.893861 0.354320 -0.796785
C21   C     C_R   0.027111 0.996837 0.701388 0.068323
C22   C     C_R   0.175100 0.498163 0.687416 0.142090
C23   C     C_R   0.797823 0.498194 0.366877 0.121566
C24   C     C_R   0.702305 0.998469 0.632998 0.125857
C25   C     C_R   0.324840 0.997521 0.312291 0.137985
C26   C     C_2   0.922894 0.453503 0.534005 -0.080804
C27   C     C_2   0.023993 0.457378 0.618937 -0.055730
C28   C     C_2   0.477185 0.956794 0.381891 -0.053877
C29   C     C_R   0.650487 0.349164 0.091437 -0.008669
C30   C     C_2   0.578401 0.953433 0.466753 -0.107436
C31   C     C_2   0.872445 0.498680 0.483330 -0.211101
C32   C     C_2   0.073610 0.498089 0.615975 -0.222054
C33   C     C_2   0.426202 0.997271 0.384372 -0.218038
C34   C     C_2   0.627203 0.998832 0.516658 -0.216104
C35   C     C_R   0.284195 0.698890 0.109418 0.067859
C36   C     C_R   0.713658 0.703401 0.895175 0.057712
C37   C     C_R   0.777133 0.194600 0.107691 0.072309
C38   C     C_R   0.205151 0.209358 0.894801 0.048554
C39   C     C_R   0.250337 0.669997 0.012464 0.123993
C40   C     C_R   0.850143 0.849608 0.909461 -0.018541
C41   C     C_R   0.746421 0.675332 0.992726 0.124972
C42   C     C_R   0.746240 0.167622 0.009493 0.117609
C43   C     C_R   0.240361 0.179454 0.990722 0.131708
C44   C     C_R   0.158808 0.681341 0.919104 -0.175006
C45   C     C_R   0.837807 0.685846 0.086380 -0.172589
C46   C     C_R   0.657000 0.181444 0.914484 -0.177393
C47   C     C_R   0.334045 0.186807 0.082062 -0.170820
C48   C     C_R   0.611089 0.228951 0.913240 -0.167981
C49   C     C_R   0.384496 0.231110 0.083577 -0.179478
C50   C     C_R   0.111553 0.728302 0.916988 -0.170216
C51   C     C_R   0.149959 0.849102 0.091330 -0.037913
C52   C     C_R   0.886229 0.731326 0.087480 -0.176735
C53   C     C_R   0.655611 0.262797 0.006418 0.103620
C54   C     C_R   0.339330 0.267561 0.994630 0.104567
C55   C     C_R   0.157454 0.763837 0.007365 0.100174
C56   C     C_R   0.841694 0.766103 0.995636 0.106209
C57   C     C_R   0.402496 0.621394 0.093060 -0.131072
C58   C     C_R   0.594340 0.627689 0.909149 -0.122193
C59   C     C_R   0.900921 0.120399 0.091921 -0.126944
C60   C     C_R   0.091010 0.130209 0.907943 -0.127040
C61   C     C_R   0.735215 0.242863 0.104419 -0.079437
C62   C     C_R   0.316069 0.638340 0.003905 0.065746
C63   C     C_R   0.251941 0.254631 0.899550 -0.069422
C64   C     C_R   0.241068 0.746843 0.104259 -0.073588
C65   C     C_R   0.758363 0.749657 0.898727 -0.078290
C66   C     C_3   0.826571 0.268567 0.194687 0.497357
C67   C     C_3   0.163067 0.288011 0.827569 0.502822
C68   C     C_3   0.332519 0.775776 0.183702 0.502085
C69   C     C_3   0.668082 0.779620 0.815866 0.498850
C70   C     C_3   0.380236 0.721899 0.193946 -0.609973
C71   C     C_3   0.618548 0.727756 0.809048 -0.611768
C72   C     C_3   0.872657 0.214706 0.200673 -0.615729
C73   C     C_R   0.681090 0.643104 0.999518 0.061226
C74   C     C_3   0.110823 0.236821 0.817953 -0.602851
C75   C     C_R   0.562069 0.444640 0.589173 0.057374
C76   C     C_R   0.586555 0.441992 0.517414 0.063871
C77   C     C_R   0.062647 0.944715 0.590053 0.058638
C78   C     C_R   0.085959 0.942029 0.517232 0.066415
C79   C     C_R   0.563327 0.493935 0.636604 0.055701
C80   C     C_R   0.599166 0.491335 0.479458 0.042422
C81   C     C_R   0.065552 0.993889 0.638843 0.055145
C82   C     C_R   0.098606 0.991351 0.479274 0.042002
C83   C     C_R   0.602827 0.539934 0.622421 -0.182750
C84   C     C_R   0.813275 0.136054 0.002047 0.064795
C85   C     C_R   0.620280 0.538783 0.542697 -0.179929
C86   C     C_R   0.104867 0.039790 0.624113 -0.182141
C87   C     C_R   0.120756 0.038705 0.543063 -0.179602
C88   C     C_3   0.521228 0.394124 0.458489 -0.135124
C89   C     C_3   0.490529 0.399775 0.534701 -0.129537
C90   C     C_3   0.019689 0.894550 0.458205 -0.137778
C91   C     C_3   0.989990 0.900422 0.535343 -0.130742
C92   C     C_R   0.550616 0.452360 0.301221 -0.149947
C93   C     C_R   0.508619 0.452114 0.741042 -0.133557
C94   C     C_R   0.050200 0.952358 0.301074 -0.143914
C95   C     C_R   0.176229 0.147076 0.997896 0.062226
C96   C     C_R   0.010257 0.952179 0.742761 -0.132512
C97   C     C_R   0.230869 0.544264 0.722121 -0.156826
C98   C     C_R   0.752683 0.544145 0.304357 -0.160814
C99   C     C_R   0.747161 0.044314 0.695256 -0.162652
C100  C     C_R   0.268807 0.043934 0.276986 -0.151146
C101  C     C_R   0.550469 0.543068 0.305238 -0.138376
C102  C     C_R   0.497412 0.543318 0.726771 -0.141410
C103  C     C_R   0.050283 0.043079 0.305160 -0.141285
C104  C     C_R   0.999842 0.043424 0.729092 -0.138213
C105  C     C_R   0.232901 0.452674 0.731314 -0.052189
C106  C     C_R   0.566856 0.496079 0.366292 0.068588
C107  C     C_R   0.752457 0.453079 0.302121 -0.019048
C108  C     C_R   0.747991 0.953271 0.698101 -0.027651
C109  C     C_R   0.267462 0.952262 0.268832 -0.053867
C110  C     C_R   0.312386 0.627597 0.910267 -0.084763
C111  C     C_R   0.687416 0.627453 0.092639 -0.098933
C112  C     C_R   0.809728 0.124253 0.908540 -0.092170
C113  C     C_R   0.183490 0.131548 0.091211 -0.097767
C114  C     C_R   0.438876 0.349890 0.092824 -0.109178
C115  C     C_R   0.560916 0.348663 0.908906 -0.139427
C116  C     C_R   0.938442 0.849940 0.092706 -0.127057
H1    H     H_    0.313019 0.335123 0.825910 0.051001
H2    H     H_    0.867613 0.662660 0.161227 0.118400
H3    H     H_    0.873118 0.956079 0.421976 0.198238
H4    H     H_    0.627849 0.159474 0.838550 0.120306
H5    H     H_    0.364698 0.161844 0.154974 0.117652
H6    H     H_    0.546349 0.241482 0.836932 0.110454
H7    H     H_    0.454093 0.239408 0.156934 0.120502
H8    H     H_    0.044347 0.739136 0.841941 0.109209
H9    H     H_    0.953334 0.741766 0.162544 0.121756
H10   H     H_    0.830241 0.277328 0.269815 -0.008591
H11   H     H_    0.150037 0.300787 0.748752 -0.018762
H12   H     H_    0.342019 0.788481 0.260719 -0.015618
H13   H     H_    0.687941 0.335270 0.175374 0.055543
H14   H     H_    0.660074 0.789236 0.738463 -0.006684
H15   H     H_    0.427176 0.723296 0.166393 0.249855
H16   H     H_    0.572082 0.732143 0.836975 0.250536
H17   H     H_    0.923696 0.217743 0.179247 0.248821
H18   H     H_    0.069253 0.240210 0.852528 0.251250
H19   H     H_    0.413096 0.702281 0.275457 0.154785
H20   H     H_    0.584913 0.706869 0.728656 0.152759
H21   H     H_    0.900065 0.191998 0.278010 0.157313
H22   H     H_    0.071264 0.218812 0.734358 0.151788
H23   H     H_    0.611336 0.577946 0.664298 0.124223
H24   H     H_    0.812259 0.835488 0.825696 0.052122
H25   H     H_    0.638267 0.576556 0.521900 0.120588
H26   H     H_    0.114265 0.077733 0.666572 0.125352
H27   H     H_    0.138633 0.076449 0.522057 0.123077
H28   H     H_    0.463855 0.402835 0.371037 0.155424
H29   H     H_    0.508902 0.364180 0.589902 0.136562
H30   H     H_    0.962142 0.903582 0.370958 0.154237
H31   H     H_    0.007880 0.864679 0.590066 0.136712
H32   H     H_    0.428636 0.622547 0.178193 0.114307
H33   H     H_    0.565515 0.635667 0.825393 0.105404
H34   H     H_    0.926390 0.120901 0.176767 0.114184
H35   H     H_    0.187376 0.834955 0.175119 0.048846
H36   H     H_    0.060457 0.139482 0.823940 0.104402
H37   H     H_    0.572538 0.410745 0.326161 0.093518
H38   H     H_    0.520742 0.409625 0.734009 0.104878
H39   H     H_    0.071717 0.910702 0.325969 0.096261
H40   H     H_    0.022528 0.909705 0.735868 0.105726
H41   H     H_    0.207340 0.585452 0.692897 0.095000
H42   H     H_    0.762364 0.585510 0.334637 0.095158
H43   H     H_    0.736898 0.085667 0.664674 0.098330
H44   H     H_    0.291948 0.085099 0.305151 0.092788
H45   H     H_    0.568796 0.584378 0.336026 0.087837
H46   H     H_    0.897709 0.538455 0.521689 0.136088
H47   H     H_    0.488991 0.583645 0.693503 0.090051
H48   H     H_    0.068466 0.084406 0.335907 0.091850
H49   H     H_    0.992954 0.083835 0.697006 0.087674
H50   H     H_    0.212873 0.410179 0.715630 0.094933
H51   H     H_    0.760891 0.411157 0.329077 0.072128
H52   H     H_    0.740012 0.911267 0.671783 0.070205
H53   H     H_    0.288062 0.909682 0.285108 0.102154
H54   H     H_    0.256958 0.639643 0.827761 0.089958
H55   H     H_    0.744954 0.634055 0.177535 0.094832
H56   H     H_    0.751470 0.130958 0.823881 0.094741
H57   H     H_    0.040072 0.531920 0.558629 0.137667
H58   H     H_    0.237761 0.143049 0.174367 0.091311
H59   H     H_    0.480057 0.336448 0.177336 0.081698
H60   H     H_    0.516894 0.334086 0.825402 0.081458
H61   H     H_    0.980274 0.836430 0.177177 0.087022
H62   H     H_    0.016980 0.834003 0.825250 0.075427
H63   H     H_    0.896276 0.413192 0.500279 0.123798
H64   H     H_    0.059137 0.423000 0.674463 0.175568
H65   H     H_    0.443280 0.922351 0.326855 0.183649
H66   H     H_    0.606591 0.913194 0.500852 0.125304
H67   H     H_    0.845049 0.350202 0.002158 0.379502
H68   H     H_    0.458591 0.031101 0.441442 0.139535
H69   H     H_    0.185028 0.355095 0.061149 0.374114
H70   H     H_    0.340427 0.839433 0.967357 0.381033
H71   H     H_    0.672159 0.859237 0.027194 0.375062
H72   H     H_    0.598959 0.246583 0.387882 0.256879
H73   H     H_    0.607064 0.228147 0.510104 0.265986
H74   H     H_    0.506410 0.207516 0.376622 0.248645
H75   H     H_    0.464141 0.285816 0.445688 0.198662
H76   H     H_    0.456844 0.304237 0.324621 0.199786
H77   H     H_    0.620774 0.344976 0.447459 0.182907
H78   H     H_    0.622582 0.329718 0.564750 0.202524
H79   H     H_    0.600418 0.038545 0.477803 0.139546
H80   H     H_    0.203680 0.403610 0.411978 0.252436
H81   H     H_    0.199185 0.426319 0.294100 0.254358
H82   H     H_    0.167922 0.357115 0.300774 0.277324
H83   H     H_    0.327247 0.359431 0.341778 0.210440
H84   H     H_    0.332621 0.337417 0.459914 0.197569
H85   H     H_    0.373591 0.432748 0.534437 0.195666
H86   H     H_    0.372791 0.454586 0.419948 0.198871
H87   H     H_    0.094550 0.745892 0.387227 0.257860
H88   H     H_    0.102083 0.728103 0.509358 0.266217
H89   H     H_    0.001107 0.707778 0.375860 0.248162
H90   H     H_    0.128432 0.657694 0.844764 0.118685
H91   H     H_    0.960425 0.786931 0.444770 0.198977
H92   H     H_    0.953445 0.804698 0.323619 0.199514
H93   H     H_    0.117709 0.844605 0.445630 0.185155
H94   H     H_    0.120258 0.829639 0.563480 0.203191
H95   H     H_    0.705131 0.905911 0.418144 0.247134
H96   H     H_    0.698268 0.929182 0.299125 0.259678
H97   H     H_    0.666354 0.860038 0.305268 0.278500
H98   H     H_    0.824339 0.861610 0.342207 0.211775
H99   H     H_    0.831629 0.839142 0.461336 0.194335
H100  H     H_    0.874516 0.934429 0.536927 0.195386
N1    N     N_R   0.395410 0.396350 0.944340 -0.036490
N2    N     N_R   0.474920 0.471030 0.794350 -0.044046
N3    N     N_R   0.025080 0.971030 0.205650 -0.036956
N4    N     N_R   0.974920 0.971030 0.794350 -0.046920
N5    N     N_R   0.320260 0.527820 0.794570 -0.044313
N6    N     N_R   0.679740 0.527820 0.205430 -0.042377
N7    N     N_R   0.820260 0.027820 0.794570 -0.043302
N8    N     N_R   0.179740 0.027820 0.205430 -0.042848
N9    N     N_R   0.524590 0.527840 0.205200 -0.039195
N10   N     N_R   0.475410 0.527840 0.794800 -0.039302
N11   N     N_R   0.024590 0.027840 0.205200 -0.040363
N12   N     N_R   0.604590 0.396350 0.055660 -0.046535
N13   N     N_R   0.975410 0.027840 0.794800 -0.039500
N14   N     N_R   0.320750 0.471000 0.795020 -0.052221
N15   N     N_R   0.679250 0.471000 0.204980 -0.045603
N16   N     N_R   0.820750 0.971000 0.795020 -0.043951
N17   N     N_R   0.179250 0.971000 0.204980 -0.051793
N18   N     N_R   0.393620 0.602490 0.942710 -0.042491
N19   N     N_R   0.606380 0.602490 0.057290 -0.042162
N20   N     N_R   0.893620 0.102490 0.942710 -0.043321
N21   N     N_R   0.106380 0.102490 0.057290 -0.040963
N22   N     N_R   0.451720 0.396350 0.057510 -0.044165
N23   N     N_R   0.895410 0.896350 0.944340 -0.041975
N24   N     N_R   0.548280 0.396350 0.942490 -0.046286
N25   N     N_R   0.951720 0.896350 0.057510 -0.046320
N26   N     N_R   0.048280 0.896350 0.942490 -0.044563
N27   N     N_R   0.104590 0.896350 0.055660 -0.041264
N28   N     N_R   0.449930 0.602500 0.055880 -0.042513
N29   N     N_R   0.550070 0.602500 0.944120 -0.041293
N30   N     N_R   0.949930 0.102500 0.055880 -0.042504
N31   N     N_R   0.050070 0.102500 0.944120 -0.040631
N32   N     N_R   0.525080 0.471030 0.205650 -0.036863
Ni1   Ni    Ni4+2 0.435420 0.434270 0.870230 0.213043
Ni2   Ni    Ni4+2 0.564580 0.434270 0.129770 0.215551
Ni3   Ni    Ni4+2 0.935420 0.934270 0.870230 0.213857
Ni4   Ni    Ni4+2 0.064580 0.934270 0.129770 0.214162
Ni5   Ni    Ni4+2 0.563430 0.564580 0.128740 0.223949
Ni6   Ni    Ni4+2 0.436570 0.564580 0.871260 0.230180
Ni7   Ni    Ni4+2 0.063430 0.064580 0.128740 0.228212
Ni8   Ni    Ni4+2 0.936570 0.064580 0.871260 0.225121
O1    O     O_2   0.840357 0.377565 0.173733 -0.306921
O2    O     O_2   0.670453 0.888471 0.852793 -0.303077
O3    O     O_2   0.531911 0.837914 0.807701 -0.274943
O4    O     O_3   0.686920 0.825556 0.003020 -0.531507
O5    O     O_2   0.974156 0.320384 0.219543 -0.295532
O6    O     O_3   0.823025 0.317412 0.019456 -0.524627
O7    O     O_2   0.188874 0.393626 0.895564 -0.322134
O8    O     O_2   0.040651 0.350680 0.838204 -0.286078
O9    O     O_3   0.192622 0.322719 0.027108 -0.530227
O10   O     O_2   0.321549 0.881633 0.121411 -0.324338
O11   O     O_2   0.468658 0.832069 0.191594 -0.308795
O12   O     O_3   0.322697 0.809010 0.995240 -0.522442
S1    S     S_3+6 0.868319 0.323292 0.153322 -0.039172
S2    S     S_3+6 0.144832 0.341377 0.896664 -0.050489
S3    S     S_3+6 0.363078 0.827213 0.123757 -0.053875
S4    S     S_3+6 0.637358 0.835328 0.868791 -0.033145

loop_
_geom_bond_atom_site_label_1
_geom_bond_atom_site_label_2
_ccdc_geom_bond_type
C45   H2    S    
C34   H79   S    
C77   C78   A    
C88   H28   S    
C75   C76   A    
C102  H47   S    
C107  N15   A    
C78   C82   A    
C24   C99   A    
C69   S4    S    
C19   C20   S    
C7    C55   S    
O9    S2    S    
C16   H91   S    
C91   H31   S    
C92   N32   A    
H69   O9    S    
C57   C62   A    
C47   C49   A    
C96   H40   S    
C26   H63   S    
C78   C90   S    
C89   H29   S    
C14   H82   S    
C103  H48   S    
C84   C112  A    
C22   C32   S    
N4    N13   A    
C18   C91   S    
C64   C68   S    
C4    C114  A    
C93   H38   S    
C3    H62   S    
C1    N1    A    
C69   H14   S    
C57   N28   A    
C3    C7    A    
O10   S3    D    
C48   H6    S    
C115  N24   A    
N6    Ni5   S    
C46   C48   A    
C54   C63   A    
C100  N8    A    
C103  N11   A    
C82   C87   A    
C49   H7    S    
C80   C106  S    
C102  N10   A    
C105  H50   S    
N21   N31   A    
C101  N9    A    
C18   C19   S    
C42   C46   A    
C20   H95   S    
C37   C42   A    
C69   C71   S    
C99   N7    A    
C11   C89   S    
C94   N3    A    
C44   C50   A    
C2    C79   S    
C71   H16   S    
C116  N25   A    
C21   C104  A    
C53   C61   A    
N7    Ni8   S    
O7    S2    D    
C66   C72   S    
C98   H42   S    
C35   C70   S    
N32   Ni2   S    
C8    C9    S    
N5    N14   A    
C10   H72   S    
C8    H78   S    
C35   C64   A    
C24   C108  A    
C13   C103  A    
C9    H76   S    
O2    S4    D    
C9    C10   S    
N18   Ni6   S    
C5    C29   A    
C81   C86   A    
C58   H33   S    
C25   C109  A    
C114  N22   A    
C68   H12   S    
N31   Ni8   S    
N9    N32   A    
C113  N21   A    
C104  H49   S    
C31   H46   S    
C51   H35   S    
N24   Ni1   S    
C22   C97   A    
N1    N22   A    
C116  H61   S    
C5    C115  A    
C30   H66   S    
C67   S2    S    
C36   C41   A    
C37   C72   S    
N25   Ni4   S    
O11   S3    D    
C61   C66   S    
C83   H23   S    
C77   C91   S    
C109  H53   S    
C73   C111  A    
N12   Ni2   S    
C58   N29   A    
C48   C53   A    
C14   H81   S    
C107  H51   S    
H71   O4    S    
C10   H73   S    
C15   C16   S    
C30   C34   D    
N23   Ni3   S    
C27   H64   S    
N20   N30   A    
C94   H39   S    
C42   C84   S    
C59   C84   A    
N19   Ni5   S    
C68   S3    S    
C85   H25   S    
C71   H20   S    
C60   H36   S    
C36   C65   A    
C16   C17   S    
N11   Ni7   S    
C45   C52   A    
C110  N18   A    
C74   H18   S    
C96   N4    A    
C72   H17   S    
C13   C82   S    
C24   C34   S    
C76   C88   S    
C66   H10   S    
C93   N2    A    
C8    C88   S    
C11   H86   S    
C23   C31   S    
N28   Ni5   S    
O4    S4    S    
C17   H88   S    
C35   C39   A    
N8    N17   A    
C63   C67   S    
C97   N5    A    
C80   C85   A    
C67   H11   S    
C74   H22   S    
C100  H44   S    
C25   C100  A    
C43   C95   S    
C62   C110  A    
O12   S3    S    
C77   C81   A    
C11   C12   S    
C23   C107  A    
C55   C64   A    
C33   H68   S    
C44   H90   S    
C99   H43   S    
C12   H84   S    
C50   H8    S    
C8    H77   S    
N23   N25   A    
N16   Ni3   S    
C10   H74   S    
C41   C45   A    
N20   Ni8   S    
C6    C116  A    
C92   H37   S    
C67   C74   S    
C92   C106  A    
C72   H21   S    
C83   C85   A    
C12   C14   S    
N6    N15   A    
C18   H100  S    
C111  N19   A    
C26   C27   S    
C70   H19   S    
N2    Ni1   S    
C6    C40   A    
N4    Ni3   S    
O1    S1    D    
N26   Ni3   S    
C90   C91   S    
N14   Ni1   S    
C110  H54   S    
C15   H93   S    
N13   Ni8   S    
N7    N16   A    
C86   H26   S    
C38   C63   A    
C108  N16   A    
C59   H34   S    
H70   O12   S    
C101  C106  A    
C39   C62   S    
C14   H80   S    
N5    Ni6   S    
C114  H59   S    
C21   C81   S    
O8    S2    D    
N27   Ni4   S    
C49   C54   A    
C4    C54   S    
C27   C32   D    
C86   C87   A    
C29   H13   S    
C26   C31   D    
N21   Ni7   S    
C2    C93   A    
C51   N27   A    
C76   C80   A    
C6    C56   S    
C16   H92   S    
C46   H4    S    
N18   N28   A    
C28   C33   D    
C37   C61   A    
C52   H9    S    
C36   C71   S    
C28   C30   S    
N12   N24   A    
C39   C44   A    
C21   C96   A    
C58   C73   A    
C40   N23   A    
H67   O6    S    
C38   C74   S    
N29   Ni6   S    
C3    N26   A    
C9    H75   S    
C50   C55   A    
C13   C94   A    
N3    Ni4   S    
C1    C4    A    
C98   N6    A    
C105  N14   A    
C19   H98   S    
C17   H89   S    
C5    C53   S    
C7    C51   A    
C38   C43   A    
C90   H30   S    
C66   S1    S    
C112  N20   A    
C20   H97   S    
O6    S1    S    
C79   C83   A    
C115  H60   S    
C104  N13   A    
C112  H56   S    
C32   H57   S    
C43   C47   A    
C95   C113  A    
C28   H65   S    
C65   C69   S    
N26   N27   A    
C101  H45   S    
C70   H15   S    
C12   H83   S    
N19   N29   A    
C40   H24   S    
C59   N30   A    
C19   H99   S    
C20   H96   S    
C22   C105  A    
C108  H52   S    
C47   H5    S    
C75   C89   S    
C41   C73   S    
O5    S1    D    
C60   C95   A    
C52   C56   A    
C17   H87   S    
N10   Ni6   S    
C23   C98   A    
C87   H27   S    
C88   C89   S    
N8    Ni7   S    
C60   N31   A    
N9    Ni5   S    
N30   Ni7   S    
C57   H32   S    
C25   C33   S    
C15   H94   S    
C68   C70   S    
C2    C102  A    
C11   H85   S    
N1    Ni1   S    
C29   N12   A    
N3    N11   A    
C1    H1    S    
N15   Ni2   S    
C75   C79   A    
C18   H3    S    
N2    N10   A    
N22   Ni2   S    
O3    S4    D    
C56   C65   A    
N17   Ni4   S    
C97   H41   S    
C113  H58   S    
C15   C90   S    
C111  H55   S    
C109  N17   A    
