data_mof_unit_43250.cif
_audit_creation_date              2012-12-11T16:56:21-0500
_audit_creation_method            fapswitch 2.2
_symmetry_space_group_name_H-M    P1
_symmetry_Int_Tables_number       1
_space_group_crystal_system       triclinic
_cell_length_a                    7.050117
_cell_length_b                    14.693726
_cell_length_c                    16.135972
_cell_angle_alpha                 90.332175
_cell_angle_beta                  88.823869
_cell_angle_gamma                 90.23446
_cell_volume                      1671.17203151

loop_
_atom_site_label
_atom_site_type_symbol
_atom_type_description
_atom_site_fract_x
_atom_site_fract_y
_atom_site_fract_z
_atom_type_partial_charge
O1    O     O_R   0.505830 0.583360 0.413880 -0.556198
O2    O     O_R   0.175830 0.595460 0.585520 -0.526444
O3    O     O_R   0.005520 0.416640 0.586120 -0.555020
C1    C     C_R   0.344046 0.617563 0.614039 0.763783
O4    O     O_R   0.176120 0.594390 0.414490 -0.551909
O5    O     O_R   0.005810 0.415570 0.413870 -0.561345
C2    C     C_R   0.346448 0.615313 0.385480 0.742319
O6    O     O_R   0.505540 0.584430 0.586130 -0.522357
O7    O     O_3   0.339200 0.441330 0.500000 -0.369510
V1    V     V_3+5 0.064350 0.510880 0.500000 1.436495
O8    O     O_R   0.676100 0.404540 0.414480 -0.529222
C3    C     C_R   0.847198 0.384419 0.384256 0.707741
O9    O     O_R   0.675810 0.405610 0.585510 -0.502905
C4    C     C_R   0.843800 0.382097 0.611788 0.717044
V2    V     V_3+5 0.564340 0.489120 0.500000 1.512373
O10   O     O_3   0.839360 0.558670 0.500000 -0.378057
C5    C     C_2   0.725070 0.214436 0.790148 0.324434
C6    C     C_2   0.884609 0.189497 0.829682 -0.289018
H1    H     H_    0.014896 0.227751 0.818862 0.125594
C7    C     C_2   0.724651 0.295891 0.733897 0.208298
C8    C     C_2   0.854721 0.305445 0.671648 0.131478
C9    C     C_R   0.724470 0.187183 0.239940 -0.195964
C10   C     C_R   0.874240 0.186516 0.181279 -0.274311
C11   C     C_R   0.007416 0.257866 0.183845 0.525236
C12   C     C_R   0.011171 0.319323 0.251304 0.212365
C13   C     C_R   0.865201 0.316566 0.314713 -0.292207
C14   C     C_R   0.722312 0.250854 0.305687 0.003183
C15   C     C_3   0.517938 0.272586 0.298390 0.131959
C16   C     C_3   0.518067 0.210344 0.222821 0.791075
H2    H     H_    0.492000 0.345792 0.286154 0.089267
C17   C     C_R   0.525366 0.728211 0.702810 -0.179941
C18   C     C_R   0.354955 0.686838 0.682018 -0.170113
C19   C     C_R   0.200850 0.738002 0.709798 0.438043
C20   C     C_R   0.215889 0.773373 0.792523 0.330371
C21   C     C_R   0.383535 0.819825 0.813141 -0.265526
C22   C     C_R   0.537554 0.800089 0.760039 -0.173826
C23   C     C_3   0.734317 0.772968 0.779207 0.700271
C24   C     C_3   0.714086 0.690395 0.718928 0.741588
C25   C     C_R   0.465003 0.762592 0.322109 -0.023508
C26   C     C_R   0.357325 0.682231 0.316271 -0.229005
C27   C     C_R   0.258402 0.667225 0.241704 0.432290
C28   C     C_R   0.259786 0.734208 0.178441 -0.184597
H3    H     H_    0.187055 0.720410 0.121303 0.141226
C29   C     C_R   0.373118 0.813072 0.184381 -0.203823
C30   C     C_R   0.481726 0.822480 0.255207 -0.061191
C31   C     C_3   0.693141 0.832790 0.264610 0.800106
C32   C     C_3   0.670040 0.772941 0.342085 0.091616
H4    H     H_    0.745870 0.707514 0.343083 0.060786
O11   O     O_R   0.229930 0.912420 0.917160 -0.548123
O12   O     O_R   0.559420 0.902500 0.088780 -0.530677
O13   O     O_R   0.729660 0.081330 0.089380 -0.537129
C33   C     C_R   0.388697 0.879850 0.115984 0.694217
O14   O     O_R   0.559650 0.901420 0.917750 -0.538270
O15   O     O_R   0.729880 0.080250 0.917130 -0.511137
C34   C     C_R   0.392535 0.881105 0.887714 0.705315
O16   O     O_R   0.229700 0.913500 0.089410 -0.540166
O17   O     O_3   0.396250 0.055540 0.003280 -0.342114
V3    V     V_3+5 0.671130 0.986010 0.003260 1.516997
O18   O     O_R   0.059600 0.091310 0.917720 -0.549070
C35   C     C_R   0.891457 0.114887 0.891310 0.707918
O19   O     O_R   0.059370 0.092380 0.088750 -0.504461
C36   C     C_R   0.888576 0.115321 0.115927 0.771493
V4    V     V_3+5 0.171120 0.007820 0.003230 1.529180
O20   O     O_3   0.896130 0.938240 0.003240 -0.385446
O21   O     O_3   0.558138 0.166583 0.804018 -0.634514
H5    H     H_    0.461014 0.190030 0.766121 0.298343
O22   O     O_3   0.373447 0.142506 0.228991 -0.537443
C37   C     C_3   0.437275 0.058757 0.258878 -0.122702
H6    H     H_    0.504425 0.066255 0.320294 0.188692
H7    H     H_    0.534541 0.027264 0.212612 0.170876
H8    H     H_    0.313797 0.012678 0.266910 0.111049
O23   O     O_3   0.145077 0.796354 0.648263 -0.635296
H9    H     H_    0.155550 0.860127 0.668324 0.306336
O24   O     O_3   0.107348 0.733759 0.854274 -0.631820
H10   H     H_    0.164408 0.744493 0.909104 0.288915
O25   O     O_3   0.757241 0.750357 0.863305 -0.620560
H11   H     H_    0.654689 0.707557 0.880558 0.275855
O26   O     O_3   0.866982 0.837415 0.748748 -0.572901
C38   C     C_3   0.854826 0.922199 0.789103 -0.119971
H12   H     H_    0.885334 0.915003 0.855385 0.205092
H13   H     H_    0.716249 0.955540 0.778895 0.136393
H14   H     H_    0.965845 0.967565 0.762263 0.110274
O27   O     O_3   0.689247 0.604849 0.758573 -0.576310
C39   C     C_3   0.862369 0.558577 0.766864 -0.159924
H15   H     H_    0.965036 0.598832 0.802491 0.172404
H16   H     H_    0.924156 0.539096 0.705657 0.164113
H17   H     H_    0.834883 0.494914 0.801729 0.146260
O28   O     O_3   0.841128 0.686816 0.648508 -0.551941
C40   C     C_3   0.797122 0.745715 0.582270 -0.034713
H18   H     H_    0.783342 0.817698 0.602563 0.156287
H19   H     H_    0.666766 0.724135 0.550533 0.140093
H20   H     H_    0.914675 0.741984 0.535721 0.162725
O29   O     O_3   0.192660 0.580875 0.223237 -0.546268
C41   C     C_3   0.998887 0.573482 0.244912 -0.167750
H21   H     H_    0.980418 0.528392 0.298557 0.159528
H22   H     H_    0.921817 0.542687 0.192388 0.138543
H23   H     H_    0.932641 0.638323 0.262821 0.107730
O30   O     O_3   0.739373 0.924158 0.284784 -0.575731
C42   C     C_3   0.937369 0.939032 0.283664 -0.181832
H24   H     H_    0.016654 0.883014 0.313381 0.126412
H25   H     H_    0.967094 0.002774 0.318283 0.154654
H26   H     H_    0.989660 0.948433 0.218924 0.170522
O31   O     O_3   0.814296 0.796306 0.199596 -0.572216
C43   C     C_3   0.741612 0.721653 0.153918 -0.303720
H27   H     H_    0.660390 0.672496 0.192781 0.112530
H28   H     H_    0.861894 0.684874 0.124396 0.166387
H29   H     H_    0.657103 0.744460 0.101163 0.177370
O32   O     O_3   0.687304 0.822543 0.415912 -0.633776
H30   H     H_    0.825326 0.830520 0.423964 0.282672
O33   O     O_3   0.583248 0.360392 0.743285 -0.649014
H31   H     H_    0.509157 0.346603 0.794603 0.291932
O34   O     O_3   0.996059 0.240852 0.662083 -0.662249
H32   H     H_    0.070982 0.254349 0.610950 0.302486
O35   O     O_3   0.135306 0.269371 0.118684 -0.489865
C44   C     C_3   0.050402 0.323908 0.058204 -0.133725
H33   H     H_    0.922145 0.290441 0.032604 0.070892
H34   H     H_    0.153520 0.333539 0.006115 0.157004
H35   H     H_    0.013912 0.392484 0.083386 0.139204
O36   O     O_3   0.149996 0.385372 0.246470 -0.619442
H36   H     H_    0.191424 0.401693 0.302310 0.307478
O37   O     O_3   0.416067 0.238067 0.366943 -0.620313
H37   H     H_    0.281604 0.254192 0.358646 0.307352
O38   O     O_3   0.501319 0.258247 0.147859 -0.595648
H38   H     H_    0.588052 0.311727 0.148172 0.241771

loop_
_geom_bond_atom_site_label_1
_geom_bond_atom_site_label_2
_ccdc_geom_bond_type
C11   O35   S    
O29   C41   S    
O11   V4    S    
C9    C16   S    
C24   O27   S    
C27   C28   A    
C21   C22   A    
C39   H17   S    
C1    O6    A    
C43   H28   S    
O35   C44   S    
O38   H38   S    
O15   C35   A    
C30   C31   S    
C13   C14   A    
C4    C8    S    
C25   C32   S    
C15   C16   S    
C39   H16   S    
C6    H1    S    
C17   C22   A    
O5    C3    A    
V2    O10   S    
C5    C7    S    
O32   H30   S    
C20   C21   A    
O19   V4    S    
O33   H31   S    
O34   H32   S    
C19   O23   S    
C16   O22   S    
O8    V2    S    
C10   C36   S    
C27   O29   S    
C17   C18   A    
C37   H6    S    
C44   H34   S    
O12   C33   A    
C10   C11   A    
O17   V4    S    
O1    V2    S    
C40   H19   S    
O7    V1    S    
C25   C30   A    
O28   C40   S    
C29   C33   S    
C31   O30   S    
O18   C35   A    
O9    C4    A    
C41   H21   S    
O13   C36   A    
C28   C29   A    
C12   O36   S    
C43   H27   S    
C5    C6    D    
O25   H11   S    
O14   C34   A    
V3    O20   S    
O24   H10   S    
C21   C34   S    
O22   C37   S    
O12   V3    S    
C32   H4    S    
C11   C12   A    
O36   H36   S    
C25   C26   A    
C38   H13   S    
O26   C38   S    
C41   H23   S    
C12   C13   A    
O11   C34   A    
V4    O20   S    
C24   O28   S    
O2    C1    A    
C23   C24   S    
O27   C39   S    
C2    C26   S    
C44   H35   S    
C19   C20   A    
O16   V4    S    
O13   V3    S    
C39   H15   S    
C40   H20   S    
C41   H22   S    
O37   H37   S    
C1    C18   S    
O3    C4    A    
C20   O24   S    
C7    O33   S    
C6    C35   S    
C26   C27   A    
C42   H25   S    
C23   O25   S    
O21   H5    S    
O6    V2    S    
C9    C14   A    
O9    V2    S    
C28   H3    S    
O2    V1    S    
C14   C15   S    
C8    O34   S    
C29   C30   A    
O4    C2    A    
O15   V3    S    
C32   O32   S    
C31   C32   S    
C22   C23   S    
O1    C2    A    
C5    O21   S    
O23   H9    S    
O5    V1    S    
C38   H14   S    
O14   V3    S    
C17   C24   S    
C31   O31   S    
O18   V4    S    
C42   H24   S    
C18   C19   A    
C15   H2    S    
O7    V2    S    
O4    V1    S    
O3    V1    S    
V1    O10   S    
O17   V3    S    
C37   H8    S    
C16   O38   S    
O19   C36   A    
C38   H12   S    
C33   O16   A    
C42   H26   S    
C7    C8    D    
C37   H7    S    
O30   C42   S    
C3    C13   S    
O31   C43   S    
C9    C10   A    
C15   O37   S    
C40   H18   S    
C23   O26   S    
C43   H29   S    
C44   H33   S    
O8    C3    A    
