data_mof_unit_37270.cif
_audit_creation_date              2012-10-26T20:13:54-0400
_audit_creation_method            fapswitch 2.2
_symmetry_space_group_name_H-M    P1
_symmetry_Int_Tables_number       1
_space_group_crystal_system       triclinic
_cell_length_a                    8.731479
_cell_length_b                    10.833805
_cell_length_c                    9.55645
_cell_angle_alpha                 90.376877
_cell_angle_beta                  97.826702
_cell_angle_gamma                 90.167531
_cell_volume                      895.546534903

loop_
_atom_site_label
_atom_site_type_symbol
_atom_type_description
_atom_site_fract_x
_atom_site_fract_y
_atom_site_fract_z
_atom_type_partial_charge
C1    C     C_R   0.496501 0.262415 0.499092 0.549346
C2    C     C_R   0.632562 0.524471 0.943059 0.159150
C3    C     C_3   0.727018 0.639436 0.949086 -0.279685
C4    C     C_R   0.203929 0.499294 0.463894 0.550476
C5    C     C_3   0.724643 0.641907 0.107592 -0.275303
C6    C     C_R   0.497361 0.737762 0.499870 0.549282
C7    C     C_R   0.796095 0.500021 0.536163 0.549217
C8    C     C_2   0.038147 0.497297 0.444193 -0.154809
C9    C     C_2   0.961951 0.500779 0.556122 -0.155959
C10   C     C_R   0.470298 0.064887 0.620141 0.021466
C11   C     C_R   0.480102 0.129437 0.495907 0.007253
C12   C     C_R   0.468978 0.934810 0.368313 -0.162788
C13   C     C_R   0.468124 0.063554 0.367640 -0.162843
C14   C     C_R   0.481855 0.871004 0.497255 0.007563
C15   C     C_R   0.471252 0.937802 0.620981 0.023809
C16   C     C_3   0.570072 0.934427 0.761353 -0.276993
C17   C     C_3   0.568227 0.074372 0.760463 -0.262792
C18   C     C_R   0.632167 0.525568 0.090261 0.159233
C19   C     C_R   0.373887 0.462230 0.058301 -0.019390
C20   C     C_R   0.373831 0.462336 0.909712 -0.018079
Cu1   Cu    Cu3+1 0.499990 0.499980 0.640670 0.935878
Cu2   Cu    Cu3+1 0.500010 0.500020 0.359330 0.933994
H1    H     H_    0.978604 0.492308 0.336864 0.117394
H2    H     H_    0.504256 0.114992 0.842478 0.139532
H3    H     H_    0.683503 0.116258 0.754054 0.141423
H4    H     H_    0.270941 0.432879 0.100190 0.117810
H5    H     H_    0.270840 0.433021 0.841860 0.115254
H6    H     H_    0.507455 0.894867 0.844512 0.133311
H7    H     H_    0.843933 0.622662 0.919283 0.123818
H8    H     H_    0.663145 0.716694 0.893565 0.143653
H9    H     H_    0.840734 0.628201 0.168752 0.123422
H10   H     H_    0.658429 0.720810 0.143604 0.144838
H11   H     H_    0.021567 0.504831 0.663626 0.115225
H12   H     H_    0.466192 0.110754 0.267858 0.135190
H13   H     H_    0.467341 0.886073 0.268795 0.131711
H14   H     H_    0.686636 0.895474 0.754950 0.131476
N1    N     N_R   0.500980 0.500930 0.148050 -0.232350
N2    N     N_R   0.500990 0.500890 0.852140 -0.232064
O1    O     O_R   0.500000 0.319640 0.618810 -0.498708
O2    O     O_R   0.500020 0.319680 0.381230 -0.505608
O3    O     O_R   0.274830 0.499980 0.591380 -0.507820
O4    O     O_R   0.274850 0.500020 0.353800 -0.510162
O5    O     O_R   0.499980 0.680320 0.618770 -0.497783
O6    O     O_R   0.500000 0.680360 0.381190 -0.507648
O7    O     O_R   0.725150 0.499980 0.646200 -0.502377
O8    O     O_R   0.725170 0.500020 0.408620 -0.497565

loop_
_geom_bond_atom_site_label_1
_geom_bond_atom_site_label_2
_ccdc_geom_bond_type
C16   H6    S    
C3    H8    S    
C20   H5    S    
C2    C18   A    
C20   N2    A    
C2    N2    A    
C19   C20   A    
Cu1   O1    S    
C4    C8    S    
C5    H10   S    
Cu2   O2    S    
C2    C3    S    
C17   H3    S    
C13   H12   S    
C6    O6    A    
Cu1   Cu2   S    
C16   H14   S    
C12   H13   S    
C9    H11   S    
C11   C13   A    
Cu2   O4    S    
C4    O4    A    
Cu1   O3    S    
C7    O7    A    
Cu2   O8    S    
C18   N1    A    
C12   C14   A    
Cu1   O7    S    
C6    O5    A    
C17   H2    S    
C6    C14   S    
C4    O3    A    
C1    O1    A    
C10   C17   S    
C15   C16   S    
C7    O8    A    
C8    H1    S    
C12   C13   A    
C7    C9    S    
C10   C11   A    
C3    H7    S    
C19   H4    S    
C14   C15   A    
C16   C17   S    
C5    C18   S    
C19   N1    A    
C1    O2    A    
C3    C5    S    
C10   C15   A    
Cu1   O5    S    
Cu2   N1    S    
Cu2   O6    S    
Cu1   N2    S    
C8    C9    D    
C5    H9    S    
C1    C11   S    
