data_mof_unit_61277.cif
_audit_creation_date              2013-03-05T16:34:57-0500
_audit_creation_method            fapswitch 2.2
_symmetry_space_group_name_H-M    P1
_symmetry_Int_Tables_number       1
_space_group_crystal_system       triclinic
_cell_length_a                    14.887568
_cell_length_b                    14.209069
_cell_length_c                    17.492656
_cell_angle_alpha                 90.132901
_cell_angle_beta                  91.338346
_cell_angle_gamma                 90.053105
_cell_volume                      3699.34869005

loop_
_atom_site_label
_atom_site_type_symbol
_atom_site_description
_atom_site_fract_x
_atom_site_fract_y
_atom_site_fract_z
_atom_type_partial_charge
O1    O     O_R   0.369060 0.579480 0.500010 -0.525770
O2    O     O_R   0.630940 0.420520 0.499990 -0.627645
O3    O     O_R   0.630940 0.579480 0.499990 -0.539829
O4    O     O_R   0.369060 0.420520 0.500010 -0.557077
C1    C     C_R   0.327299 0.499758 0.505130 0.910104
C2    C     C_R   0.671792 0.500100 0.500494 1.002140
O5    O     O_R   0.500000 0.579510 0.389120 -0.605887
O6    O     O_R   0.500000 0.420490 0.610880 -0.556858
O7    O     O_R   0.500000 0.579510 0.610880 -0.608364
O8    O     O_R   0.500000 0.420490 0.389120 -0.561351
C3    C     C_R   0.504807 0.500231 0.353450 1.003961
C4    C     C_R   0.499687 0.500558 0.647106 0.986707
Zn1   Zn    Zn3+2 0.500000 0.606140 0.500000 1.035836
Zn2   Zn    Zn3+2 0.500000 0.393860 0.500000 1.037143
C5    C     C_R   0.496445 0.595569 0.848594 0.286933
C6    C     C_R   0.499602 0.443573 0.143090 0.281395
C7    C     C_R   0.594122 0.581606 0.164881 0.277437
C8    C     C_R   0.575299 0.445518 0.848750 0.263651
C9    C     C_R   0.479888 0.587212 0.769618 0.386864
C10   C     C_R   0.490666 0.432421 0.221869 0.372971
C11   C     C_R   0.577021 0.577387 0.243234 0.386387
C12   C     C_R   0.550721 0.431754 0.772065 0.391288
C13   C     C_R   0.507434 0.504722 0.730953 -0.405702
C14   C     C_R   0.523875 0.502922 0.271704 -0.410408
C15   C     C_R   0.546984 0.526442 0.886706 -0.237361
C16   C     C_R   0.552018 0.517261 0.115353 -0.229504
C17   C     C_1   0.557300 0.530454 0.967311 0.246875
C18   C     C_1   0.558857 0.527480 0.035215 0.246039
C19   C     C_R   0.093301 0.582396 0.545355 -0.264951
C20   C     C_R   0.912183 0.516335 0.455187 -0.237364
C21   C     C_R   0.898198 0.487057 0.591566 -0.298288
C22   C     C_R   0.090175 0.413773 0.524922 -0.270793
H1    H     H_    0.057817 0.647790 0.555048 0.175281
H2    H     H_    0.954140 0.528177 0.406289 0.179469
H3    H     H_    0.930727 0.473771 0.646480 0.162734
H4    H     H_    0.052261 0.348937 0.518419 0.167260
C23   C     C_R   0.186259 0.582502 0.540849 0.462415
C24   C     C_R   0.819681 0.514037 0.445485 0.446209
C25   C     C_R   0.804510 0.489357 0.583588 0.427990
C26   C     C_R   0.182959 0.412329 0.519787 0.470433
C27   C     C_R   0.231069 0.498503 0.520688 -0.292535
C28   C     C_R   0.766961 0.500480 0.509734 -0.239143
C29   C     C_R   0.046246 0.498792 0.535264 0.011182
C30   C     C_R   0.950481 0.501435 0.527648 0.020906
C31   C     C_R   0.456182 0.105286 0.440567 0.305658
C32   C     C_R   0.579943 0.896259 0.511110 0.320415
C33   C     C_R   0.543478 0.105777 0.559273 0.317489
C34   C     C_R   0.419741 0.895637 0.487829 0.317709
C35   C     C_R   0.448999 0.205242 0.446429 0.374891
C36   C     C_R   0.577697 0.796864 0.516100 0.368124
C37   C     C_R   0.551484 0.204648 0.552431 0.370174
C38   C     C_R   0.423088 0.796419 0.481359 0.387401
N1    N     N_R   0.500000 0.252470 0.500000 -0.210427
N2    N     N_R   0.500000 0.747530 0.500000 -0.227762
C39   C     C_R   0.499361 0.053925 0.500263 -0.103512
C40   C     C_R   0.499605 0.947465 0.500158 -0.146197
Cl1   Cl    Cl    0.449935 0.690262 0.900285 -0.572695
Cl2   Cl    Cl    0.442901 0.365197 0.079511 -0.545944
Cl3   Cl    Cl    0.669005 0.666509 0.129033 -0.557068
Cl4   Cl    Cl    0.639726 0.358663 0.897270 -0.538979
O9    O     O_3   0.427926 0.653813 0.731207 -0.587632
C41   C     C_3   0.474451 0.740447 0.725820 -0.201042
H5    H     H_    0.546260 0.738393 0.745492 0.131025
H6    H     H_    0.438985 0.794801 0.759273 0.202404
H7    H     H_    0.472534 0.763478 0.665264 0.138576
O10   O     O_3   0.443912 0.356111 0.249384 -0.531692
C42   C     C_3   0.501534 0.277042 0.249666 -0.118653
H8    H     H_    0.537202 0.267156 0.195010 0.153994
H9    H     H_    0.460335 0.213094 0.257688 0.198668
H10   H     H_    0.551557 0.281822 0.297706 0.134826
O11   O     O_3   0.619476 0.639595 0.293580 -0.516719
C43   C     C_3   0.580622 0.730228 0.287173 -0.118579
H11   H     H_    0.512891 0.731532 0.258492 0.101091
H12   H     H_    0.626431 0.777648 0.256238 0.198742
H13   H     H_    0.573318 0.759745 0.345440 0.137477
O12   O     O_3   0.573874 0.348621 0.736797 -0.490651
C44   C     C_3   0.505965 0.281729 0.750726 -0.100649
H14   H     H_    0.489279 0.276598 0.812319 0.157133
H15   H     H_    0.530737 0.211662 0.733512 0.205396
H16   H     H_    0.444243 0.297576 0.716105 0.111112
O13   O     O_3   0.232458 0.665485 0.553772 -0.542203
C45   C     C_3   0.239383 0.680964 0.633352 -0.184381
H17   H     H_    0.173149 0.700673 0.656765 0.134366
H18   H     H_    0.286181 0.740421 0.644308 0.193507
H19   H     H_    0.267265 0.618468 0.664109 0.173982
O14   O     O_3   0.780654 0.530853 0.374320 -0.549590
C46   C     C_3   0.775625 0.445006 0.333880 -0.267027
H20   H     H_    0.743915 0.458255 0.276908 0.209735
H21   H     H_    0.732955 0.392920 0.363691 0.125676
H22   H     H_    0.843659 0.415335 0.324442 0.157346
O15   O     O_3   0.747291 0.475013 0.644454 -0.597977
C47   C     C_3   0.777885 0.521552 0.711563 -0.240404
H23   H     H_    0.806514 0.592355 0.699766 0.128571
H24   H     H_    0.827387 0.477130 0.743299 0.188718
H25   H     H_    0.719884 0.532396 0.749183 0.186548
O16   O     O_3   0.224997 0.326976 0.508747 -0.599022
C48   C     C_3   0.238595 0.283572 0.580541 -0.304145
H26   H     H_    0.173516 0.264651 0.606512 0.158797
H27   H     H_    0.279083 0.328971 0.620328 0.156367
H28   H     H_    0.276849 0.217485 0.572254 0.166528
O17   O     O_3   0.419228 0.059299 0.377419 -0.556560
C49   C     C_3   0.488351 0.031357 0.328373 -0.306909
H29   H     H_    0.517483 0.963096 0.347059 0.150294
H30   H     H_    0.542409 0.085229 0.323556 0.119583
H31   H     H_    0.458712 0.020511 0.270259 0.195500
O18   O     O_3   0.661289 0.942322 0.520875 -0.528583
C50   C     C_3   0.699062 0.955538 0.448570 -0.248428
H32   H     H_    0.659999 0.008001 0.414613 0.123581
H33   H     H_    0.704582 0.888162 0.416305 0.177432
H34   H     H_    0.767991 0.983974 0.457032 0.185777
O19   O     O_3   0.583655 0.061768 0.621832 -0.533006
C51   C     C_3   0.516777 0.028213 0.670895 -0.269877
H35   H     H_    0.492312 0.957920 0.652105 0.137080
H36   H     H_    0.459004 0.077532 0.676005 0.106733
H37   H     H_    0.547218 0.019602 0.728930 0.197826
O20   O     O_3   0.338379 0.940937 0.476347 -0.524111
C52   C     C_3   0.300574 0.958443 0.548071 -0.247087
H38   H     H_    0.341505 0.009917 0.581804 0.117610
H39   H     H_    0.291833 0.892339 0.581031 0.163626
H40   H     H_    0.233048 0.989819 0.538607 0.185635
O21   O     O_3   0.399390 0.258786 0.394311 -0.548432
C53   C     C_3   0.312866 0.221233 0.379136 -0.011275
H41   H     H_    0.266194 0.280457 0.367173 0.186553
H42   H     H_    0.285575 0.180456 0.427753 0.151417
H43   H     H_    0.313207 0.177392 0.326584 0.173445
O22   O     O_3   0.657667 0.750019 0.528446 -0.532632
C54   C     C_3   0.676826 0.746706 0.607676 -0.201026
H44   H     H_    0.632829 0.694691 0.635565 0.159923
H45   H     H_    0.671195 0.816748 0.635910 0.165855
H46   H     H_    0.747130 0.722586 0.616317 0.172708
O23   O     O_3   0.607330 0.254720 0.601665 -0.506191
C55   C     C_3   0.697383 0.238020 0.582086 -0.097898
H47   H     H_    0.709000 0.252692 0.520561 0.095159
H48   H     H_    0.718356 0.164981 0.596224 0.179620
H49   H     H_    0.741304 0.286027 0.616227 0.209157
O24   O     O_3   0.346317 0.748806 0.459118 -0.494007
C56   C     C_3   0.337458 0.752085 0.378781 -0.163136
H50   H     H_    0.276812 0.711395 0.361091 0.180290
H51   H     H_    0.395879 0.718979 0.351096 0.125497
H52   H     H_    0.328223 0.825379 0.357826 0.178579

loop_
_geom_bond_atom_site_label_1
_geom_bond_atom_site_label_2
_geom_bond_distance
_ccdc_geom_bond_type
C39   C40   1.512694 S    
O22   C54   1.409370 S    
C50   H33   1.114277 S    
O19   C51   1.412863 S    
C12   O12   1.379143 S    
C46   H20   1.109308 S    
O3    C2    1.281881 A    
C23   O13   1.380028 S    
C51   H36   1.115035 S    
C48   H26   1.112677 S    
C44   H14   1.113865 S    
C5    C9    1.402378 A    
C56   H51   1.109789 S    
C4    C13   1.469605 S    
C36   N2    1.375165 A    
C24   O14   1.382840 S    
O1    C1    1.295960 A    
C7    C16   1.396191 A    
C22   H4    1.084342 S    
C10   O10   1.381488 S    
O13   C45   1.410201 S    
C24   C28   1.399346 A    
C34   C38   1.415090 A    
C52   H39   1.112373 S    
C33   O19   1.385500 S    
C5    C15   1.398686 A    
O18   C50   1.409035 S    
C19   H1    1.084239 S    
C3    C14   1.464922 S    
O20   C52   1.408752 S    
C20   C24   1.383950 A    
C49   H31   1.109070 S    
O7    Zn1   1.977010 S    
C41   H6    1.109417 S    
C49   H29   1.109646 S    
C10   C14   1.408111 A    
C55   H47   1.114144 S    
C50   H32   1.110600 S    
C36   O22   1.377399 S    
O3    Zn1   1.986191 S    
C6    C10   1.396926 A    
C34   O20   1.382943 S    
O10   C42   1.414130 S    
C19   C29   1.387378 A    
O4    Zn2   1.986194 S    
C5    Cl1   1.769963 S    
C20   C30   1.394367 A    
O2    C2    1.283361 A    
C8    C15   1.396829 A    
C26   O16   1.380503 S    
C43   H13   1.109006 S    
C25   O15   1.394218 S    
C51   H35   1.109277 S    
C48   H27   1.114198 S    
C38   N2    1.372977 A    
O5    C3    1.289344 A    
C25   C28   1.404941 A    
C44   H15   1.105601 S    
C6    C16   1.399690 A    
C56   H52   1.112464 S    
C21   C30   1.392532 A    
C20   H2    1.084221 S    
C42   H8    1.113109 S    
O17   C49   1.411771 S    
O12   C44   1.412693 S    
C43   H12   1.109056 S    
O8    Zn2   1.977011 S    
C52   H40   1.109127 S    
O15   C47   1.411980 S    
C37   O23   1.379037 S    
O14   C46   1.409715 S    
O4    C1    1.290587 A    
C33   C37   1.415377 A    
C47   H25   1.108492 S    
C7    C11   1.401289 A    
C42   H9    1.106843 S    
C9    C13   1.417610 A    
C29   C30   1.429357 S    
C54   H45   1.114108 S    
C41   H5    1.115831 S    
C31   C35   1.428032 A    
O6    C4    1.301055 A    
C35   O21   1.388626 S    
O16   C48   1.410847 S    
C47   H24   1.110446 S    
C6    Cl2   1.771536 S    
C49   H30   1.114936 S    
O21   C53   1.413002 S    
C31   O17   1.384706 S    
C7    Cl3   1.767806 S    
C8    Cl4   1.769869 S    
C26   C27   1.417850 A    
C11   O11   1.387719 S    
C45   H18   1.108072 S    
C46   H21   1.113382 S    
C38   O24   1.375472 S    
C50   H34   1.109088 S    
C21   H3    1.082666 S    
C46   H22   1.113177 S    
O1    Zn1   1.985504 S    
C19   C23   1.387991 A    
O23   C55   1.411618 S    
C48   H28   1.109660 S    
C33   C39   1.415511 A    
Zn1   N2    2.009020 S    
C44   H16   1.112134 S    
C34   C40   1.410033 A    
C1    C27   1.464582 S    
O6    Zn2   1.975287 S    
C41   H7    1.109151 S    
C8    C12   1.395444 A    
C43   H11   1.115905 S    
C15   C17   1.415774 S    
C45   H19   1.114801 S    
C56   H50   1.109223 S    
C32   C36   1.415606 A    
C16   C18   1.415696 S    
C42   H10   1.111688 S    
C53   H43   1.109383 S    
C54   H46   1.108738 S    
O11   C43   1.415856 S    
C52   H38   1.111239 S    
C9    O9    1.387619 S    
C55   H49   1.108413 S    
C35   N1    1.366702 A    
C32   O18   1.382944 S    
C47   H23   1.113843 S    
C22   C29   1.387726 A    
C21   C25   1.398921 A    
C22   C26   1.386505 A    
C23   C27   1.415796 A    
O9    C41   1.416320 S    
O2    Zn2   1.985502 S    
O7    C4    1.289770 A    
O8    C3    1.297482 A    
O5    Zn1   1.975288 S    
Zn2   N1    2.009020 S    
C31   C39   1.417504 A    
C55   H48   1.110814 S    
C45   H17   1.112353 S    
C2    C28   1.422280 S    
C11   C14   1.418752 A    
C32   C40   1.410023 A    
C17   C18   1.188358 T    
C12   C13   1.410853 A    
O24   C56   1.409288 S    
C37   N1    1.364342 A    
C53   H41   1.108979 S    
C53   H42   1.114467 S    
C51   H37   1.109110 S    
C54   H44   1.108601 S    
