data_mof_unit_66837.cif
_audit_creation_date              2012-12-11T14:35:03-0500
_audit_creation_method            fapswitch 2.2
_symmetry_space_group_name_H-M    P1
_symmetry_Int_Tables_number       1
_space_group_crystal_system       triclinic
_cell_length_a                    8.464789
_cell_length_b                    15.192414
_cell_length_c                    16.231629
_cell_angle_alpha                 110.293257
_cell_angle_beta                  97.813351
_cell_angle_gamma                 80.331611
_cell_volume                      1923.19641524

loop_
_atom_site_label
_atom_site_type_symbol
_atom_type_description
_atom_site_fract_x
_atom_site_fract_y
_atom_site_fract_z
_atom_type_partial_charge
Ba1   Ba    Ba6+2 0.364960 0.465930 0.541880 1.722576
Ba2   Ba    Ba6+2 0.824870 0.533990 0.458110 1.663348
C1    C     C_3   0.259319 0.211032 0.808960 0.227305
C2    C     C_R   0.891717 0.537386 0.753474 -0.221714
C3    C     C_2   0.469708 0.366489 0.129937 -0.154809
C4    C     C_3   0.756868 0.261124 0.770961 0.966207
C5    C     C_2   0.447425 0.409004 0.216273 0.029962
C6    C     C_2   0.170016 0.478573 0.185497 0.086409
C7    C     C_3   0.209877 0.456529 0.091685 -0.052852
C8    C     C_3   0.334910 0.369724 0.059184 -0.012733
C9    C     C_2   0.074999 0.467729 0.024439 -0.071027
C10   C     C_2   0.099121 0.508088 0.966418 -0.097839
C11   C     C_R   0.816978 0.565175 0.923678 0.019507
C12   C     C_3   0.234931 0.280752 0.757615 0.727089
C13   C     C_R   0.973311 0.526538 0.899618 -0.000906
C14   C     C_R   0.699678 0.590633 0.863577 -0.100660
C15   C     C_R   0.737128 0.577149 0.778288 0.129680
C16   C     C_3   0.710305 0.257891 0.857968 0.293324
C17   C     C_R   0.010351 0.512723 0.813407 -0.031504
C18   C     C_R   0.249956 0.759063 0.466708 -0.280694
C19   C     C_R   0.336755 0.812816 0.439421 0.045838
C20   C     C_R   0.282645 0.909351 0.453906 -0.122512
C21   C     C_R   0.140700 0.954282 0.497144 0.008715
C22   C     C_R   0.062607 0.898156 0.529215 -0.128051
C23   C     C_3   0.030842 0.741885 0.734274 0.697117
C24   C     C_R   0.115166 0.801688 0.513155 0.022214
C25   C     C_R   0.931140 0.100128 0.551050 -0.083382
C26   C     C_R   0.866778 0.193804 0.560869 -0.004611
C27   C     C_R   0.081917 0.208955 0.484830 0.068795
C28   C     C_3   0.790435 0.225817 0.276002 0.323857
C29   C     C_R   0.145580 0.113756 0.473321 -0.157052
C30   C     C_R   0.074428 0.057477 0.508767 0.003595
C31   C     C_R   0.944514 0.248539 0.529977 -0.265743
C32   C     C_3   0.824046 0.125324 0.278719 -0.035508
C33   C     C_3   0.479809 0.764115 0.653057 0.405998
C34   C     C_3   0.106244 0.783924 0.828944 0.400844
C35   C     C_3   0.454733 0.871833 0.679102 -0.024637
C36   C     C_3   0.196976 0.273893 0.269001 0.636762
C37   C     C_3   0.236147 0.208339 0.175766 0.470331
C38   C     C_3   0.714113 0.051998 0.123923 -0.163685
C39   C     C_3   0.452091 0.963058 0.837618 -0.166563
C40   C     C_3   0.105155 0.128678 0.030417 -0.229312
C41   C     C_3   0.951845 0.794519 0.951020 -0.325052
C42   C     C_3   0.279183 0.668526 0.214634 -0.192027
C43   C     C_3   0.458070 0.810215 0.056346 -0.258370
C44   C     C_3   0.112423 0.899245 0.197522 -0.270751
C45   C     C_3   0.562909 0.681342 0.218298 0.495931
C46   C     C_3   0.757565 0.941831 0.365255 -0.162020
C47   C     C_3   0.577534 0.694325 0.129247 -0.005906
C48   C     C_3   0.930094 0.739947 0.272096 0.253426
C49   C     C_3   0.909636 0.827533 0.240332 0.207465
C50   C     C_2   0.290423 0.463514 0.244310 -0.242640
H1    H     H_    0.951094 0.096745 0.266875 0.062018
H2    H     H_    0.104630 0.293845 0.738267 -0.051320
H3    H     H_    0.086767 0.667140 0.707070 0.038558
H4    H     H_    0.062618 0.861494 0.852820 0.017445
H5    H     H_    0.180880 0.238999 0.864427 0.053549
H6    H     H_    0.803578 0.285820 0.912318 -0.005426
H7    H     H_    0.673992 0.642339 0.236520 0.086368
H8    H     H_    0.682819 0.729433 0.134088 0.078311
H9    H     H_    0.600294 0.623795 0.077669 0.048109
H10   H     H_    0.036575 0.742111 0.319560 -0.005217
H11   H     H_    0.831608 0.744505 0.311493 0.079375
H12   H     H_    0.807477 0.129507 0.346479 0.039983
H13   H     H_    0.892587 0.800976 0.167075 0.093488
H14   H     H_    0.581442 0.321462 0.110184 0.079605
H15   H     H_    0.580880 0.621706 0.883958 0.097790
H16   H     H_    0.272973 0.490275 0.314115 0.049821
H17   H     H_    0.920793 0.526904 0.687536 0.056996
H18   H     H_    0.961028 0.443002 0.022692 0.098445
H19   H     H_    0.217510 0.527471 0.967495 0.089664
H20   H     H_    0.861798 0.061649 0.574133 0.053560
H21   H     H_    0.354039 0.947584 0.431454 0.069078
H22   H     H_    0.248654 0.085296 0.435471 0.081795
H23   H     H_    0.362334 0.736888 0.632976 -0.019641
H24   H     H_    0.962101 0.927201 0.568697 0.073213
H25   H     H_    0.891929 0.320339 0.536151 0.059115
H26   H     H_    0.293599 0.685295 0.457020 0.055524
H27   H     H_    0.595718 0.304867 0.875422 0.083450
H28   H     H_    0.821020 0.227109 0.212064 0.056469
H29   H     H_    0.866335 0.268707 0.331107 0.045113
H30   H     H_    0.258084 0.195111 0.638601 0.282065
H31   H     H_    0.609260 0.064806 0.238649 0.257550
H32   H     H_    0.650981 0.117066 0.111638 0.139672
H33   H     H_    0.648056 0.991945 0.083785 0.097797
H34   H     H_    0.556739 0.735040 0.596939 0.012716
H35   H     H_    0.837224 0.036783 0.102204 0.064843
H36   H     H_    0.249377 0.944168 0.745760 0.245098
H37   H     H_    0.373791 0.984961 0.892702 0.086411
H38   H     H_    0.490135 0.027086 0.832095 0.142490
H39   H     H_    0.559733 0.916482 0.852728 0.114768
H40   H     H_    0.076723 0.398283 0.313796 0.311644
H41   H     H_    0.319842 0.092366 0.201945 0.295493
H42   H     H_    0.052744 0.123434 0.149458 0.175202
H43   H     H_    0.988485 0.104772 0.997786 0.092774
H44   H     H_    0.200566 0.066921 0.014489 0.118841
H45   H     H_    0.388223 0.893092 0.623946 0.007993
H46   H     H_    0.131229 0.182967 0.004422 0.114389
H47   H     H_    0.312642 0.088930 0.720454 0.312122
H48   H     H_    0.818706 0.811907 0.754780 0.281245
H49   H     H_    0.155341 0.697797 0.909810 0.219129
H50   H     H_    0.924230 0.751625 0.989130 0.120911
H51   H     H_    0.837543 0.819076 0.918330 0.128580
H52   H     H_    0.006921 0.856654 0.997332 0.098804
H53   H     H_    0.315973 0.816724 0.883285 0.289771
H54   H     H_    0.455748 0.558366 0.156745 0.163194
H55   H     H_    0.205873 0.643850 0.151097 0.108489
H56   H     H_    0.573750 0.898093 0.691060 0.072312
H57   H     H_    0.271370 0.745821 0.234297 0.167093
H58   H     H_    0.237702 0.652395 0.268167 0.071352
H59   H     H_    0.344942 0.705427 0.068909 0.194947
H60   H     H_    0.340424 0.848295 0.040558 0.102101
H61   H     H_    0.515734 0.769690 0.994448 0.105975
H62   H     H_    0.534631 0.863752 0.099044 0.117065
H63   H     H_    0.053955 0.929143 0.325593 0.211047
H64   H     H_    0.225014 0.931707 0.223473 0.125126
H65   H     H_    0.022237 0.948941 0.174411 0.124158
H66   H     H_    0.138414 0.834391 0.140441 0.124613
H67   H     H_    0.306265 0.306847 0.303033 -0.034843
H68   H     H_    0.659767 0.877455 0.236502 0.219391
H69   H     H_    0.629962 0.959745 0.380944 0.121081
H70   H     H_    0.810974 0.007930 0.385665 0.090459
H71   H     H_    0.824060 0.898263 0.403824 0.116402
H72   H     H_    0.844724 0.356745 0.742125 0.254028
H73   H     H_    0.883764 0.136641 0.733079 0.308026
H74   H     H_    0.795775 0.135001 0.868486 0.295529
H75   H     H_    0.385202 0.204237 0.838099 0.091152
H76   H     H_    0.277340 0.251752 0.142718 0.026093
N1    N     N_2   0.718469 0.062496 0.216365 -0.394075
N2    N     N_2   0.364538 0.912837 0.756477 -0.379248
N3    N     N_2   0.094863 0.168118 0.124714 -0.417971
N4    N     N_2   0.061745 0.737667 0.885830 -0.445148
N5    N     N_2   0.440551 0.622422 0.206622 -0.450807
N6    N     N_2   0.433538 0.747171 0.101456 -0.413875
N7    N     N_2   0.052219 0.875942 0.265701 -0.440082
N8    N     N_2   0.767443 0.893930 0.271581 -0.430607
O1    O     O_2   0.426270 0.593440 0.713420 -0.430328
O2    O     O_2   0.663419 0.809644 0.450380 -0.514507
O3    O     O_3   0.535126 0.769691 0.286615 -0.631463
O4    O     O_3   0.647730 0.570260 0.604850 -0.500768
O5    O     O_3   0.070240 0.381690 0.454200 -0.505697
O6    O     O_2   0.845720 0.730180 0.545110 -0.435235
O7    O     O_3   0.058461 0.797003 0.685032 -0.677022
O8    O     O_2   0.838073 0.494255 0.187407 -0.481371
O9    O     O_3   0.935525 0.655125 0.197940 -0.671173
O10   O     O_3   0.203920 0.417520 0.657950 -0.455610
O11   O     O_2   0.329927 0.529541 0.812161 -0.466284
O12   O     O_3   0.151221 0.220096 0.314212 -0.690631
O13   O     O_3   0.553571 0.740194 0.726237 -0.577323
O14   O     O_3   0.293562 0.364687 0.812475 -0.631150
O15   O     O_2   0.343970 0.269780 0.454840 -0.430919
O16   O     O_3   0.615710 0.361880 0.613490 -0.454078
O17   O     O_2   0.541684 0.186951 0.537206 -0.457137
O18   O     O_3   0.320155 0.242948 0.682320 -0.661571
O19   O     O_3   0.069002 0.342154 0.260217 -0.762051
O20   O     O_3   0.361482 0.136344 0.179515 -0.769492
O21   O     O_3   0.218853 0.122143 0.754738 -0.740666
O22   O     O_3   0.865492 0.744186 0.735080 -0.779705
O23   O     O_3   0.635094 0.228391 0.703370 -0.546445
O24   O     O_3   0.273994 0.771028 0.827765 -0.714372
O25   O     O_3   0.771357 0.356033 0.784355 -0.773618
O26   O     O_3   0.904063 0.203481 0.751092 -0.790258
O27   O     O_3   0.689927 0.165608 0.850700 -0.780398
O28   O     O_2   0.763420 0.406520 0.286530 -0.444344
O29   O     O_3   0.541980 0.429670 0.395140 -0.477306
O30   O     O_3   0.985790 0.582400 0.342040 -0.496453
O31   O     O_3   0.629520 0.261879 0.288759 -0.626458
O32   O     O_3   0.119470 0.618230 0.545790 -0.492238
O33   O     O_3   0.574000 0.638040 0.386500 -0.475694
P1    P     P_3+3 0.589930 0.617420 0.700180 1.076374
P2    P     P_3+3 0.161520 0.277720 0.428790 0.977327
P3    P     P_3+3 0.668334 0.242245 0.603966 1.049150
P4    P     P_3+3 0.599780 0.382500 0.299810 0.999957
P5    P     P_3+3 0.527965 0.756399 0.390306 0.925477
P6    P     P_3+3 0.208465 0.457471 0.773435 0.992385
P7    P     P_3+3 0.032063 0.737132 0.571237 0.969497
P8    P     P_3+3 0.981232 0.551618 0.227962 0.929340

loop_
_geom_bond_atom_site_label_1
_geom_bond_atom_site_label_2
_ccdc_geom_bond_type
C6    C7    S    
C39   H37   S    
C47   N6    S    
C38   H32   S    
H73   O26   S    
H36   N2    S    
C38   N1    S    
C46   H71   S    
C35   H45   S    
C4    O23   S    
C43   H60   S    
C45   C47   S    
C13   C17   A    
C33   H23   S    
C43   N6    S    
C47   H8    S    
C37   N3    S    
C40   H44   S    
C36   O19   S    
C38   H35   S    
C41   N4    S    
C33   C35   S    
C49   N8    S    
C22   C24   A    
C5    C50   S    
H31   N1    S    
C34   N4    S    
Ba2   P4    S    
C46   H70   S    
C36   C37   S    
O16   P3    S    
C33   H34   S    
O11   P6    D    
H53   O24   S    
O29   P4    S    
C27   C31   A    
Ba1   P1    S    
O5    P2    S    
O12   P2    S    
O15   P2    D    
C35   N2    S    
C44   H66   S    
Ba1   O16   S    
Ba1   Ba2   S    
C49   H13   S    
C41   H52   S    
C44   N7    S    
C2    C17   A    
C49   N7    S    
C43   H62   S    
C26   P3    S    
H54   N5    S    
C4    O26   S    
C32   N1    S    
C16   H27   S    
O2    P5    D    
O33   P5    S    
C10   C13   S    
Ba1   O15   S    
C40   N3    S    
C24   P7    S    
C7    C8    S    
C6    C50   D    
C50   H16   S    
O31   P4    S    
C28   H28   S    
C42   H57   S    
O14   P6    S    
C19   C20   A    
C45   N5    S    
C48   H11   S    
Ba1   O10   S    
C23   O7    S    
O7    P7    S    
C6    P8    S    
C2    H17   S    
C16   H6    S    
C41   H51   S    
C4    C16   S    
C9    H18   S    
C47   H9    S    
O23   P3    S    
C28   C32   S    
O13   P1    S    
C35   H56   S    
Ba2   O28   S    
C46   H69   S    
C3    C5    D    
C15   P1    S    
C14   C15   A    
C29   H22   S    
O6    P7    D    
Ba2   O33   S    
Ba1   O32   S    
Ba1   P2    S    
C40   H43   S    
C44   H65   S    
H68   N8    S    
C38   H33   S    
C34   H4    S    
H48   O22   S    
O8    P8    D    
C16   O27   S    
C29   C30   A    
C4    O25   S    
Ba1   O29   S    
C21   C22   A    
O10   P6    S    
C12   O14   S    
C32   H12   S    
C48   C49   S    
O28   P4    D    
C14   H15   S    
C27   P2    S    
C7    C9    S    
Ba2   O29   S    
C36   O12   S    
O1    P1    D    
C1    C12   S    
C2    C15   A    
C1    H5    S    
C48   O9    S    
C39   H39   S    
C10   H19   S    
C26   C31   A    
O30   P8    S    
H47   O21   S    
C11   C13   A    
C48   H10   S    
C36   H67   S    
C45   O3    S    
H74   O27   S    
Ba2   O32   S    
C25   C26   A    
Ba1   O1    S    
H72   O25   S    
C42   H55   S    
C42   N5    S    
O32   P7    S    
Ba2   O30   S    
O4    P1    S    
C37   H76   S    
C12   H2    S    
C25   C30   A    
C46   N8    S    
H41   O20   S    
C22   H24   S    
C23   H3    S    
C3    H14   S    
C18   C24   A    
C28   O31   S    
C9    C10   D    
H59   N6    S    
C44   H64   S    
H42   N3    S    
C18   H26   S    
C37   O20   S    
Ba2   O4    S    
C21   C30   S    
C28   H29   S    
C40   H46   S    
C41   H50   S    
C3    C8    S    
C27   C29   A    
C31   H25   S    
C39   N2    S    
H63   N7    S    
Ba2   O6    S    
C5    P4    S    
O17   P3    D    
C39   H38   S    
H40   O19   S    
C1    H75   S    
C17   P6    S    
Ba1   O5    S    
C34   O24   S    
C23   C34   S    
C45   H7    S    
H30   O18   S    
H49   N4    S    
C43   H61   S    
C18   C19   A    
C32   H1    S    
C19   P5    S    
C11   C14   A    
O9    P8    S    
C23   O22   S    
C1    O21   S    
Ba2   O5    S    
C20   C21   A    
O3    P5    S    
Ba1   O4    S    
C33   O13   S    
C20   H21   S    
C12   O18   S    
C25   H20   S    
C42   H58   S    
