data_mof_unit_38778.cif
_audit_creation_date              2012-12-10T17:26:59-0500
_audit_creation_method            fapswitch 2.2
_symmetry_space_group_name_H-M    P1
_symmetry_Int_Tables_number       1
_space_group_crystal_system       triclinic
_cell_length_a                    18.337595
_cell_length_b                    18.078038
_cell_length_c                    11.97341
_cell_angle_alpha                 90.001464
_cell_angle_beta                  84.939694
_cell_angle_gamma                 89.997371
_cell_volume                      3953.80746175

loop_
_atom_site_label
_atom_site_type_symbol
_atom_type_description
_atom_site_fract_x
_atom_site_fract_y
_atom_site_fract_z
_atom_type_partial_charge
C1    C     C_R   0.399985 0.100387 0.522355 0.899223
C2    C     C_R   0.535170 0.000009 0.019432 0.091557
C3    C     C_R   0.964830 0.499991 0.980568 0.091550
C4    C     C_R   0.035170 0.500008 0.019432 0.091569
C5    C     C_R   0.587585 0.000016 0.826577 0.084724
C6    C     C_R   0.412415 0.999985 0.173423 0.084819
C7    C     C_R   0.087585 0.500015 0.826577 0.084807
C8    C     C_R   0.912415 0.499984 0.173423 0.084728
C9    C     C_R   0.596871 0.000021 0.941449 -0.302781
C10   C     C_R   0.403128 0.999981 0.058551 -0.302736
C11   C     C_R   0.096871 0.500020 0.941449 -0.302699
C12   C     C_R   0.600016 0.899614 0.477644 0.899210
C13   C     C_R   0.903128 0.499979 0.058551 -0.302790
C14   C     C_R   0.458290 0.999988 0.864283 -0.027840
C15   C     C_R   0.541710 0.000012 0.135717 -0.027872
C16   C     C_R   0.958290 0.499987 0.864283 -0.027876
C17   C     C_R   0.041710 0.500012 0.135717 -0.027830
C18   C     C_R   0.655185 0.156629 0.463694 -0.087231
C19   C     C_R   0.344838 0.843350 0.536302 -0.087192
C20   C     C_R   0.344851 0.156662 0.536310 -0.087179
C21   C     C_R   0.655156 0.843344 0.463686 -0.087176
C22   C     C_R   0.155166 0.656646 0.463694 -0.087195
C23   C     C_R   0.600022 0.100381 0.477646 0.899250
C24   C     C_R   0.844820 0.343366 0.536302 -0.087231
C25   C     C_R   0.844842 0.656653 0.536313 -0.087176
C26   C     C_R   0.155158 0.343347 0.463684 -0.087175
C27   C     C_R   0.287295 0.742312 0.641513 -0.021840
C28   C     C_R   0.712899 0.257508 0.358321 -0.021886
C29   C     C_R   0.712587 0.742193 0.358586 -0.021860
C30   C     C_R   0.287451 0.257841 0.641380 -0.021826
C31   C     C_R   0.787119 0.242475 0.641663 -0.021853
C32   C     C_R   0.212720 0.757675 0.358474 -0.021862
C33   C     C_R   0.212584 0.242189 0.358590 -0.021890
C34   C     C_R   0.399983 0.899615 0.522353 0.899201
C35   C     C_R   0.787408 0.757802 0.641413 -0.021857
C36   C     C_R   0.338067 0.799465 0.632291 -0.229538
C37   C     C_R   0.662091 0.200389 0.367578 -0.229519
C38   C     C_R   0.661835 0.799370 0.367785 -0.229546
C39   C     C_R   0.338194 0.200656 0.632190 -0.229540
C40   C     C_R   0.837923 0.299599 0.632411 -0.229524
C41   C     C_R   0.161944 0.700525 0.367699 -0.229538
C42   C     C_R   0.161831 0.299366 0.367790 -0.229543
C43   C     C_R   0.838160 0.700625 0.632215 -0.229552
C44   C     C_R   0.300667 0.832295 0.449371 -0.209452
C45   C     C_R   0.899984 0.600385 0.522356 0.899212
C46   C     C_R   0.699257 0.167776 0.550726 -0.209445
C47   C     C_R   0.699402 0.832363 0.550541 -0.209458
C48   C     C_R   0.300594 0.167633 0.449465 -0.209459
C49   C     C_R   0.800748 0.332218 0.449270 -0.209418
C50   C     C_R   0.199338 0.667700 0.550626 -0.209467
C51   C     C_R   0.199417 0.332379 0.550527 -0.209507
C52   C     C_R   0.800595 0.667633 0.449458 -0.209461
C53   C     C_R   0.253620 0.772624 0.451117 0.091731
C54   C     C_R   0.746325 0.227428 0.548936 0.091709
C55   C     C_R   0.746432 0.772675 0.548829 0.091744
C56   C     C_R   0.100016 0.399614 0.477644 0.899223
C57   C     C_R   0.253570 0.227326 0.451167 0.091756
C58   C     C_R   0.753688 0.272560 0.451054 0.091721
C59   C     C_R   0.246390 0.727367 0.548874 0.091724
C60   C     C_R   0.246453 0.272696 0.548813 0.091728
C61   C     C_R   0.753564 0.727320 0.451169 0.091739
C62   C     C_2   0.777452 0.201607 0.749731 0.892363
C63   C     C_2   0.222243 0.798682 0.250519 0.892424
C64   C     C_2   0.221991 0.201061 0.250731 0.892492
C65   C     C_2   0.777998 0.798924 0.749275 0.892477
C66   C     C_2   0.277786 0.701294 0.749458 0.892422
C67   C     C_R   0.100017 0.600385 0.477646 0.899203
C68   C     C_2   0.722585 0.298361 0.250240 0.892375
C69   C     C_2   0.721998 0.701070 0.250724 0.892476
C70   C     C_2   0.278078 0.298999 0.749212 0.892466
C71   C     C_R   0.899979 0.399619 0.522353 0.899249
C72   C     C_R   0.464830 0.999992 0.980568 0.091561
H1    H     H_    0.364934 0.999975 0.233857 0.134373
H2    H     H_    0.303732 0.870792 0.380078 0.186436
H3    H     H_    0.303582 0.129055 0.380274 0.186381
H4    H     H_    0.696400 0.870929 0.619748 0.186397
H5    H     H_    0.196267 0.629206 0.619923 0.186445
H6    H     H_    0.803897 0.370631 0.379869 0.186505
H7    H     H_    0.803599 0.629068 0.380250 0.186396
H8    H     H_    0.196417 0.370949 0.619729 0.186384
H9    H     H_    0.628461 0.189499 0.299308 0.193841
H10   H     H_    0.371787 0.810273 0.700480 0.193825
H11   H     H_    0.371988 0.189917 0.700311 0.193835
H12   H     H_    0.635066 0.000025 0.766143 0.134343
H13   H     H_    0.628054 0.810122 0.299653 0.193851
H14   H     H_    0.128227 0.689714 0.299509 0.193836
H15   H     H_    0.871557 0.310485 0.700677 0.193823
H16   H     H_    0.871940 0.689873 0.700348 0.193853
H17   H     H_    0.128043 0.310110 0.299664 0.193870
H18   H     H_    0.651608 0.000033 0.968893 0.155158
H19   H     H_    0.348392 0.999968 0.031107 0.155098
H20   H     H_    0.151608 0.500032 0.968893 0.155083
H21   H     H_    0.848392 0.499966 0.031107 0.155165
H22   H     H_    0.707995 0.158472 0.872963 0.351884
H23   H     H_    0.864934 0.499974 0.233857 0.134344
H24   H     H_    0.291546 0.841994 0.127243 0.351790
H25   H     H_    0.291172 0.157583 0.127434 0.351718
H26   H     H_    0.708812 0.842392 0.872574 0.351730
H27   H     H_    0.208496 0.657975 0.872744 0.351785
H28   H     H_    0.792060 0.341488 0.127024 0.351890
H29   H     H_    0.791182 0.657606 0.127420 0.351733
H30   H     H_    0.208935 0.342492 0.872543 0.351708
H31   H     H_    0.135066 0.500025 0.766143 0.134372
H32   H     H_    0.595180 0.000024 0.167544 0.129572
H33   H     H_    0.404820 0.999977 0.832456 0.129577
H34   H     H_    0.095180 0.500024 0.167544 0.129573
H35   H     H_    0.904820 0.499975 0.832456 0.129576
H36   H     H_    0.696102 0.129366 0.620133 0.186510
N1    N     N_R   0.480750 0.000000 0.209750 -0.107504
N2    N     N_R   0.519250 0.000000 0.790250 -0.107491
N3    N     N_R   0.980750 0.500000 0.209750 -0.107491
N4    N     N_R   0.019250 0.500000 0.790250 -0.107507
O1    O     O_R   0.418020 0.076820 0.422210 -0.619756
O2    O     O_R   0.569630 0.923170 0.391410 -0.623946
O3    O     O_R   0.569630 0.076830 0.391410 -0.623954
O4    O     O_R   0.430370 0.923170 0.608590 -0.623948
O5    O     O_R   0.930370 0.576830 0.608590 -0.623945
O6    O     O_R   0.069630 0.423170 0.391410 -0.623933
O7    O     O_R   0.069630 0.576830 0.391410 -0.623949
O8    O     O_R   0.930370 0.423170 0.608590 -0.623955
O9    O     O_2   0.831091 0.184305 0.797783 -0.592971
O10   O     O_R   0.707193 0.185973 0.799275 -0.796797
O11   O     O_2   0.168530 0.816031 0.202676 -0.592912
O12   O     O_R   0.581980 0.923180 0.577790 -0.619764
O13   O     O_R   0.292448 0.814399 0.200833 -0.796919
O14   O     O_2   0.168220 0.183683 0.203051 -0.592856
O15   O     O_R   0.292152 0.185259 0.200944 -0.797017
O16   O     O_2   0.831766 0.816310 0.796952 -0.592888
O17   O     O_R   0.707833 0.814714 0.799064 -0.796985
O18   O     O_2   0.331505 0.683927 0.797269 -0.592903
O19   O     O_R   0.207585 0.685584 0.799167 -0.796915
O20   O     O_2   0.668955 0.315637 0.202144 -0.592969
O21   O     O_R   0.792850 0.314007 0.200730 -0.796810
O22   O     O_2   0.668228 0.683682 0.203048 -0.592881
O23   O     O_R   0.581980 0.076820 0.577790 -0.619906
O24   O     O_R   0.792161 0.685283 0.200930 -0.796989
O25   O     O_2   0.331869 0.316429 0.796805 -0.592838
O26   O     O_R   0.207929 0.314777 0.799069 -0.796999
O27   O     O_R   0.418020 0.923180 0.422210 -0.619847
O28   O     O_R   0.918020 0.576820 0.422210 -0.619766
O29   O     O_R   0.081980 0.423180 0.577790 -0.619766
O30   O     O_R   0.081980 0.576820 0.577790 -0.619849
O31   O     O_R   0.918020 0.423180 0.422210 -0.619900
O32   O     O_R   0.430370 0.076830 0.608590 -0.623933
Zn1   Zn    Zn3+2 0.491750 0.000000 0.375560 0.975129
Zn2   Zn    Zn3+2 0.508250 0.000000 0.624440 0.975114
Zn3   Zn    Zn3+2 0.991750 0.500000 0.375560 0.975117
Zn4   Zn    Zn3+2 0.008250 0.500000 0.624440 0.975122

loop_
_geom_bond_atom_site_label_1
_geom_bond_atom_site_label_2
_ccdc_geom_bond_type
C8    C13   A    
C15   N1    A    
C31   C62   S    
H25   O15   S    
C25   C43   A    
C53   C59   A    
C48   C57   A    
C7    N4    A    
C7    C11   A    
C41   H14   S    
C26   C42   A    
C69   O22   D    
C71   O8    A    
O5    Zn4   S    
C43   H16   S    
C40   H15   S    
C47   C55   A    
O6    Zn3   S    
C28   C68   S    
C18   C37   A    
C47   H4    S    
C52   C61   A    
C22   C41   A    
C5    N2    A    
C35   C65   S    
O7    Zn3   S    
C18   C46   A    
C34   O27   A    
C49   H6    S    
H30   O26   S    
O1    Zn1   S    
C68   O20   D    
C51   H8    S    
C16   H35   S    
C31   C40   A    
C11   H20   S    
C14   H33   S    
O27   Zn1   S    
C21   C38   A    
C36   H10   S    
C46   H36   S    
C29   C38   A    
H24   O13   S    
C32   C41   A    
C15   H32   S    
C52   H7    S    
C35   C43   A    
C29   C69   S    
C3    C13   A    
C50   C59   A    
C22   C50   A    
C64   O15   S    
C7    H31   S    
C48   H3    S    
C37   H9    S    
C8    H23   S    
C1    O1    A    
C2    C72   A    
C17   N3    A    
O28   Zn3   S    
C30   C70   S    
C12   O2    A    
C29   C61   A    
C38   H13   S    
C35   C55   A    
C18   C23   S    
C65   O16   D    
O30   Zn4   S    
C32   C63   S    
O32   Zn2   S    
C8    N3    A    
N2    Zn2   S    
C5    H12   S    
C57   C60   A    
O12   Zn2   S    
C12   C21   S    
C45   O28   A    
C49   C58   A    
N4    Zn4   S    
C13   H21   S    
O31   Zn3   S    
C5    C9    A    
N3    Zn3   S    
C63   O11   D    
C12   O12   A    
O23   Zn2   S    
C46   C54   A    
C44   C53   A    
C23   O23   A    
C63   O13   S    
C4    C11   A    
C44   H2    S    
C2    C15   A    
C20   C48   A    
C4    C17   A    
H22   O10   S    
C10   H19   S    
O8    Zn4   S    
C69   O24   S    
C64   O14   D    
H28   O21   S    
C6    N1    A    
C56   O29   A    
C3    C4    A    
C50   H5    S    
C25   C45   S    
C32   C53   A    
C62   O10   S    
C30   C60   A    
C19   C44   A    
C16   N4    A    
C6    H1    S    
C71   O31   A    
C66   O19   S    
C54   C58   A    
H29   O24   S    
C45   O5    A    
C24   C49   A    
C14   N2    A    
C33   C42   A    
C68   O21   S    
C1    C20   S    
C33   C57   A    
C14   C72   A    
N1    Zn1   S    
O2    Zn1   S    
C19   C34   S    
C26   C56   S    
C9    H18   S    
C6    C10   A    
C65   O17   S    
C70   O26   S    
C28   C58   A    
C27   C36   A    
O3    Zn1   S    
O29   Zn4   S    
H27   O19   S    
C19   C36   A    
C42   H17   S    
C20   C39   A    
C25   C52   A    
C39   H11   S    
C1    O32   A    
C27   C59   A    
C26   C51   A    
O4    Zn2   S    
C2    C9    A    
C67   O7    A    
C28   C37   A    
C33   C64   S    
C55   C61   A    
H26   O17   S    
C24   C40   A    
C30   C39   A    
C31   C54   A    
C22   C67   S    
C23   O3    A    
C56   O6    A    
C70   O25   D    
C27   C66   S    
C51   C60   A    
C66   O18   D    
C17   H34   S    
C67   O30   A    
C34   O4    A    
C62   O9    D    
C3    C16   A    
C24   C71   S    
C21   C47   A    
C10   C72   A    
