data_mof_unit_67494.cif
_audit_creation_date              2013-03-05T15:41:00-0500
_audit_creation_method            fapswitch 2.2
_symmetry_space_group_name_H-M    P1
_symmetry_Int_Tables_number       1
_space_group_crystal_system       triclinic
_cell_length_a                    11.156138
_cell_length_b                    9.049746
_cell_length_c                    7.666953
_cell_angle_alpha                 101.179983
_cell_angle_beta                  93.481523
_cell_angle_gamma                 96.068729
_cell_volume                      752.490204765

loop_
_atom_site_label
_atom_site_type_symbol
_atom_site_description
_atom_site_fract_x
_atom_site_fract_y
_atom_site_fract_z
_atom_type_partial_charge
O1    O     O_R   0.509140 0.286130 0.619770 -0.624078
O2    O     O_R   0.485380 0.256770 0.308360 -0.624560
C1    C     C_R   0.492685 0.201336 0.455874 0.853825
O3    O     O_R   0.329570 0.514650 0.655700 -0.585653
O4    O     O_R   0.305810 0.485300 0.344290 -0.544831
C2    C     C_R   0.258794 0.491632 0.503099 0.867730
Cu1   Cu    Cu3+1 0.514070 0.517380 0.684380 0.925610
Cu2   Cu    Cu3+1 0.485930 0.482620 0.315620 0.966706
O5    O     O_R   0.514620 0.743230 0.691640 -0.609476
O6    O     O_R   0.490860 0.713870 0.380230 -0.566214
O7    O     O_R   0.694190 0.514700 0.655710 -0.598198
O8    O     O_R   0.670430 0.485350 0.344300 -0.592306
C3    C     C_R   0.507091 0.798848 0.543839 0.836824
C4    C     C_R   0.738654 0.505630 0.496758 0.774251
C5    C     C_3   0.053561 0.426387 0.661078 0.475351
C6    C     C_3   0.921637 0.459613 0.662295 -0.440381
H1    H     H_    0.858738 0.362493 0.685077 0.220291
H2    H     H_    0.911793 0.549299 0.780740 0.189831
H3    H     H_    0.915947 0.736600 0.634899 0.151851
C7    C     C_3   0.085626 0.671219 0.521146 0.231356
C8    C     C_3   0.055011 0.402582 0.329389 0.055851
C9    C     C_3   0.118341 0.498582 0.509991 -0.069753
H4    H     H_    0.089316 0.454048 0.221187 0.224117
C10   C     C_3   0.875467 0.509111 0.490345 -0.057339
C11   C     C_3   0.941403 0.673330 0.505267 -0.171633
C12   C     C_3   0.914733 0.407708 0.316208 -0.073769
H5    H     H_    0.895222 0.466800 0.206198 0.172581
C13   C     C_2   0.481998 0.034537 0.433072 -0.307761
H6    H     H_    0.456425 0.967471 0.299943 0.186148
C14   C     C_2   0.509595 0.965097 0.567317 -0.370932
H7    H     H_    0.533877 0.031600 0.700286 0.163598
N1    N     N_2   0.464720 0.456420 0.038520 -0.115339
N2    N     N_2   0.535280 0.543580 0.961480 -0.247302
H8    H     H_    0.581514 0.635939 0.045856 0.210251
Br1   Br    Br    0.130757 0.503115 0.897927 -0.612802
Br2   Br    Br    0.165888 0.754931 0.330313 -0.559483
C15   C     C_3   0.891360 0.763708 0.367758 -0.341430
C16   C     C_3   0.793088 0.858488 0.439325 -0.368861
C17   C     C_3   0.726603 0.913296 0.289330 -0.843957
H9    H     H_    0.784005 0.922707 0.178822 0.256389
H10   H     H_    0.646032 0.834945 0.233615 0.256763
H11   H     H_    0.696925 0.024039 0.342527 0.239457
H12   H     H_    0.728939 0.792378 0.506450 0.215928
H13   H     H_    0.835043 0.957865 0.541363 0.250479
H14   H     H_    0.960666 0.849705 0.338183 0.290930
H15   H     H_    0.856522 0.689204 0.238734 0.211158
C18   C     C_3   0.419571 0.311251 0.929470 -0.035154
C19   C     C_3   0.336702 0.211042 0.019025 -0.389103
C20   C     C_3   0.219403 0.152078 0.910919 -0.777107
H16   H     H_    0.155659 0.234119 0.945021 0.339527
H17   H     H_    0.231817 0.135646 0.767308 0.286030
H18   H     H_    0.177682 0.047989 0.947786 0.286177
H19   H     H_    0.381876 0.113246 0.042782 0.213443
H20   H     H_    0.314302 0.273501 0.144913 0.328993
H21   H     H_    0.368298 0.331248 0.811648 0.250255
H22   H     H_    0.497737 0.248406 0.899025 0.150268
Br3   Br    Br    0.030551 0.205955 0.639648 -0.640061
C21   C     C_3   0.131679 0.787648 0.698663 -0.397533
C22   C     C_3   0.268695 0.824346 0.738234 -0.279663
C23   C     C_3   0.320396 0.814005 0.925453 -0.636868
H23   H     H_    0.412620 0.876462 0.953658 0.193463
H24   H     H_    0.263295 0.861463 0.030184 0.278457
H25   H     H_    0.331868 0.696872 0.936458 0.318110
H26   H     H_    0.309098 0.754382 0.636784 0.255310
H27   H     H_    0.301229 0.934461 0.709697 0.210977
H28   H     H_    0.097547 0.895811 0.683859 0.234396
H29   H     H_    0.087999 0.760213 0.815747 0.231899
Br4   Br    Br    0.107335 0.198181 0.268912 -0.582991
C24   C     C_3   0.841323 0.250006 0.250121 -0.343611
C25   C     C_3   0.852732 0.188926 0.048481 -0.304352
C26   C     C_3   0.735958 0.188724 0.935339 -0.852090
H30   H     H_    0.661868 0.115561 0.978546 0.241334
H31   H     H_    0.712351 0.306385 0.948974 0.276875
H32   H     H_    0.747926 0.143395 0.793029 0.249868
H33   H     H_    0.925702 0.257716 0.997035 0.276496
H34   H     H_    0.878290 0.072066 0.026077 0.236042
H35   H     H_    0.873133 0.171079 0.330457 0.266080
H36   H     H_    0.744894 0.251572 0.273423 0.213316

loop_
_geom_bond_atom_site_label_1
_geom_bond_atom_site_label_2
_geom_bond_distance
_ccdc_geom_bond_type
C8    C12   1.568251 S    
C5    Br3   1.957504 S    
C24   H35   1.101422 S    
Cu1   Cu2   2.778016 S    
C17   H10   1.092864 S    
Cu1   O7    2.036825 S    
C12   H5    1.105427 S    
C23   H25   1.099641 S    
C13   H6    1.085989 S    
C10   C12   1.580325 S    
O4    C2    1.348247 A    
O7    C4    1.334619 A    
C7    C11   1.608604 S    
C5    C6    1.533207 S    
C2    C9    1.578469 S    
C23   H24   1.105105 S    
C4    C10   1.527271 S    
O5    C3    1.327801 A    
C11   C15   1.565755 S    
C21   H28   1.110248 S    
C5    C9    1.608206 S    
C6    H1    1.113279 S    
C20   H17   1.101372 S    
C25   C26   1.520286 S    
C22   C23   1.537776 S    
C6    C10   1.548966 S    
C8    C9    1.567215 S    
Cu1   N2    2.087464 S    
C24   H36   1.102273 S    
O3    Cu1   2.053719 S    
C5    Br1   1.927693 S    
C17   H11   1.099281 S    
C19   H19   1.102767 S    
Cu2   N1    2.087464 S    
C3    C14   1.477240 S    
C16   C17   1.521201 S    
C10   C11   1.566994 S    
O3    C2    1.339481 A    
C17   H9    1.103413 S    
C26   H31   1.110660 S    
C21   C22   1.528443 S    
C23   H23   1.107886 S    
O1    C1    1.330347 A    
C19   H20   1.077550 S    
C16   H13   1.110675 S    
C15   C16   1.525820 S    
C26   H32   1.110086 S    
C18   C19   1.513216 S    
Cu2   O8    2.053718 S    
C20   H18   1.100168 S    
N2    H8    1.020677 S    
C22   H26   1.058772 S    
Cu2   O6    2.048994 S    
C19   C20   1.494422 S    
O8    C4    1.326089 A    
C8    H4    1.096498 S    
C8    Br4   1.976355 S    
C25   H34   1.108367 S    
N1    C18   1.435847 S    
C7    C21   1.571947 S    
C18   H21   1.094751 S    
Cu1   O5    2.033173 S    
C1    C13   1.476620 S    
O1    Cu1   2.048994 S    
O2    Cu2   2.033174 S    
C7    C9    1.629078 S    
O6    C3    1.329117 A    
O4    Cu2   2.036825 S    
N1    N2    1.302517 D    
C13   C14   1.342489 D    
O2    C1    1.324724 A    
C26   H30   1.110808 S    
C22   H27   1.091035 S    
C14   H7    1.081182 S    
C24   C25   1.555358 S    
H3    C11   1.115477 S    
C7    Br2   1.990448 S    
C21   H29   1.104039 S    
C16   H12   1.099345 S    
C6    H2    1.113836 S    
C20   H16   1.088229 S    
C25   H33   1.110350 S    
C12   C24   1.544770 S    
C15   H15   1.106101 S    
C15   H14   1.103363 S    
C18   H22   1.102941 S    
