data_mof_unit_8037.cif
_audit_creation_date              2012-12-10T17:57:54-0500
_audit_creation_method            fapswitch 2.2
_symmetry_space_group_name_H-M    P1
_symmetry_Int_Tables_number       1
_space_group_crystal_system       triclinic
_cell_length_a                    10.809422
_cell_length_b                    9.638923
_cell_length_c                    15.044977
_cell_angle_alpha                 90.057684
_cell_angle_beta                  92.281928
_cell_angle_gamma                 90.065901
_cell_volume                      1566.30903221

loop_
_atom_site_label
_atom_site_type_symbol
_atom_type_description
_atom_site_fract_x
_atom_site_fract_y
_atom_site_fract_z
_atom_type_partial_charge
Br1   Br    Br    0.765796 0.503410 0.753148 -0.363055
Br2   Br    Br    0.308390 0.831788 0.361745 -0.351691
Br3   Br    Br    0.234199 0.496586 0.246858 -0.363070
Br4   Br    Br    0.240599 0.449848 0.735605 -0.404712
Br5   Br    Br    0.759399 0.550133 0.264384 -0.404714
Br6   Br    Br    0.118692 0.597693 0.898284 -0.313718
Br7   Br    Br    0.881247 0.402185 0.101717 -0.313712
Br8   Br    Br    0.308271 0.167249 0.361933 -0.347996
Br9   Br    Br    0.691728 0.832750 0.638067 -0.347998
Br10  Br    Br    0.691611 0.168212 0.638255 -0.351685
C1    C     C_R   0.262427 0.499962 0.499633 0.864054
C2    C     C_R   0.128386 0.499956 0.499678 -0.008753
C3    C     C_R   0.421543 0.073721 0.443510 0.278635
C4    C     C_R   0.578457 0.926278 0.556490 0.278633
C5    C     C_R   0.578447 0.074121 0.556512 0.279914
C6    C     C_R   0.421553 0.925879 0.443487 0.279914
C7    C     C_R   0.499624 0.499943 0.329382 0.918307
C8    C     C_R   0.500375 0.500057 0.670618 0.918309
C9    C     C_R   0.612279 0.500087 0.815793 0.221066
C10   C     C_R   0.387713 0.499915 0.184209 0.221068
C11   C     C_R   0.499451 0.500346 0.766997 -0.172557
C12   C     C_R   0.737572 0.500038 0.500366 0.864052
C13   C     C_R   0.500543 0.499654 0.233003 -0.172552
C14   C     C_R   0.385817 0.497897 0.809045 0.193275
C15   C     C_R   0.614174 0.502094 0.190953 0.193275
C16   C     C_R   0.384312 0.510565 0.902787 -0.004386
C17   C     C_R   0.615673 0.489425 0.097211 -0.004384
C18   C     C_R   0.499005 0.501054 0.952855 -0.023187
C19   C     C_R   0.500981 0.498946 0.047144 -0.023189
C20   C     C_R   0.612147 0.493644 0.908890 0.008672
C21   C     C_R   0.387841 0.506358 0.091111 0.008679
C22   C     C_R   0.274148 0.531698 0.949248 0.307169
C23   C     C_R   0.276973 0.524456 0.041391 -0.137004
C24   C     C_R   0.725832 0.468278 0.050752 0.307175
C25   C     C_R   0.723012 0.475538 0.958610 -0.137001
C26   C     C_R   0.063769 0.373928 0.499581 -0.081074
C27   C     C_R   0.936231 0.626072 0.500417 -0.081081
C28   C     C_R   0.935921 0.373970 0.499775 -0.092078
C29   C     C_R   0.064079 0.626030 0.500223 -0.092082
C30   C     C_R   0.871614 0.500044 0.500320 -0.008756
Cu1   Cu    Cu3+1 0.500000 0.640660 0.500000 1.079023
Cu2   Cu    Cu3+1 0.500000 0.359340 0.500000 1.079026
H1    H     H_    0.190590 0.539830 0.073767 0.234399
H2    H     H_    0.809392 0.460162 0.926234 0.234406
H3    H     H_    0.111622 0.275301 0.499500 0.188524
H4    H     H_    0.888378 0.724699 0.500498 0.188523
H5    H     H_    0.887830 0.275349 0.499381 0.186848
H6    H     H_    0.112170 0.724651 0.500617 0.186849
N1    N     N_R   0.500000 0.852070 0.500000 -0.256638
N2    N     N_R   0.500000 0.147930 0.500000 -0.256638
O1    O     O_R   0.319640 0.618740 0.499990 -0.566201
O2    O     O_R   0.680360 0.381260 0.500010 -0.566200
O3    O     O_R   0.680360 0.618740 0.500010 -0.559856
O4    O     O_R   0.319640 0.381260 0.499990 -0.559854
O5    O     O_R   0.499970 0.618800 0.370260 -0.533982
O6    O     O_R   0.500030 0.381200 0.629740 -0.533979
O7    O     O_R   0.500030 0.618800 0.629740 -0.543008
O8    O     O_R   0.499970 0.381200 0.370260 -0.543005

loop_
_geom_bond_atom_site_label_1
_geom_bond_atom_site_label_2
_ccdc_geom_bond_type
Br6   C22   S    
C1    C2    S    
C21   C23   A    
C16   C22   A    
Br8   C3    S    
C17   C19   A    
C8    C11   S    
Br2   C6    S    
Cu1   Cu2   S    
C7    O5    A    
C8    O7    A    
C16   C18   A    
C10   C13   A    
C8    O6    A    
C7    O8    A    
Br9   C4    S    
C12   C30   S    
C22   C23   A    
Cu2   O8    S    
C2    C29   A    
C18   C20   A    
Cu1   O7    S    
C26   H3    S    
C27   C29   A    
Cu2   O4    S    
C28   C30   A    
C25   H2    S    
Cu1   O3    S    
C28   H5    S    
C7    C13   S    
C1    O4    A    
C20   C25   A    
Cu2   N2    S    
Br5   C15   S    
C26   C28   A    
C18   C19   A    
C9    C11   A    
C14   C16   A    
C2    C26   A    
C12   O3    A    
Br10  C5    S    
C13   C15   A    
C17   C24   A    
Br4   C14   S    
Br7   C24   S    
Br1   C9    S    
C4    N1    A    
C15   C17   A    
C11   C14   A    
C5    N2    A    
C27   C30   A    
C23   H1    S    
Br3   C10   S    
C1    O1    A    
C6    N1    A    
C12   O2    A    
C24   C25   A    
C3    C6    A    
Cu1   N1    S    
C4    C5    A    
Cu1   O5    S    
Cu2   O6    S    
C27   H4    S    
C19   C21   A    
C9    C20   A    
Cu1   O1    S    
C3    N2    A    
Cu2   O2    S    
C29   H6    S    
C10   C21   A    
