data_mof_unit_67478.cif
_audit_creation_date              2013-03-05T15:40:59-0500
_audit_creation_method            fapswitch 2.2
_symmetry_space_group_name_H-M    P1
_symmetry_Int_Tables_number       1
_space_group_crystal_system       triclinic
_cell_length_a                    10.966381
_cell_length_b                    8.836603
_cell_length_c                    7.669637
_cell_angle_alpha                 102.830611
_cell_angle_beta                  94.602935
_cell_angle_gamma                 93.754339
_cell_volume                      719.677299104

loop_
_atom_site_label
_atom_site_type_symbol
_atom_site_description
_atom_site_fract_x
_atom_site_fract_y
_atom_site_fract_z
_atom_type_partial_charge
O1    O     O_R   0.509140 0.286130 0.619770 -0.582803
O2    O     O_R   0.485380 0.256770 0.308360 -0.538414
C1    C     C_R   0.495382 0.201732 0.454923 0.851309
O3    O     O_R   0.329570 0.514650 0.655700 -0.549474
O4    O     O_R   0.305810 0.485300 0.344290 -0.515140
C2    C     C_R   0.261308 0.503462 0.503591 0.923696
Cu1   Cu    Cu3+1 0.514070 0.517380 0.684380 1.231163
Cu2   Cu    Cu3+1 0.485930 0.482620 0.315620 1.235056
O5    O     O_R   0.514620 0.743230 0.691640 -0.514809
O6    O     O_R   0.490860 0.713870 0.380230 -0.525497
O7    O     O_R   0.694190 0.514700 0.655710 -0.527690
O8    O     O_R   0.670430 0.485350 0.344300 -0.518577
C3    C     C_R   0.504151 0.798708 0.545236 0.839931
C4    C     C_R   0.738105 0.489348 0.497993 0.968387
C5    C     C_3   0.082097 0.480626 0.705654 0.359532
C6    C     C_3   0.938331 0.495953 0.695643 0.079945
H1    H     H_    0.919079 0.612686 0.767369 0.239219
C7    C     C_3   0.073982 0.663051 0.473962 0.372827
C8    C     C_3   0.062428 0.346823 0.362460 0.355636
C9    C     C_3   0.123382 0.500523 0.510102 -0.537621
C10   C     C_3   0.877033 0.484501 0.499822 -0.478786
C11   C     C_3   0.927503 0.639944 0.447084 0.446638
C12   C     C_3   0.915821 0.326966 0.375267 0.429573
C13   C     C_2   0.482293 0.035374 0.432195 0.187648
C14   C     C_2   0.517179 0.965890 0.567943 0.167847
N1    N     N_2   0.464720 0.456420 0.038520 -0.106875
H2    H     H_    0.422986 0.357529 0.952380 0.260119
N2    N     N_2   0.535280 0.543580 0.961480 0.109714
N3    N     N_R   0.142907 0.603752 0.861576 0.197208
O9    O     O_R   0.082678 0.714292 0.947413 -0.180108
O10   O     O_R   0.246405 0.583886 0.945077 -0.214831
Cl1   Cl    Cl    0.830303 0.279695 0.159613 -0.278420
N4    N     N_R   0.120620 0.723404 0.324647 0.231822
O11   O     O_R   0.235495 0.722169 0.299800 -0.249522
O12   O     O_R   0.069194 0.840745 0.282992 -0.097637
Cl2   Cl    Cl    0.866104 0.640368 0.222973 -0.296137
Cl3   Cl    Cl    0.407519 0.938836 0.219117 -0.313949
Cl4   Cl    Cl    0.593001 0.067017 0.779860 -0.342006
Cl5   Cl    Cl    0.611799 0.713957 0.084866 -0.216853
N5    N     N_R   0.113799 0.326752 0.741105 0.210644
O13   O     O_R   0.227705 0.299698 0.771475 -0.284020
O14   O     O_R   0.033224 0.209346 0.729425 -0.127769
Cl6   Cl    Cl    0.858535 0.389607 0.829593 -0.252959
Cl7   Cl    Cl    0.132613 0.826110 0.655994 -0.332755
Cl8   Cl    Cl    0.860965 0.807788 0.575258 -0.347240
N6    N     N_R   0.088785 0.354227 0.178550 0.199027
O15   O     O_R   0.052534 0.464088 0.107134 -0.257108
O16   O     O_R   0.145706 0.246764 0.079907 -0.149632
Cl9   Cl    Cl    0.140735 0.177195 0.396458 -0.346691
N7    N     N_R   0.876001 0.187716 0.440961 0.206656
O17   O     O_R   0.905606 0.052723 0.356393 -0.118407
O18   O     O_R   0.772094 0.183905 0.510901 -0.301865

loop_
_geom_bond_atom_site_label_1
_geom_bond_atom_site_label_2
_geom_bond_distance
_ccdc_geom_bond_type
O4    Cu2   2.006019 S    
C8    C12   1.619058 S    
C5    N3    1.502561 S    
C6    C10   1.574583 S    
C7    Cl7   1.811040 S    
C14   Cl4   1.781102 S    
C2    C9    1.516087 S    
C8    Cl9   1.832612 S    
N1    N2    1.318536 D    
C8    C9    1.627968 S    
Cu2   O8    2.015568 S    
C12   Cl1   1.783973 S    
N5    O14   1.300422 A    
N7    O17   1.299977 A    
C1    C13   1.437543 S    
C8    N6    1.476940 S    
Cu1   Cu2   2.765912 S    
N3    O10   1.299435 A    
O1    Cu1   1.988899 S    
C10   C11   1.593679 S    
Cu1   O7    2.006019 S    
C6    Cl6   1.780366 S    
C3    C14   1.444751 S    
N1    H2    1.025792 S    
N3    O9    1.300954 A    
O3    Cu1   2.015569 S    
C4    C10   1.525965 S    
O3    C2    1.315322 A    
N5    O13   1.299579 A    
N4    O12   1.300023 A    
O8    C4    1.333863 A    
N4    O11   1.289514 A    
C7    C9    1.639383 S    
C10   C12   1.607335 S    
O4    C2    1.332493 A    
O7    C4    1.316284 A    
N6    O16   1.303119 A    
C5    N5    1.501523 S    
N7    O18   1.299381 A    
C7    N4    1.478854 S    
C5    C6    1.588401 S    
C11   Cl8   1.818765 S    
Cu2   N1    2.078339 S    
C13   C14   1.363119 D    
Cu2   O6    1.988899 S    
O2    Cu2   1.983724 S    
C13   Cl3   1.773404 S    
Cu1   O5    1.983723 S    
O5    C3    1.321178 A    
N6    O15   1.285398 A    
C6    H1    1.098344 S    
C12   N7    1.482893 S    
O2    C1    1.319907 A    
N2    Cl5   1.714843 S    
C7    C11   1.596785 S    
C11   Cl2   1.795900 S    
Cu1   N2    2.078339 S    
C5    C9    1.643481 S    
O1    C1    1.308939 A    
O6    C3    1.311318 A    
