data_mof_unit_6612.cif
_audit_creation_date              2012-12-10T18:00:49-0500
_audit_creation_method            fapswitch 2.2
_symmetry_space_group_name_H-M    P1
_symmetry_Int_Tables_number       1
_space_group_crystal_system       triclinic
_cell_length_a                    15.880777
_cell_length_b                    10.741474
_cell_length_c                    9.598079
_cell_angle_alpha                 89.724522
_cell_angle_beta                  90.430379
_cell_angle_gamma                 91.755555
_cell_volume                      1636.43683628

loop_
_atom_site_label
_atom_site_type_symbol
_atom_type_description
_atom_site_fract_x
_atom_site_fract_y
_atom_site_fract_z
_atom_type_partial_charge
C1    C     C_R   0.500376 0.262607 0.500230 0.838581
C2    C     C_R   0.498339 0.737254 0.499777 0.842265
C3    C     C_R   0.562370 0.936629 0.431275 -0.290194
C4    C     C_R   0.435391 0.063037 0.566878 -0.271054
C5    C     C_R   0.497370 0.871008 0.499405 -0.094297
C6    C     C_R   0.501243 0.128720 0.500925 -0.080852
C7    C     C_R   0.444292 0.424806 0.074633 0.221264
C8    C     C_R   0.554479 0.577155 0.925052 0.208886
C9    C     C_R   0.446027 0.422427 0.925915 0.370670
C10   C     C_R   0.555085 0.575952 0.073928 0.373403
C11   C     C_R   0.340174 0.499759 0.499456 0.838955
C12   C     C_R   0.659858 0.501101 0.500581 0.831222
C13   C     C_3   0.971620 0.418095 0.592264 0.163393
C14   C     C_3   0.028487 0.590290 0.410906 0.193580
C15   C     C_3   0.024598 0.391153 0.462767 0.206196
C16   C     C_3   0.975095 0.616802 0.540839 0.192852
C17   C     C_1   0.250913 0.500357 0.498092 -0.163754
C18   C     C_1   0.749206 0.502456 0.502233 -0.154578
C19   C     C_3   0.030269 0.530534 0.629149 0.205099
C20   C     C_3   0.969991 0.477937 0.374244 0.212095
C21   C     C_3   0.084425 0.503367 0.499582 -0.097559
C22   C     C_3   0.915908 0.504441 0.503978 -0.132541
C23   C     C_1   0.175669 0.501377 0.497638 -0.011438
C24   C     C_1   0.824515 0.503455 0.503718 -0.018509
C25   C     C_R   0.565219 0.066130 0.432160 0.251857
C26   C     C_R   0.432703 0.933441 0.566389 0.242091
Cu1   Cu    Cu3+1 0.500000 0.500020 0.640660 1.013721
Cu2   Cu    Cu3+1 0.500000 0.499980 0.359340 1.023378
H1    H     H_    0.611876 0.887061 0.380243 0.190505
H2    H     H_    0.384939 0.112492 0.615382 0.191908
N1    N     N_R   0.500020 0.500030 0.852070 -0.231925
N2    N     N_R   0.499980 0.499970 0.147930 -0.230289
O1    O     O_R   0.500000 0.319660 0.618740 -0.538018
O2    O     O_R   0.500000 0.680340 0.381260 -0.542172
O3    O     O_R   0.499990 0.319630 0.381170 -0.553068
O4    O     O_R   0.500010 0.680370 0.618830 -0.559053
O5    O     O_R   0.379080 0.500000 0.618760 -0.518707
O6    O     O_R   0.620920 0.500000 0.381240 -0.511094
O7    O     O_R   0.379080 0.499970 0.381190 -0.571019
O8    O     O_R   0.620920 0.500030 0.618810 -0.580528
N3    N     N_2   0.053651 0.271015 0.418820 -0.420044
H3    H     H_    0.105482 0.241530 0.473570 0.253449
C27   C     C_3   0.989246 0.174390 0.398620 -0.689423
H4    H     H_    0.016663 0.095214 0.342689 0.217074
H5    H     H_    0.936043 0.208843 0.335406 0.235517
H6    H     H_    0.964835 0.140209 0.500194 0.246590
N4    N     N_2   0.945204 0.736015 0.586753 -0.414410
H7    H     H_    0.884285 0.753642 0.556554 0.254919
C28   C     C_3   0.002382 0.842782 0.572515 -0.655007
H8    H     H_    0.990505 0.909875 0.657177 0.217098
H9    H     H_    0.991557 0.890157 0.471427 0.226158
H10   H     H_    0.069190 0.815742 0.578170 0.243669
N5    N     N_2   0.937709 0.327189 0.690645 -0.417972
H11   H     H_    0.891783 0.362554 0.753210 0.252950
C29   C     C_3   0.998875 0.256834 0.768047 -0.686496
H12   H     H_    0.965729 0.182109 0.828500 0.220061
H13   H     H_    0.034712 0.317759 0.841725 0.238695
H14   H     H_    0.043756 0.212646 0.697259 0.241777
N6    N     N_2   0.061484 0.683431 0.314383 -0.423085
H15   H     H_    0.113901 0.656246 0.261125 0.245748
C30   C     C_3   0.000036 0.743194 0.226607 -0.643871
H16   H     H_    0.027234 0.833059 0.187634 0.211161
H17   H     H_    0.941772 0.761994 0.285163 0.244292
H18   H     H_    0.983405 0.683803 0.135677 0.244046
N7    N     N_2   0.933743 0.451844 0.238134 -0.403906
H19   H     H_    0.879888 0.395907 0.241220 0.256463
C31   C     C_3   0.991927 0.416572 0.131225 -0.688419
H20   H     H_    0.959164 0.418555 0.028893 0.217495
H21   H     H_    0.013780 0.320837 0.149814 0.249084
H22   H     H_    0.047311 0.481941 0.127395 0.236437
N8    N     N_2   0.060194 0.552331 0.770356 -0.408517
H23   H     H_    0.012581 0.548422 0.842673 0.251047
C32   C     C_3   0.119126 0.655477 0.793337 -0.656954
H24   H     H_    0.155529 0.638070 0.890294 0.220301
H25   H     H_    0.084675 0.742755 0.807407 0.226266
H26   H     H_    0.164244 0.666589 0.706269 0.238284
N9    N     N_2   0.632615 0.132763 0.365390 -0.421735
H27   H     H_    0.654351 0.089045 0.277787 0.260907
C33   C     C_3   0.700736 0.170665 0.458291 -0.682082
H28   H     H_    0.731909 0.087502 0.501540 0.224064
H29   H     H_    0.676927 0.227310 0.545235 0.223562
H30   H     H_    0.748094 0.228059 0.399982 0.226440
N10   N     N_2   0.361040 0.866862 0.620016 -0.442574
H31   H     H_    0.305018 0.901618 0.584037 0.246340
C34   C     C_3   0.360900 0.851796 0.769754 -0.651306
H32   H     H_    0.361410 0.944075 0.821747 0.234738
H33   H     H_    0.416241 0.799299 0.804405 0.250037
H34   H     H_    0.303338 0.797960 0.801521 0.216334
N11   N     N_2   0.386422 0.345973 0.148705 -0.357221
H35   H     H_    0.393245 0.252515 0.129184 0.262266
C35   C     C_3   0.299169 0.382245 0.143319 -0.600294
H36   H     H_    0.264475 0.337641 0.231255 0.213999
H37   H     H_    0.268230 0.351095 0.045069 0.244967
H38   H     H_    0.294258 0.484935 0.152021 0.223076
N12   N     N_2   0.614772 0.651752 0.850719 -0.359907
H39   H     H_    0.675756 0.622685 0.862011 0.257594
C36   C     C_3   0.607391 0.785877 0.858284 -0.567974
H40   H     H_    0.609293 0.825983 0.751655 0.217701
H41   H     H_    0.661224 0.827599 0.918218 0.229726
H42   H     H_    0.547972 0.812365 0.909025 0.217042
Cl1   Cl    Cl    0.379358 0.314575 0.837565 -0.659287
Cl2   Cl    Cl    0.628262 0.674441 0.162083 -0.648162

loop_
_geom_bond_atom_site_label_1
_geom_bond_atom_site_label_2
_ccdc_geom_bond_type
C29   H12   S    
C26   N10   S    
C32   H25   S    
C32   H24   S    
C19   N8    S    
N12   H39   S    
C36   H40   S    
C1    O1    A    
N4    C28   S    
C34   H32   S    
Cu1   O1    S    
C14   N6    S    
Cu2   N2    S    
C17   C23   T    
C25   N9    S    
C14   C21   S    
C19   C21   S    
C6    C25   A    
C7    N11   S    
C30   H17   S    
N3    H3    S    
C11   O5    A    
N4    H7    S    
Cu2   O3    S    
C28   H9    S    
C18   C24   T    
N11   C35   S    
C2    O2    A    
N9    C33   S    
Cu2   O2    S    
N6    H15   S    
N3    C27   S    
C8    N12   S    
C16   N4    S    
C36   H41   S    
C13   N5    S    
N5    C29   S    
C15   C20   S    
N6    C30   S    
C13   C19   S    
C34   H33   S    
Cu1   N1    S    
C31   H20   S    
C14   C20   S    
C20   N7    S    
C3    C25   A    
C33   H28   S    
C15   N3    S    
C4    C6    A    
C35   H36   S    
C33   H29   S    
Cu2   O7    S    
N7    C31   S    
N9    H27   S    
C1    C6    S    
C31   H21   S    
C12   O8    A    
C30   H18   S    
C27   H4    S    
C35   H37   S    
N10   H31   S    
C13   C15   S    
Cu2   O6    S    
Cu1   O8    S    
C28   H10   S    
C11   O7    A    
C27   H5    S    
C8    C10   A    
N10   C34   S    
C20   C22   S    
C28   H8    S    
C29   H13   S    
C32   H26   S    
C14   C16   S    
C2    C5    S    
C36   H42   S    
C1    O3    A    
N8    C32   S    
C34   H34   S    
C2    O4    A    
C7    C9    A    
C11   C17   S    
C16   C22   S    
C7    N2    A    
C8    N1    A    
C3    C5    A    
C33   H30   S    
C4    C26   A    
N12   C36   S    
N5    H11   S    
Cu1   O4    S    
C31   H22   S    
C21   C23   S    
N8    H23   S    
C35   H38   S    
C3    H1    S    
Cu1   O5    S    
C16   C19   S    
C10   Cl2   S    
C13   C22   S    
C22   C24   S    
C12   O6    A    
C30   H16   S    
C27   H6    S    
C9    N1    A    
C5    C26   A    
C10   N2    A    
C15   C21   S    
C9    Cl1   S    
N7    H19   S    
C29   H14   S    
C12   C18   S    
Cu1   Cu2   S    
N11   H35   S    
C4    H2    S    
