data_mof_unit_15526.cif
_audit_creation_date              2012-12-11T14:56:47-0500
_audit_creation_method            fapswitch 2.2
_symmetry_space_group_name_H-M    P1
_symmetry_Int_Tables_number       1
_space_group_crystal_system       triclinic
_cell_length_a                    10.503682
_cell_length_b                    10.674331
_cell_length_c                    17.032824
_cell_angle_alpha                 80.335494
_cell_angle_beta                  89.810127
_cell_angle_gamma                 119.044669
_cell_volume                      1637.86853306

loop_
_atom_site_label
_atom_site_type_symbol
_atom_type_description
_atom_site_fract_x
_atom_site_fract_y
_atom_site_fract_z
_atom_type_partial_charge
C1    C     C_R   0.278934 0.888645 0.132764 0.547804
C2    C     C_1   0.683663 0.399647 0.709705 -0.043983
C3    C     C_R   0.640022 0.719443 0.803488 0.216759
C4    C     C_R   0.638067 0.282475 0.085721 0.560401
C5    C     C_R   0.626606 0.702217 0.725348 -0.107766
C6    C     C_R   0.666036 0.823167 0.663803 -0.015726
C7    C     C_R   0.722776 0.963137 0.679827 -0.153233
C8    C     C_R   0.729329 0.980161 0.758613 -0.127180
C9    C     C_R   0.684391 0.857519 0.820501 0.090462
C10   C     C_R   0.079386 0.885178 0.789604 0.227853
C11   C     C_R   0.063788 0.879748 0.710125 -0.091061
C12   C     C_R   0.826688 0.464988 0.251145 -0.136437
C13   C     C_R   0.112015 0.800963 0.672443 -0.013154
C14   C     C_R   0.160465 0.713031 0.716703 -0.150684
C15   C     C_R   0.176506 0.717479 0.796937 -0.161829
C16   C     C_R   0.643686 0.855677 0.124110 0.556407
C17   C     C_R   0.145310 0.811156 0.832242 0.040031
C18   C     C_R   0.711435 0.772557 0.353573 0.537879
C19   C     C_R   0.727167 0.459722 0.383006 0.544137
C20   C     C_R   0.108331 0.812409 0.360004 0.542035
C21   C     C_R   0.676160 0.801442 0.584262 0.548712
C22   C     C_R   0.717115 0.445783 0.626076 0.555562
C23   C     C_R   0.806392 0.428858 0.176073 -0.110040
C24   C     C_R   0.089838 0.798421 0.589484 0.549718
C25   C     C_R   0.214798 0.857768 0.902946 0.578312
C26   C     C_R   0.639521 0.288714 0.861469 0.603474
C27   C     C_R   0.646294 0.867881 0.898907 0.607044
C28   C     C_R   0.547306 0.348749 0.197416 -0.125498
C29   C     C_R   0.568118 0.386968 0.272213 -0.124139
C30   C     C_R   0.706425 0.436884 0.301139 0.011821
C31   C     C_R   0.664942 0.361835 0.151045 0.035546
C32   C     C_1   0.685507 0.831447 0.201573 -0.023620
C33   C     C_1   0.703786 0.807066 0.270385 -0.035681
C34   C     C_1   0.227764 0.853945 0.215528 -0.042069
C35   C     C_1   0.179048 0.834349 0.283189 -0.042788
C36   C     C_1   0.660755 0.354933 0.780106 0.009519
Cl1   Cl    Cl    0.594805 0.565638 0.878996 -0.595631
Cl2   Cl    Cl    0.026982 0.997215 0.829887 -0.588022
Cr1   Cr    Cr6+3 0.402240 0.783890 0.019450 1.054724
Cr2   Cr    Cr6+3 0.382360 0.097900 0.991800 1.110223
Cr3   Cr    Cr6+3 0.715380 0.118170 0.988700 1.069154
Cr4   Cr    Cr6+3 0.936650 0.882420 0.465510 1.030942
Cr5   Cr    Cr6+3 0.605770 0.565620 0.493360 1.033502
Cr6   Cr    Cr6+3 0.921340 0.550490 0.496380 1.023946
H1    H     H_    0.437727 0.299148 0.178737 0.142062
H2    H     H_    0.762642 0.087470 0.771195 0.162486
H3    H     H_    0.015195 0.939550 0.677542 0.174896
H4    H     H_    0.190586 0.645874 0.688775 0.151005
H5    H     H_    0.224912 0.657244 0.829149 0.165914
H6    H     H_    0.474263 0.369073 0.308944 0.148788
H7    H     H_    0.935072 0.509150 0.271475 0.134268
H8    H     H_    0.899752 0.443678 0.140151 0.149502
H9    H     H_    0.588807 0.594540 0.712483 0.155619
H10   H     H_    0.758997 0.057375 0.631877 0.152317
O1    O     O_R   0.521780 0.757110 0.108900 -0.506355
O2    O     O_R   0.805020 0.410040 0.421340 -0.490597
O3    O     O_R   0.049240 0.685450 0.403290 -0.516496
O4    O     O_R   0.275160 0.783810 0.101120 -0.494702
O5    O     O_R   0.077520 0.903010 0.551800 -0.513130
O6    O     O_R   0.802980 0.872780 0.546830 -0.497333
O7    O     O_R   0.578090 0.681300 0.569920 -0.516634
O8    O     O_R   0.608530 0.436370 0.586530 -0.479423
O9    O     O_R   0.798770 0.401880 0.597100 -0.499818
O10   O     O_R   0.043450 0.677890 0.566230 -0.510394
O11   O     O_3   0.821250 0.666180 0.485090 -0.322554
O12   O     O_R   0.513330 0.228330 0.898660 -0.450371
O13   O     O_R   0.237900 0.972600 0.090980 -0.495791
O14   O     O_R   0.511190 0.220540 0.061620 -0.504131
O15   O     O_R   0.736920 0.257720 0.063840 -0.516801
O16   O     O_R   0.710450 0.984050 0.081720 -0.489436
O17   O     O_R   0.524090 0.765520 0.933110 -0.471159
O18   O     O_R   0.277300 0.791600 0.938160 -0.521159
O19   O     O_R   0.240210 0.981010 0.915190 -0.436870
O20   O     O_R   0.739230 0.266130 0.888050 -0.515322
O21   O     O_R   0.712580 0.991850 0.918770 -0.490169
O22   O     O_3   0.499990 0.999980 0.999980 -0.304939
O23   O     O_R   0.083770 0.911170 0.376030 -0.503248
O24   O     O_R   0.808770 0.880340 0.383890 -0.479236
O25   O     O_R   0.584340 0.689460 0.394160 -0.503953
O26   O     O_R   0.614320 0.443940 0.423590 -0.504264

loop_
_geom_bond_atom_site_label_1
_geom_bond_atom_site_label_2
_ccdc_geom_bond_type
C19   O2    A    
C11   H3    S    
C7    C8    A    
Cr6   O10   S    
C12   C23   A    
Cr5   O7    S    
C20   O23   A    
C5    H9    S    
C28   C29   A    
C5    C6    A    
C22   O8    A    
C10   C17   A    
Cr5   O25   S    
Cr2   O19   S    
C34   C35   T    
C1    O13   A    
C22   O9    A    
C20   C35   S    
Cr1   O1    S    
C18   O25   A    
Cr2   O13   S    
C2    C22   S    
Cr4   O11   S    
Cr1   O18   S    
C21   O7    A    
C18   O24   A    
Cr3   O20   S    
C24   O10   A    
Cr2   O12   S    
C13   C14   A    
Cr6   O11   S    
C27   O21   A    
C4    O15   A    
C1    C34   S    
C29   H6    S    
Cr6   O9    S    
C28   H1    S    
C26   O12   A    
C16   O16   A    
C21   O6    A    
Cr4   O6    S    
C4    O14   A    
C8    C9    A    
C14   H4    S    
Cr5   O26   S    
C6    C21   S    
Cr2   O22   S    
C13   C24   S    
C23   C31   A    
C29   C30   A    
C3    C9    A    
Cr3   O21   S    
Cr6   O2    S    
Cr6   O3    S    
Cr5   O11   S    
C25   O18   A    
Cr1   O22   S    
C26   C36   S    
Cr4   O24   S    
C12   H7    S    
C27   O17   A    
C9    C27   S    
Cr3   O15   S    
C2    C36   T    
C15   C17   A    
C12   C30   A    
C28   C31   A    
C3    C5    A    
Cr4   O5    S    
C6    C7    A    
C16   C32   S    
C10   Cl2   S    
C17   C25   S    
C32   C33   T    
C16   O1    A    
C1    O4    A    
Cr3   O22   S    
C11   C13   A    
C23   H8    S    
C24   O5    A    
Cr1   O4    S    
C26   O20   A    
C25   O19   A    
C15   H5    S    
C19   O26   A    
C18   C33   S    
C8    H2    S    
C4    C31   S    
C10   C11   A    
C3    Cl1   S    
Cr4   O23   S    
Cr2   O14   S    
Cr1   O17   S    
C14   C15   A    
C7    H10   S    
C20   O3    A    
C19   C30   S    
Cr5   O8    S    
Cr3   O16   S    
