data_mof_unit_58093.cif
_audit_creation_date              2012-12-10T19:50:56-0500
_audit_creation_method            fapswitch 2.2
_symmetry_space_group_name_H-M    P1
_symmetry_Int_Tables_number       1
_space_group_crystal_system       triclinic
_cell_length_a                    23.517094
_cell_length_b                    10.830582
_cell_length_c                    22.253441
_cell_angle_alpha                 90.336623
_cell_angle_beta                  89.375144
_cell_angle_gamma                 89.248152
_cell_volume                      5667.10863108

loop_
_atom_site_label
_atom_site_type_symbol
_atom_type_description
_atom_site_fract_x
_atom_site_fract_y
_atom_site_fract_z
_atom_type_partial_charge
C1    C     C_R   0.498852 0.261999 0.499776 0.803991
C2    C     C_R   0.701949 0.525568 0.446018 -0.236096
C3    C     C_R   0.238515 0.486749 0.555145 -0.115541
C4    C     C_R   0.761249 0.525246 0.445653 -0.108061
C5    C     C_R   0.208973 0.503981 0.501492 0.365670
C6    C     C_R   0.791022 0.498197 0.498254 0.360600
C7    C     C_R   0.370909 0.252006 0.360552 -0.113765
C8    C     C_R   0.635088 0.742847 0.633101 -0.115748
C9    C     C_R   0.396319 0.191866 0.409000 -0.104487
C10   C     C_R   0.605917 0.798878 0.585870 -0.071383
C11   C     C_R   0.446161 0.120847 0.400006 0.117322
C12   C     C_R   0.501832 0.737953 0.500225 0.778578
C13   C     C_R   0.559996 0.880072 0.597930 0.110119
C14   C     C_R   0.469591 0.109188 0.341903 -0.118849
C15   C     C_R   0.545382 0.907755 0.658021 -0.192134
C16   C     C_R   0.390747 0.500581 0.500292 0.785131
C17   C     C_R   0.609239 0.499519 0.499695 0.797126
C18   C     C_R   0.444045 0.169530 0.293645 -0.120643
C19   C     C_R   0.574320 0.850584 0.705063 -0.106476
C20   C     C_R   0.394900 0.241334 0.302978 -0.120707
C21   C     C_R   0.618978 0.767764 0.692600 -0.121018
C22   C     C_R   0.477873 0.933159 0.452524 -0.229978
C23   C     C_R   0.239016 0.520917 0.447593 -0.107966
C24   C     C_R   0.524389 0.066998 0.547127 -0.233179
C25   C     C_R   0.503555 0.871682 0.500489 -0.079731
C26   C     C_R   0.498311 0.128240 0.499387 -0.079318
C27   C     C_R   0.528223 0.938929 0.548046 -0.002321
C28   C     C_R   0.474788 0.061026 0.451389 0.001812
C29   C     C_R   0.512629 0.392970 0.871380 0.572419
C30   C     C_R   0.490419 0.608372 0.128038 0.547051
C31   C     C_R   0.494978 0.610113 0.872888 0.552698
C32   C     C_R   0.505420 0.390501 0.126769 0.559069
C33   C     C_R   0.491828 0.610292 0.936302 -0.048362
C34   C     C_R   0.761069 0.471018 0.551182 -0.103191
C35   C     C_R   0.508883 0.390037 0.063299 -0.041802
C36   C     C_R   0.501031 0.499686 0.967800 -0.084427
C37   C     C_R   0.499100 0.499976 0.031774 -0.076247
C38   C     C_R   0.512914 0.389505 0.935369 -0.094269
C39   C     C_R   0.488082 0.610415 0.064201 -0.110995
C40   C     C_R   0.879670 0.608213 0.490047 0.529405
C41   C     C_R   0.120440 0.394160 0.509905 0.530150
C42   C     C_R   0.479391 0.719059 0.968709 -0.265170
C43   C     C_R   0.522853 0.281745 0.031056 -0.281651
C44   C     C_R   0.475913 0.719720 0.031650 0.444722
C45   C     C_R   0.298279 0.520018 0.447213 -0.240445
C46   C     C_R   0.524466 0.279170 0.967417 0.462810
C47   C     C_R   0.540248 0.433512 0.255947 -0.354421
C48   C     C_R   0.457172 0.554045 0.744935 -0.311460
C49   C     C_R   0.540279 0.432171 0.319929 0.643102
C50   C     C_R   0.456635 0.555288 0.681562 0.608301
C51   C     C_R   0.458857 0.564612 0.321415 -0.046114
C52   C     C_R   0.545268 0.448713 0.678216 -0.040842
C53   C     C_R   0.456477 0.563242 0.258469 -0.245858
C54   C     C_R   0.548236 0.450820 0.741240 -0.242343
C55   C     C_R   0.498052 0.498764 0.224429 0.300346
C56   C     C_R   0.701812 0.470992 0.551597 -0.241050
C57   C     C_R   0.503522 0.503011 0.775683 0.296560
C58   C     C_R   0.881353 0.390325 0.506591 0.529036
C59   C     C_R   0.118792 0.611834 0.492730 0.530195
C60   C     C_R   0.940994 0.389027 0.507604 -0.013873
C61   C     C_R   0.059144 0.613220 0.491868 -0.014242
C62   C     C_R   0.970067 0.500655 0.499385 -0.018641
C63   C     C_R   0.030062 0.501618 0.500216 -0.018698
C64   C     C_R   0.939290 0.611329 0.490368 -0.013626
C65   C     C_R   0.060833 0.390966 0.509372 -0.014206
C66   C     C_R   0.972108 0.279165 0.516577 -0.165993
C67   C     C_R   0.328206 0.502181 0.500853 -0.047634
C68   C     C_R   0.028030 0.723076 0.482910 -0.166545
C69   C     C_R   0.031410 0.280139 0.517494 -0.165505
C70   C     C_R   0.968719 0.722153 0.482204 -0.165299
C71   C     C_3   0.403678 0.836388 0.073642 0.121299
C72   C     C_3   0.372359 0.909018 0.024975 -0.405662
C73   C     C_3   0.309685 0.928019 0.041418 -0.889452
C74   C     C_3   0.524515 0.062371 0.957813 0.103136
C75   C     C_3   0.574157 0.987166 0.983568 -0.355554
C76   C     C_3   0.614494 0.939766 0.934123 -0.755692
C77   C     C_3   0.629139 0.327929 0.326283 0.010253
C78   C     C_R   0.671750 0.498666 0.499060 -0.038324
C79   C     C_3   0.628648 0.198119 0.298489 -0.351304
C80   C     C_3   0.684734 0.167912 0.266284 -0.873326
C81   C     C_3   0.408800 0.733929 0.659170 0.040922
C82   C     C_3   0.369475 0.789333 0.611873 -0.302627
C83   C     C_3   0.368694 0.930162 0.614830 -0.900027
C84   C     C_R   0.297816 0.486099 0.554910 -0.217340
Cu1   Cu    Cu3+1 0.500000 0.499970 0.559570 0.976033
Cu2   Cu    Cu3+1 0.500000 0.500030 0.440430 0.985226
H1    H     H_    0.950770 0.192126 0.522975 0.188839
H2    H     H_    0.534365 0.199648 0.055770 0.187767
H3    H     H_    0.572082 0.383286 0.230116 0.173808
H4    H     H_    0.421241 0.591886 0.770043 0.163976
H5    H     H_    0.427031 0.616338 0.346812 0.145665
H6    H     H_    0.579601 0.405738 0.652726 0.148190
H7    H     H_    0.422204 0.612330 0.236516 0.164546
H8    H     H_    0.585086 0.411192 0.763011 0.170039
H9    H     H_    0.054077 0.193821 0.524539 0.189480
H10   H     H_    0.946052 0.808497 0.475234 0.189516
H11   H     H_    0.216357 0.534189 0.405979 0.136694
H12   H     H_    0.049375 0.810085 0.476435 0.188364
H13   H     H_    0.783795 0.450296 0.592040 0.141605
H14   H     H_    0.320610 0.533525 0.404989 0.149301
H15   H     H_    0.679566 0.449180 0.592981 0.146357
H16   H     H_    0.319786 0.472230 0.596888 0.191688
H17   H     H_    0.679784 0.547749 0.404986 0.153989
H18   H     H_    0.215450 0.473847 0.596969 0.142625
H19   H     H_    0.784127 0.546082 0.404537 0.141453
H20   H     H_    0.375371 0.288504 0.265587 0.135020
H21   H     H_    0.641352 0.723548 0.729051 0.133289
H22   H     H_    0.332681 0.307033 0.367637 0.132086
H23   H     H_    0.508053 0.055013 0.334217 0.130903
H24   H     H_    0.670273 0.680261 0.623629 0.135001
H25   H     H_    0.377635 0.201629 0.453513 0.111620
H26   H     H_    0.618947 0.778726 0.539982 0.104628
H27   H     H_    0.398193 0.886472 0.117080 0.189261
H28   H     H_    0.383813 0.744118 0.079980 0.115204
H29   H     H_    0.392367 0.000633 0.019297 0.226006
H30   H     H_    0.375394 0.858228 0.981553 0.217986
H31   H     H_    0.288548 0.837501 0.046536 0.255352
H32   H     H_    0.288158 0.980407 0.005243 0.261651
H33   H     H_    0.305272 0.981256 0.084074 0.255693
H34   H     H_    0.510670 0.971336 0.668415 0.139310
H35   H     H_    0.506047 0.010578 0.919644 0.179254
H36   H     H_    0.489315 0.071130 0.991491 0.094909
H37   H     H_    0.598260 0.044801 0.015659 0.219745
H38   H     H_    0.557510 0.907036 0.008621 0.222627
H39   H     H_    0.591613 0.878211 0.902707 0.250508
H40   H     H_    0.649878 0.886298 0.954533 0.228689
H41   H     H_    0.632663 0.018161 0.908695 0.282089
H42   H     H_    0.661246 0.327500 0.362516 0.180525
H43   H     H_    0.643787 0.399318 0.294001 0.116763
H44   H     H_    0.621527 0.129416 0.334638 0.226808
H45   H     H_    0.462473 0.160868 0.249069 0.188070
H46   H     H_    0.593325 0.189754 0.266092 0.232085
H47   H     H_    0.691929 0.233661 0.228921 0.255702
H48   H     H_    0.683347 0.072914 0.247369 0.261207
H49   H     H_    0.720629 0.173108 0.298202 0.259766
H50   H     H_    0.451728 0.773751 0.652726 0.163008
H51   H     H_    0.392229 0.759353 0.704663 0.143742
H52   H     H_    0.384182 0.759642 0.566342 0.224243
H53   H     H_    0.325605 0.754973 0.619073 0.225677
H54   H     H_    0.353374 0.962448 0.659694 0.260437
H55   H     H_    0.339703 0.967239 0.580058 0.266817
H56   H     H_    0.562094 0.870461 0.751184 0.172244
H57   H     H_    0.411959 0.966419 0.606239 0.258843
H58   H     H_    0.458655 0.881272 0.416348 0.156399
H59   H     H_    0.543878 0.119524 0.582905 0.161828
H60   H     H_    0.471580 0.804732 0.945256 0.175930
N1    N     N_R   0.852028 0.498858 0.498081 -0.470275
N2    N     N_R   0.148039 0.503407 0.501591 -0.470557
N3    N     N_R   0.504313 0.502210 0.841283 -0.445263
N4    N     N_R   0.497541 0.499029 0.158554 -0.440059
N5    N     N_R   0.500010 0.500010 0.350920 -0.192530
N6    N     N_R   0.499990 0.499990 0.649080 -0.193653
O1    O     O_R   0.500000 0.319610 0.550310 -0.591553
O2    O     O_2   0.150646 0.288930 0.518150 -0.536210
O3    O     O_2   0.852852 0.283959 0.513665 -0.535605
O4    O     O_2   0.147386 0.717915 0.485096 -0.536077
O5    O     O_2   0.519046 0.287344 0.839495 -0.495755
O6    O     O_2   0.487299 0.715473 0.159142 -0.517078
O7    O     O_2   0.489069 0.717697 0.843177 -0.583518
O8    O     O_2   0.509198 0.282198 0.156139 -0.584257
O9    O     O_3   0.462743 0.830077 0.060561 -0.596595
O10   O     O_3   0.544640 0.176141 0.935534 -0.550733
O11   O     O_3   0.575789 0.355515 0.353407 -0.580168
O12   O     O_R   0.500000 0.680390 0.449690 -0.591312
O13   O     O_3   0.410191 0.604316 0.652186 -0.605264
O14   O     O_R   0.499990 0.319670 0.449690 -0.528164
O15   O     O_R   0.500010 0.680330 0.550310 -0.569998
O16   O     O_R   0.417880 0.499930 0.550320 -0.529727
O17   O     O_R   0.582120 0.500070 0.449680 -0.545741
O18   O     O_R   0.417880 0.499990 0.449700 -0.599005
O19   O     O_R   0.582120 0.500010 0.550300 -0.602634
O20   O     O_2   0.849513 0.713704 0.482369 -0.536556

loop_
_geom_bond_atom_site_label_1
_geom_bond_atom_site_label_2
_ccdc_geom_bond_type
C3    H18   S    
C77   O11   S    
C14   H23   S    
C63   C65   A    
C34   C56   A    
C23   C45   A    
Cu2   O17   S    
C76   H40   S    
C14   C18   A    
C53   C55   A    
C70   H10   S    
C9    H25   S    
Cu2   O14   S    
C24   C27   A    
C12   O15   A    
C81   C82   S    
C56   C78   A    
C48   C57   A    
C47   C49   A    
Cu1   Cu2   S    
C49   O11   S    
C15   C19   A    
C72   H29   S    
C82   H53   S    
C80   H49   S    
C55   N4    S    
C75   H37   S    
C33   C42   A    
C11   C28   S    
C36   C37   A    
C35   C37   A    
C24   C26   A    
C56   H15   S    
C24   H59   S    
C31   N3    A    
C11   C14   A    
C17   O17   A    
C30   N4    A    
C66   C69   A    
C58   C60   A    
C33   C36   A    
C84   H16   S    
C15   H34   S    
C71   H27   S    
C60   C62   A    
C61   C63   A    
C62   C64   A    
C51   H5    S    
C22   C25   A    
C57   N3    S    
C29   C38   A    
C45   C67   A    
C31   C33   A    
C10   H26   S    
C64   C70   A    
C35   C43   A    
C59   N2    A    
C48   C50   A    
C51   N5    A    
C67   C84   A    
C5    N2    S    
C48   H4    S    
C76   H39   S    
C47   H3    S    
C74   O10   S    
C18   H45   S    
C42   C44   A    
C83   H54   S    
C52   C54   A    
C8    C21   A    
C20   H20   S    
C77   C79   S    
C59   C61   A    
C73   H31   S    
C74   C75   S    
C49   N5    A    
C53   H7    S    
C75   H38   S    
Cu1   O15   S    
C32   C35   A    
C79   C80   S    
C4    C6    A    
C66   H1    S    
C83   H55   S    
C16   O18   A    
C58   N1    A    
Cu1   O1    S    
C3    C5    A    
C81   H51   S    
C79   H44   S    
C45   H14   S    
C80   H47   S    
C6    C34   A    
C71   H28   S    
C51   C53   A    
C2    C4    A    
C75   C76   S    
C62   C63   A    
C2    C78   A    
C8    H24   S    
C12   O12   A    
C80   H48   S    
C5    C23   A    
C30   O6    S    
C52   N6    A    
C50   O13   S    
C34   H13   S    
C16   C67   S    
C77   H43   S    
C1    O1    A    
C9    C11   A    
C21   H21   S    
C77   H42   S    
C60   C66   A    
C8    C10   A    
C23   H11   S    
C7    C20   A    
C19   H56   S    
C13   C15   A    
C1    C26   S    
C52   H6    S    
Cu2   O12   S    
C44   O9    S    
C43   H2    S    
C42   H60   S    
C40   O20   S    
C81   H50   S    
C47   C55   A    
C41   O2    S    
C30   C39   A    
C7    C9    A    
C73   H32   S    
C71   O9    S    
C40   N1    A    
C19   C21   A    
Cu2   O18   S    
Cu1   O16   S    
C72   C73   S    
C69   H9    S    
C10   C13   A    
C29   O5    S    
C59   O4    S    
C17   O19   A    
C39   C44   A    
C25   C27   A    
C4    H19   S    
C72   H30   S    
C26   C28   A    
C40   C64   A    
C12   C25   S    
C36   C38   A    
Cu1   N6    S    
C71   C72   S    
C37   C39   A    
Cu2   N5    S    
C74   H36   S    
C38   C46   A    
C83   H57   S    
C6    N1    S    
C61   C68   A    
C41   N2    A    
C2    H17   S    
C16   O16   A    
C65   C69   A    
C79   H46   S    
C17   C78   S    
C82   H52   S    
C18   C20   A    
C41   C65   A    
C43   C46   A    
C68   H12   S    
C54   H8    S    
C58   O3    S    
C29   N3    A    
C73   H33   S    
Cu1   O19   S    
C50   N6    A    
C74   H35   S    
C32   N4    A    
C68   C70   A    
C82   C83   S    
C46   O10   S    
C22   H58   S    
C3    C84   A    
C76   H41   S    
C81   O13   S    
C7    H22   S    
C13   C27   S    
C22   C28   A    
C31   O7    S    
C1    O14   A    
C32   O8    S    
C54   C57   A    
