data_mof_unit_42633.cif
_audit_creation_date              2012-12-10T17:23:09-0500
_audit_creation_method            fapswitch 2.2
_symmetry_space_group_name_H-M    P1
_symmetry_Int_Tables_number       1
_space_group_crystal_system       triclinic
_cell_length_a                    15.867479
_cell_length_b                    10.872709
_cell_length_c                    9.654574
_cell_angle_alpha                 90.346641
_cell_angle_beta                  90.508561
_cell_angle_gamma                 95.047422
_cell_volume                      1659.06774532

loop_
_atom_site_label
_atom_site_type_symbol
_atom_type_description
_atom_site_fract_x
_atom_site_fract_y
_atom_site_fract_z
_atom_type_partial_charge
C1    C     C_R   0.487811 0.262559 0.499493 0.855156
C2    C     C_3   0.083164 0.501067 0.497262 0.094736
C3    C     C_3   0.978641 0.596287 0.579968 -0.279338
C4    C     C_3   0.916860 0.501059 0.502785 0.095843
C5    C     C_3   0.034093 0.609492 0.447530 -0.277396
C6    C     C_3   0.971551 0.513951 0.373524 0.478424
C7    C     C_1   0.174823 0.500464 0.497625 0.020497
C8    C     C_1   0.825188 0.500983 0.502393 0.012890
C9    C     C_R   0.426117 0.114662 0.744967 0.422413
C10   C     C_R   0.446739 0.070953 0.875911 -0.335902
C11   C     C_R   0.491927 0.966736 0.886037 0.393033
C12   C     C_R   0.340059 0.499422 0.499448 0.824133
C13   C     C_R   0.504841 0.898731 0.766837 -0.153873
C14   C     C_R   0.486045 0.942274 0.633149 -0.055271
C15   C     C_R   0.460878 0.063038 0.626205 -0.014032
C16   C     C_R   0.468533 0.126854 0.500078 -0.101891
C17   C     C_R   0.464178 0.058427 0.376627 0.390080
C18   C     C_R   0.474672 0.931900 0.380857 -0.304852
C19   C     C_R   0.490858 0.873387 0.506654 -0.119893
C20   C     C_R   0.622370 0.649759 0.153231 -0.098026
C21   C     C_R   0.693077 0.707190 0.092873 -0.214634
C22   C     C_R   0.700411 0.704197 0.952233 -0.240676
C23   C     C_R   0.499598 0.738652 0.501645 0.823563
C24   C     C_R   0.634444 0.649444 0.868333 0.423675
C25   C     C_R   0.564634 0.572037 0.928330 0.150859
C26   C     C_R   0.561976 0.572518 0.077976 0.158065
C27   C     C_R   0.439240 0.434767 0.072222 -0.028652
C28   C     C_R   0.438209 0.437439 0.925217 -0.054839
C29   C     C_R   0.659893 0.500002 0.500505 0.832483
C30   C     C_3   0.965936 0.392662 0.552506 -0.273132
C31   C     C_3   0.021356 0.405864 0.420075 -0.272734
C32   C     C_1   0.250356 0.499911 0.498271 -0.146205
C33   C     C_1   0.749621 0.500598 0.501699 -0.166642
C34   C     C_3   0.028457 0.488197 0.626523 0.483335
Cu1   Cu    Cu3+1 0.499990 0.499990 0.640660 1.009208
Cu2   Cu    Cu3+1 0.500010 0.500010 0.359340 0.979425
H1    H     H_    0.039392 0.329750 0.352389 0.161765
H2    H     H_    0.471349 0.879931 0.284665 0.196807
H3    H     H_    0.389063 0.380939 0.125520 0.150096
H4    H     H_    0.617912 0.670446 0.260067 0.199298
H5    H     H_    0.740483 0.760275 0.155331 0.171686
H6    H     H_    0.754463 0.756981 0.907515 0.145447
H7    H     H_    0.385647 0.390414 0.870384 0.167362
H8    H     H_    0.937670 0.305252 0.598160 0.159709
H9    H     H_    0.062360 0.696906 0.401884 0.160932
H10   H     H_    0.960550 0.672369 0.647657 0.157396
H11   H     H_    0.427213 0.117452 0.967879 0.152366
N1    N     N_R   0.500800 0.501210 0.147910 -0.191756
N2    N     N_R   0.500830 0.501290 0.852040 -0.184192
O1    O     O_R   0.499990 0.319640 0.618810 -0.558850
O2    O     O_R   0.500000 0.319660 0.381240 -0.530030
O3    O     O_R   0.379070 0.499980 0.618770 -0.559871
O4    O     O_R   0.379080 0.500000 0.381190 -0.587439
O5    O     O_R   0.500000 0.680340 0.618760 -0.539239
O6    O     O_R   0.500010 0.680360 0.381190 -0.610636
O7    O     O_R   0.620920 0.500000 0.618810 -0.522225
O8    O     O_R   0.620930 0.500020 0.381230 -0.598000
O9    O     O_3   0.521279 0.925679 0.010543 -0.746308
H12   H     H_    0.527902 0.996982 0.074976 0.341685
H13   H     H_    0.533569 0.816448 0.785008 0.232328
O10   O     O_3   0.635117 0.687138 0.733273 -0.721803
H14   H     H_    0.687295 0.740185 0.710840 0.294680
O11   O     O_3   0.938926 0.527574 0.240066 -0.720222
H15   H     H_    0.988722 0.533393 0.178427 0.319394
O12   O     O_3   0.061013 0.474594 0.760024 -0.718166
H16   H     H_    0.011182 0.468815 0.821588 0.319098
O13   O     O_3   0.445039 0.114999 0.254516 -0.739367
H17   H     H_    0.416307 0.051128 0.192660 0.313244
O14   O     O_3   0.366884 0.199129 0.729027 -0.734113
H18   H     H_    0.333592 0.200472 0.815414 0.309092

loop_
_geom_bond_atom_site_label_1
_geom_bond_atom_site_label_2
_ccdc_geom_bond_type
C27   N1    A    
Cu1   N2    S    
C19   C23   S    
C24   C25   A    
C23   O6    A    
C24   O10   S    
C7    C32   T    
C29   O7    A    
C6    O11   S    
C11   C13   A    
C28   N2    A    
C3    H10   S    
C12   O4    A    
C3    C34   S    
C26   N1    A    
C30   C31   S    
C4    C8    S    
C25   C26   A    
C27   C28   A    
C2    C34   S    
Cu1   O1    S    
C17   C18   A    
C18   H2    S    
C1    C16   S    
C13   C14   A    
C12   C32   S    
Cu1   O5    S    
C1    O2    A    
C30   H8    S    
C22   H6    S    
Cu2   O2    S    
C20   C26   A    
C21   H5    S    
C5    C6    S    
C34   O12   S    
C9    O14   S    
C12   O3    A    
C29   O8    A    
Cu2   N1    S    
C25   N2    A    
O14   H18   S    
C2    C31   S    
C31   H1    S    
Cu2   O6    S    
O10   H14   S    
C20   H4    S    
C22   C24   A    
C17   O13   S    
C2    C5    S    
C16   C17   A    
C10   C11   A    
C30   C34   S    
O11   H15   S    
O13   H17   S    
C11   O9    S    
C9    C10   A    
C29   C33   S    
C10   H11   S    
C20   C21   A    
Cu2   O8    S    
C23   O5    A    
C4    C6    S    
O12   H16   S    
C1    O1    A    
Cu1   O3    S    
C13   H13   S    
C14   C15   A    
C18   C19   A    
C6    C31   S    
Cu2   O4    S    
C28   H7    S    
C2    C7    S    
Cu1   O7    S    
C21   C22   A    
O9    H12   S    
C5    H9    S    
C14   C19   A    
C4    C30   S    
C3    C4    S    
C15   C16   A    
C9    C15   A    
C27   H3    S    
C8    C33   T    
C3    C5    S    
Cu1   Cu2   S    
