data_mof_unit_19023.cif
_audit_creation_date              2012-12-10T20:31:10-0500
_audit_creation_method            fapswitch 2.2
_symmetry_space_group_name_H-M    P1
_symmetry_Int_Tables_number       1
_space_group_crystal_system       triclinic
_cell_length_a                    14.895401
_cell_length_b                    10.633234
_cell_length_c                    9.868094
_cell_angle_alpha                 89.53907
_cell_angle_beta                  90.155869
_cell_angle_gamma                 90.17082
_cell_volume                      1562.9075382

loop_
_atom_site_label
_atom_site_type_symbol
_atom_type_description
_atom_site_fract_x
_atom_site_fract_y
_atom_site_fract_z
_atom_type_partial_charge
C1    C     C_R   0.502604 0.260447 0.500465 0.970459
C2    C     C_R   0.905487 0.605816 0.453074 0.141383
C3    C     C_R   0.957033 0.286711 0.594456 -0.151213
C4    C     C_R   0.050092 0.289660 0.593260 -0.226899
C5    C     C_R   0.095102 0.396445 0.545504 0.128009
C6    C     C_R   0.047121 0.502105 0.497673 0.013890
C7    C     C_R   0.092811 0.610958 0.450126 0.013448
C8    C     C_R   0.043755 0.717278 0.409328 -0.200509
C9    C     C_R   0.950652 0.714078 0.409336 -0.203341
C10   C     C_R   0.187676 0.399647 0.546324 -0.374730
C11   C     C_R   0.232150 0.505656 0.497878 -0.130378
C12   C     C_R   0.327259 0.503584 0.499579 0.945226
C13   C     C_R   0.186710 0.611081 0.446435 0.396428
C14   C     C_R   0.440148 0.063316 0.575163 -0.104719
C15   C     C_R   0.503794 0.128481 0.499343 -0.185857
C16   C     C_R   0.558583 0.063951 0.406967 0.455489
C17   C     C_R   0.554866 0.933948 0.405112 -0.294344
C18   C     C_R   0.497349 0.870654 0.494619 -0.139599
C19   C     C_R   0.434847 0.935865 0.570014 0.053387
C20   C     C_3   0.400305 0.921380 0.711673 -0.504889
C21   C     C_3   0.408086 0.064650 0.719854 0.351513
C22   C     C_R   0.421367 0.489686 0.070373 0.124228
C23   C     C_R   0.499165 0.739356 0.499203 0.913515
C24   C     C_R   0.577082 0.519074 0.072035 -0.085431
C25   C     C_R   0.577178 0.518308 0.928258 -0.104841
C26   C     C_R   0.421141 0.493922 0.928163 0.104507
C27   C     C_3   0.351790 0.393629 0.918149 -0.572668
C28   C     C_3   0.354680 0.383404 0.072503 0.737083
C29   C     C_R   0.672891 0.498980 0.500172 0.971010
C30   C     C_R   0.812816 0.602751 0.452552 -0.341586
C31   C     C_R   0.768241 0.496580 0.500624 -0.126097
C32   C     C_R   0.813892 0.390400 0.549149 0.332587
C33   C     C_R   0.907719 0.391023 0.548059 0.035941
C34   C     C_R   0.953425 0.499521 0.499458 0.026703
H1    H     H_    0.774880 0.683570 0.416722 0.154835
H2    H     H_    0.600217 0.882513 0.340177 0.179381
H3    H     H_    0.329538 0.887905 0.712819 0.186228
H4    H     H_    0.445524 0.867720 0.780439 0.212424
H5    H     H_    0.341303 0.110354 0.728064 0.089776
H6    H     H_    0.639565 0.532900 0.125867 0.159524
H7    H     H_    0.639779 0.531088 0.874714 0.160065
H8    H     H_    0.287579 0.431470 0.877406 0.196631
H9    H     H_    0.376577 0.309439 0.864573 0.243671
H10   H     H_    0.924594 0.202437 0.632402 0.201478
H11   H     H_    0.086935 0.208485 0.630173 0.146899
H12   H     H_    0.225643 0.319488 0.583870 0.152688
H13   H     H_    0.076844 0.803132 0.376926 0.177535
H14   H     H_    0.913908 0.796514 0.375715 0.159036
N1    N     N_R   0.499390 0.499140 0.142800 -0.105677
N2    N     N_R   0.499390 0.499180 0.857150 -0.089051
O1    O     O_R   0.500010 0.316790 0.614690 -0.612928
O2    O     O_R   0.500000 0.316760 0.385350 -0.529006
O3    O     O_R   0.367850 0.499990 0.614680 -0.626942
O4    O     O_R   0.367840 0.499950 0.385340 -0.608854
O5    O     O_R   0.500000 0.683240 0.614650 -0.628261
O6    O     O_R   0.499990 0.683210 0.385310 -0.637687
O7    O     O_R   0.632160 0.500050 0.614660 -0.616388
O8    O     O_R   0.632150 0.500010 0.385320 -0.615996
Zn1   Zn    Zn3+2 0.500010 0.500020 0.653130 0.972491
Zn2   Zn    Zn3+2 0.499990 0.499980 0.346870 1.014028
O9    O     O_3   0.467984 0.109092 0.822167 -0.606911
C35   C     C_3   0.559444 0.075960 0.806014 0.127236
H15   H     H_    0.593588 0.148941 0.743910 0.211490
H16   H     H_    0.569436 0.983347 0.757268 0.133402
C36   C     C_3   0.603846 0.072289 0.945647 -0.266923
H17   H     H_    0.597771 0.166157 0.993580 0.283797
H18   H     H_    0.568752 0.002004 0.010771 0.242531
C37   C     C_3   0.702931 0.037441 0.936306 -0.905252
H19   H     H_    0.710586 0.943372 0.889626 0.252263
H20   H     H_    0.732766 0.034473 0.039497 0.294041
H21   H     H_    0.739841 0.108455 0.874799 0.298599
O10   O     O_3   0.273522 0.422856 0.134459 -0.689964
C38   C     C_3   0.214349 0.322836 0.168059 0.132728
H22   H     H_    0.157952 0.364601 0.225651 0.161151
H23   H     H_    0.245699 0.254005 0.238862 0.180943
C39   C     C_3   0.174706 0.258021 0.042659 -0.393669
H24   H     H_    0.144325 0.329796 0.974228 0.230890
H25   H     H_    0.228233 0.208020 0.986704 0.240476
C40   C     C_3   0.102953 0.162115 0.082770 -0.923686
H26   H     H_    0.132257 0.088335 0.149698 0.263258
H27   H     H_    0.075763 0.116594 0.990397 0.266109
H28   H     H_    0.046967 0.209047 0.136453 0.272153
Cl1   Cl    Cl    0.752548 0.257375 0.607080 -0.677758
Cl2   Cl    Cl    0.404831 0.238574 0.131712 -0.641819
O11   O     O_3   0.234259 0.718982 0.411427 -0.666481
C41   C     C_3   0.244554 0.725356 0.269087 0.062483
H29   H     H_    0.178647 0.720658 0.215796 0.140070
H30   H     H_    0.287111 0.647115 0.233126 0.210386
C42   C     C_3   0.290635 0.849530 0.231610 -0.314227
H31   H     H_    0.248588 0.929336 0.265885 0.222058
H32   H     H_    0.356582 0.855241 0.284056 0.248047
C43   C     C_3   0.305665 0.861194 0.079018 -0.924397
H33   H     H_    0.348937 0.783448 0.042938 0.257084
H34   H     H_    0.339436 0.952052 0.055667 0.306466
H35   H     H_    0.240451 0.858491 0.024236 0.258857
Cl3   Cl    Cl    0.638900 0.140162 0.303778 -0.589036

loop_
_geom_bond_atom_site_label_1
_geom_bond_atom_site_label_2
_ccdc_geom_bond_type
C8    C9    A    
O5    Zn1   S    
C28   Cl2   S    
C38   H22   S    
C19   C20   S    
C39   C40   S    
O3    Zn1   S    
C7    C8    A    
O4    Zn2   S    
O11   C41   S    
C26   C27   S    
N1    Zn2   S    
C30   H1    S    
N2    Zn1   S    
C14   C21   S    
C39   H25   S    
C26   N2    A    
C30   C31   A    
C41   H30   S    
O7    Zn1   S    
C3    C33   A    
O8    Zn2   S    
C15   C16   A    
C18   C19   A    
C25   N2    A    
C35   H16   S    
O2    Zn2   S    
C16   C17   A    
C36   H18   S    
C10   H12   S    
C1    C15   S    
C17   H2    S    
C42   H32   S    
C21   O9    S    
C12   O3    A    
C2    C34   A    
C22   C28   S    
C38   H23   S    
C28   O10   S    
C17   C18   A    
C4    H11   S    
C3    H10   S    
C16   Cl3   S    
C18   C23   S    
C23   O6    A    
C24   C25   A    
C25   H7    S    
C40   H27   S    
C41   H29   S    
C37   H19   S    
C43   H35   S    
C6    C34   A    
C35   H15   S    
C20   H4    S    
C31   C32   A    
C21   H5    S    
C7    C13   A    
C36   C37   S    
C20   C21   S    
C43   H34   S    
C33   C34   A    
C39   H24   S    
C42   C43   S    
C1    O1    A    
C22   N1    A    
C29   O7    A    
C38   C39   S    
O1    Zn1   S    
C3    C4    A    
C24   N1    A    
C32   Cl1   S    
C35   C36   S    
C14   C19   A    
O10   C38   S    
C41   C42   S    
C40   H28   S    
C11   C12   S    
C23   O5    A    
C6    C7    A    
C2    C30   A    
C32   C33   A    
C8    H13   S    
C5    C10   A    
C29   C31   S    
C20   H3    S    
C11   C13   A    
C27   H8    S    
C5    C6    A    
C37   H21   S    
C43   H33   S    
C24   H6    S    
O9    C35   S    
C1    O2    A    
C10   C11   A    
C40   H26   S    
C27   H9    S    
C4    C5    A    
O6    Zn2   S    
C29   O8    A    
C9    H14   S    
C37   H20   S    
C36   H17   S    
C22   C26   A    
C13   O11   S    
C27   C28   S    
C14   C15   A    
C42   H31   S    
C2    C9    A    
C12   O4    A    
