data_mof_unit_8034.cif
_audit_creation_date              2012-12-10T16:53:56-0500
_audit_creation_method            fapswitch 2.2
_symmetry_space_group_name_H-M    P1
_symmetry_Int_Tables_number       1
_space_group_crystal_system       triclinic
_cell_length_a                    7.768673
_cell_length_b                    8.568601
_cell_length_c                    10.621486
_cell_angle_alpha                 91.271552
_cell_angle_beta                  85.242079
_cell_angle_gamma                 93.843964
_cell_volume                      702.916960021

loop_
_atom_site_label
_atom_site_type_symbol
_atom_type_description
_atom_site_fract_x
_atom_site_fract_y
_atom_site_fract_z
_atom_type_partial_charge
C1    C     C_R   0.545916 0.794784 0.496505 0.962387
C2    C     C_3   0.498528 0.501094 0.121001 0.180603
C3    C     C_3   0.349202 0.387399 0.079112 -0.402690
C4    C     C_3   0.672375 0.440936 0.060101 -0.456797
C5    C     C_2   0.570020 0.958345 0.494208 -0.395252
C6    C     C_2   0.429904 0.041587 0.504419 -0.398003
C7    C     C_R   0.500575 0.496337 0.741962 0.839842
C8    C     C_R   0.454060 0.205190 0.503010 0.964561
C9    C     C_R   0.499151 0.500138 0.257675 0.837309
C10   C     C_3   0.477109 0.664993 0.928518 -0.396547
C11   C     C_3   0.482745 0.671021 0.073378 0.025731
C12   C     C_3   0.351261 0.384504 0.934883 -0.401518
C13   C     C_3   0.675385 0.441505 0.916860 -0.414585
C14   C     C_3   0.501733 0.496466 0.877956 0.154038
H1    H     H_    0.351973 0.703927 0.900341 0.186729
H2    H     H_    0.688608 0.320024 0.091653 0.183857
H3    H     H_    0.366904 0.263127 0.898107 0.158289
H4    H     H_    0.364724 0.267259 0.112576 0.153304
H5    H     H_    0.702236 0.009720 0.484442 0.180247
H6    H     H_    0.297685 0.990203 0.514059 0.179868
H7    H     H_    0.014052 0.382621 0.404336 0.186526
H8    H     H_    0.985960 0.617430 0.595620 0.186021
H9    H     H_    0.581257 0.747112 0.884822 0.130624
H10   H     H_    0.601946 0.742679 0.095413 0.140978
H11   H     H_    0.224259 0.420279 0.908021 0.184898
H12   H     H_    0.221247 0.422389 0.120897 0.181528
H13   H     H_    0.696716 0.321749 0.878332 0.179819
H14   H     H_    0.785716 0.521232 0.878711 0.181217
H15   H     H_    0.785068 0.516654 0.089099 0.181085
N1    N     N_2   0.950330 0.457950 0.465890 -0.176382
N2    N     N_2   0.049670 0.542050 0.534110 -0.176676
O1    O     O_R   0.389250 0.738570 0.508370 -0.613972
O2    O     O_R   0.678390 0.711620 0.486510 -0.627354
O3    O     O_R   0.355430 0.513500 0.696140 -0.630251
O4    O     O_R   0.644580 0.486550 0.674270 -0.634138
O5    O     O_R   0.321610 0.288380 0.513490 -0.630071
O6    O     O_R   0.610750 0.261430 0.491630 -0.611274
O7    O     O_R   0.355420 0.513450 0.325730 -0.625018
O8    O     O_R   0.644570 0.486500 0.303860 -0.634723
Zn1   Zn    Zn3+2 0.306940 0.517990 0.514600 0.922540
Zn2   Zn    Zn3+2 0.693060 0.482010 0.485400 0.923248
C15   C     C_3   0.329130 0.757399 0.136144 -0.926236
H16   H     H_    0.204072 0.689836 0.125843 0.254159
H17   H     H_    0.345267 0.781265 0.237700 0.260120
H18   H     H_    0.324250 0.872847 0.091375 0.231959

loop_
_geom_bond_atom_site_label_1
_geom_bond_atom_site_label_2
_ccdc_geom_bond_type
C12   H3    S    
C4    H2    S    
C2    C4    S    
C13   H14   S    
C5    H5    S    
C10   H9    S    
C7    C14   S    
C6    H6    S    
H7    N1    S    
C4    H15   S    
O5    Zn1   S    
C12   H11   S    
O2    Zn2   S    
C2    C3    S    
C10   C11   S    
C1    O2    A    
N1    Zn2   S    
C13   C14   S    
O7    Zn1   S    
C5    C6    D    
C15   H17   S    
C3    H4    S    
O3    Zn1   S    
C2    C11   S    
C9    O7    A    
C12   C14   S    
C10   H1    S    
O1    Zn1   S    
O6    Zn2   S    
N1    N2    D    
O4    Zn2   S    
C7    O3    A    
C1    C5    S    
H8    N2    S    
C8    O6    A    
C11   H10   S    
C9    O8    A    
N2    Zn1   S    
C11   C15   S    
O8    Zn2   S    
C8    O5    A    
C4    C13   S    
C3    H12   S    
C13   H13   S    
C6    C8    S    
C3    C12   S    
C2    C9    S    
C7    O4    A    
C1    O1    A    
C15   H16   S    
C10   C14   S    
C15   H18   S    
