data_mof_unit_49195.cif
_audit_creation_date              2012-12-11T15:33:44-0500
_audit_creation_method            fapswitch 2.2
_symmetry_space_group_name_H-M    P1
_symmetry_Int_Tables_number       1
_space_group_crystal_system       triclinic
_cell_length_a                    27.158403
_cell_length_b                    7.207361
_cell_length_c                    22.699965
_cell_angle_alpha                 89.992297
_cell_angle_beta                  101.119682
_cell_angle_gamma                 89.991768
_cell_volume                      4359.8840276

loop_
_atom_site_label
_atom_site_type_symbol
_atom_type_description
_atom_site_fract_x
_atom_site_fract_y
_atom_site_fract_z
_atom_type_partial_charge
O1    O     O_R   0.207310 0.594030 0.676830 -0.526790
O2    O     O_R   0.792690 0.405970 0.323170 -0.526791
O3    O     O_R   0.292690 0.094030 0.823170 -0.526855
O4    O     O_R   0.707310 0.905970 0.176830 -0.526855
O5    O     O_R   0.197320 0.262370 0.795700 -0.533709
O6    O     O_R   0.802680 0.737630 0.204300 -0.533709
O7    O     O_R   0.302680 0.762370 0.704300 -0.533604
O8    O     O_R   0.697320 0.237630 0.295700 -0.533604
C1    C     C_R   0.184932 0.432587 0.812232 0.701742
C2    C     C_R   0.815068 0.567413 0.187768 0.701742
C3    C     C_R   0.315062 0.932582 0.687761 0.701741
C4    C     C_R   0.684938 0.067418 0.312239 0.701742
O9    O     O_R   0.201410 0.264250 0.675590 -0.533441
O10   O     O_R   0.798590 0.735750 0.324410 -0.533441
O11   O     O_R   0.298590 0.764250 0.824410 -0.533363
O12   O     O_R   0.701410 0.235750 0.175590 -0.533362
O13   O     O_R   0.296810 0.094940 0.702210 -0.538246
O14   O     O_R   0.703190 0.905060 0.297790 -0.538247
O15   O     O_R   0.203190 0.594940 0.797790 -0.538152
O16   O     O_R   0.796810 0.405060 0.202210 -0.538152
C5    C     C_R   0.189741 0.433006 0.653470 0.740051
C6    C     C_R   0.810259 0.566994 0.346530 0.740052
C7    C     C_R   0.310261 0.932963 0.846531 0.740104
C8    C     C_R   0.689739 0.067037 0.153468 0.740103
O17   O     O_3   0.281300 0.427390 0.758870 -0.376028
O18   O     O_3   0.718700 0.572610 0.241130 -0.376028
O19   O     O_3   0.218700 0.927390 0.741130 -0.376049
O20   O     O_3   0.781300 0.072610 0.258870 -0.376049
V1    V     V_3+5 0.244190 0.152150 0.748350 1.481886
V2    V     V_3+5 0.755810 0.847850 0.251650 1.481886
V3    V     V_3+5 0.255810 0.652150 0.751650 1.482190
V4    V     V_3+5 0.744190 0.347850 0.248350 1.482190
C9    C     C_R   0.655282 0.057208 0.094603 -0.103658
C10   C     C_R   0.344718 0.942792 0.905397 -0.103657
C11   C     C_R   0.844705 0.556963 0.405398 -0.103675
C12   C     C_R   0.155295 0.443037 0.594602 -0.103675
C13   C     C_R   0.642030 0.042951 0.986187 -0.160084
C14   C     C_R   0.357970 0.957049 0.013812 -0.160084
C15   C     C_R   0.857901 0.540485 0.513790 -0.160116
C16   C     C_R   0.142098 0.459515 0.486210 -0.160116
C17   C     C_R   0.674505 0.056832 0.041576 0.258060
C18   C     C_R   0.325495 0.943168 0.958424 0.258061
C19   C     C_R   0.825442 0.555028 0.458405 0.257981
C20   C     C_R   0.174558 0.444972 0.541594 0.257981
C21   C     C_R   0.603130 0.041864 0.091391 -0.262142
C22   C     C_R   0.396870 0.958136 0.908609 -0.262142
C23   C     C_R   0.896880 0.542484 0.408619 -0.262105
C24   C     C_R   0.103120 0.457516 0.591380 -0.262105
C25   C     C_R   0.569233 0.025977 0.035183 0.094473
C26   C     C_R   0.430767 0.974023 0.964817 0.094473
C27   C     C_R   0.930759 0.525831 0.464820 0.094452
C28   C     C_R   0.069241 0.474169 0.535180 0.094452
C29   C     C_R   0.590029 0.027373 0.982488 0.076235
C30   C     C_R   0.409971 0.972627 0.017512 0.076235
C31   C     C_R   0.909923 0.525663 0.517498 0.076244
C32   C     C_R   0.090077 0.474337 0.482501 0.076244
C33   C     C_R   0.515727 0.007966 0.029258 0.067674
C34   C     C_R   0.484273 0.992034 0.970742 0.067674
C35   C     C_R   0.984284 0.508450 0.470747 0.067631
C36   C     C_R   0.015716 0.491550 0.529252 0.067631
C37   C     C_R   0.507386 0.994919 0.920180 -0.180040
C38   C     C_R   0.492614 0.005081 0.079820 -0.180040
C39   C     C_R   0.992564 0.492885 0.579800 -0.179995
C40   C     C_R   0.007436 0.507115 0.420200 -0.179995
C41   C     C_R   0.559006 0.012211 0.926109 -0.166844
C42   C     C_R   0.440994 0.987789 0.073891 -0.166844
C43   C     C_R   0.940928 0.509608 0.573867 -0.166808
C44   C     C_R   0.059072 0.490392 0.426132 -0.166808
H1    H     H_    0.486597 0.983870 0.874902 0.125780
H2    H     H_    0.513402 0.016130 0.125098 0.125780
H3    H     H_    0.013333 0.480992 0.625070 0.125770
H4    H     H_    0.986667 0.519008 0.374930 0.125770
C45   C     C_R   0.641939 0.889133 0.382986 -0.150171
C46   C     C_R   0.358061 0.110867 0.617014 -0.150171
C47   C     C_R   0.858112 0.389097 0.117070 -0.149895
C48   C     C_R   0.141888 0.610903 0.882930 -0.149895
C49   C     C_R   0.607037 0.872580 0.420823 0.296903
C50   C     C_R   0.392963 0.127420 0.579177 0.296903
C51   C     C_R   0.893005 0.372571 0.079221 0.296919
C52   C     C_R   0.106995 0.627429 0.920779 0.296918
C53   C     C_R   0.574638 0.022084 0.426979 -0.055320
C54   C     C_R   0.425362 0.977916 0.573021 -0.055320
C55   C     C_R   0.925376 0.522097 0.073036 -0.055302
C56   C     C_R   0.074624 0.477903 0.926964 -0.055302
C57   C     C_R   0.579705 0.187749 0.395681 -0.115564
C58   C     C_R   0.420295 0.812251 0.604319 -0.115564
C59   C     C_R   0.920291 0.687764 0.104313 -0.115595
C60   C     C_R   0.079709 0.312236 0.895687 -0.115595
H5    H     H_    0.555407 0.304694 0.399166 0.182313
H6    H     H_    0.444593 0.695306 0.600834 0.182313
H7    H     H_    0.944575 0.804711 0.100809 0.182367
H8    H     H_    0.055425 0.195289 0.899191 0.182367
C61   C     C_R   0.615502 0.204373 0.358857 -0.115887
C62   C     C_R   0.384498 0.795627 0.641143 -0.115886
C63   C     C_R   0.884492 0.704382 0.141136 -0.116135
C64   C     C_R   0.115508 0.295618 0.858864 -0.116136
C65   C     C_R   0.646839 0.054437 0.351582 -0.106096
C66   C     C_R   0.353161 0.945563 0.648417 -0.106096
C67   C     C_R   0.853178 0.554425 0.148438 -0.106184
C68   C     C_R   0.146822 0.445575 0.851562 -0.106184
N1    N     N_R   0.522321 0.163127 0.493307 -0.228644
N2    N     N_R   0.477679 0.836873 0.506693 -0.228644
N3    N     N_R   0.977610 0.663085 0.006608 -0.228567
N4    N     N_R   0.022389 0.336915 0.993392 -0.228567
N5    N     N_R   0.487472 0.153134 0.527348 -0.214863
N6    N     N_R   0.512528 0.846866 0.472652 -0.214863
N7    N     N_R   0.012455 0.653077 0.972559 -0.214912
N8    N     N_R   0.987545 0.346923 0.027440 -0.214912
C69   C     C_R   0.464145 0.990128 0.534606 0.540366
C70   C     C_R   0.535855 0.009872 0.465394 0.540366
C71   C     C_R   0.035849 0.490113 0.965387 0.540401
C72   C     C_R   0.964151 0.509887 0.034613 0.540401
H9    H     H_    0.574894 0.013322 0.885805 0.139270
H10   H     H_    0.425105 0.986678 0.114195 0.139270
H11   H     H_    0.925009 0.509504 0.614159 0.139255
H12   H     H_    0.074991 0.490496 0.385841 0.139255
H13   H     H_    0.409490 0.958510 0.866452 0.105330
H14   H     H_    0.590510 0.041489 0.133548 0.105330
H15   H     H_    0.090473 0.456788 0.633526 0.105314
H16   H     H_    0.909527 0.543212 0.366474 0.105314
Br1   Br    Br    0.254785 0.928034 0.957162 -0.495638
Br2   Br    Br    0.745215 0.071966 0.042838 -0.495638
Br3   Br    Br    0.245301 0.431130 0.542890 -0.495446
Br4   Br    Br    0.754699 0.568870 0.457110 -0.495446
H17   H     H_    0.657650 0.043024 0.945702 0.163237
H18   H     H_    0.342350 0.956976 0.054298 0.163237
H19   H     H_    0.842252 0.539349 0.554261 0.163237
H20   H     H_    0.157748 0.460651 0.445739 0.163237
H21   H     H_    0.666081 0.772075 0.379194 0.187629
H22   H     H_    0.333919 0.227925 0.620806 0.187628
H23   H     H_    0.834003 0.272000 0.120898 0.187691
H24   H     H_    0.165997 0.728000 0.879102 0.187691
Br5   Br    Br    0.608912 0.646648 0.466112 -0.441779
Br6   Br    Br    0.391088 0.353352 0.533887 -0.441779
Br7   Br    Br    0.891155 0.146675 0.033941 -0.441937
Br8   Br    Br    0.108845 0.853325 0.966059 -0.441937
H25   H     H_    0.618115 0.333925 0.335495 0.143687
H26   H     H_    0.381885 0.666075 0.664505 0.143687
H27   H     H_    0.881858 0.833947 0.164475 0.143708
H28   H     H_    0.118142 0.166053 0.835525 0.143708

loop_
_geom_bond_atom_site_label_1
_geom_bond_atom_site_label_2
_ccdc_geom_bond_type
C21   H14   S    
O17   V3    S    
C55   C59   A    
C60   C64   A    
O1    C5    A    
C59   H7    S    
O19   V1    S    
C9    C21   A    
O3    C7    A    
C10   C18   A    
C52   C56   A    
O15   V3    S    
C25   C33   A    
C33   C38   A    
C46   C66   A    
C5    C12   S    
O7    C3    A    
C6    C11   S    
C35   C40   A    
C26   C30   A    
C3    C66   S    
C40   C44   A    
O9    V1    S    
C14   C18   A    
O16   V4    S    
O4    C8    A    
C63   C67   A    
C62   C66   A    
C16   H20   S    
O1    V3    S    
O13   V1    S    
C38   H2    S    
O2    V4    S    
O3    V1    S    
C43   H11   S    
O12   V4    S    
C58   C62   A    
C57   C61   A    
C1    O15   A    
C15   C31   A    
C60   H8    S    
C2    O16   A    
C16   C32   A    
C59   C63   A    
O2    C6    A    
C12   C24   A    
C10   C22   A    
C49   C53   A    
C11   C19   A    
C16   C20   A    
O5    V1    S    
C13   C29   A    
C34   C37   A    
O11   C7    A    
C11   C23   A    
C35   C36   A    
O12   C8    A    
C49   Br5   S    
O10   V2    S    
C14   H18   S    
C47   H23   S    
C24   H15   S    
C13   H17   S    
N1    N5    A    
C39   C43   A    
C56   C71   S    
O7    V3    S    
C38   C42   A    
C26   C34   A    
C54   C69   S    
C56   C60   A    
C15   H19   S    
C58   H6    S    
C57   H5    S    
O18   V4    S    
C15   C19   A    
N1    C70   A    
C54   C58   A    
N8    C72   A    
C22   H13   S    
N3    C72   A    
O8    V4    S    
C17   Br2   S    
C45   C65   A    
O5    C1    A    
C50   C54   A    
C31   C43   A    
C14   C30   A    
C21   C25   A    
O8    C4    A    
C7    C10   S    
C47   C67   A    
O9    C5    A    
C50   Br6   S    
C4    C65   S    
C44   H12   S    
O14   V2    S    
C23   H16   S    
O6    V2    S    
C39   H3    S    
C1    C68   S    
C46   H22   S    
C62   H26   S    
C36   C39   A    
C12   C20   A    
C27   C35   A    
C41   H9    S    
C61   C65   A    
N4    N8    A    
C29   C41   A    
N6    C70   A    
C37   H1    S    
N5    C69   A    
C3    O13   A    
C42   H10   S    
N7    C71   A    
C48   C52   A    
C64   H28   S    
N4    C71   A    
C23   C27   A    
O11   V3    S    
C30   C42   A    
C48   C68   A    
C51   Br7   S    
C22   C26   A    
C20   Br3   S    
C63   H27   S    
C8    C9    S    
C52   Br8   S    
C9    C17   A    
O10   C6    A    
O20   V2    S    
C32   C44   A    
C51   C55   A    
C48   H24   S    
C33   C34   A    
C45   H21   S    
C25   C29   A    
C64   C68   A    
N2    N6    A    
C27   C31   A    
C40   H4    S    
C13   C17   A    
C2    C67   S    
O4    V2    S    
C61   H25   S    
O6    C2    A    
C37   C41   A    
C24   C28   A    
C53   C70   S    
C28   C36   A    
C46   C50   A    
C4    O14   A    
C45   C49   A    
C55   C72   S    
N2    C69   A    
N3    N7    A    
C47   C51   A    
C19   Br4   S    
C53   C57   A    
C28   C32   A    
C18   Br1   S    
