data_mof_unit_14629.cif
_audit_creation_date              2012-12-10T17:32:17-0500
_audit_creation_method            fapswitch 2.2
_symmetry_space_group_name_H-M    P1
_symmetry_Int_Tables_number       1
_space_group_crystal_system       triclinic
_cell_length_a                    15.370865
_cell_length_b                    15.55274
_cell_length_c                    15.681497
_cell_angle_alpha                 93.402102
_cell_angle_beta                  70.692759
_cell_angle_gamma                 111.612237
_cell_volume                      3280.90276891

loop_
_atom_site_label
_atom_site_type_symbol
_atom_type_description
_atom_site_fract_x
_atom_site_fract_y
_atom_site_fract_z
_atom_type_partial_charge
C1    C     C_R   0.462582 0.258458 0.461691 0.801840
C2    C     C_R   0.520894 0.495459 0.114629 0.492018
C3    C     C_R   0.655396 0.642177 0.115885 0.330421
C4    C     C_R   0.536580 0.742110 0.535274 0.776033
C5    C     C_R   0.433728 0.424486 0.837031 -0.142504
C6    C     C_R   0.463204 0.050263 0.333801 -0.169573
C7    C     C_R   0.453350 0.162791 0.445759 -0.036846
C8    C     C_R   0.535133 0.863877 0.646969 -0.036093
C9    C     C_R   0.489384 0.925764 0.684516 -0.198639
C10   C     C_R   0.459903 0.969877 0.631698 -0.177910
C11   C     C_R   0.489624 0.964442 0.537056 0.070809
C12   C     C_R   0.398548 0.295068 0.938735 0.454775
C13   C     C_R   0.528205 0.894981 0.499341 0.028699
C14   C     C_R   0.479002 0.024356 0.479413 0.027056
C15   C     C_R   0.485018 0.999978 0.389544 0.125555
C16   C     C_R   0.757474 0.550263 0.462898 0.954333
C17   C     C_R   0.522536 0.931821 0.352950 -0.247880
C18   C     C_R   0.553050 0.886296 0.404467 -0.005955
C19   C     C_R   0.471548 0.111617 0.504299 -0.070926
C20   C     C_R   0.445432 0.130135 0.362639 -0.228039
C21   C     C_R   0.541635 0.837797 0.557940 -0.134482
C22   C     C_R   0.018343 0.588875 0.321647 0.498086
C23   C     C_R   0.461138 0.354925 0.982526 0.530984
C24   C     C_R   0.862807 0.566413 0.442777 -0.335105
C25   C     C_R   0.064833 0.374561 0.635162 0.358469
C26   C     C_R   0.962994 0.345158 0.649001 0.305623
C27   C     C_R   0.928931 0.384057 0.592836 0.441181
C28   C     C_R   0.242408 0.448322 0.536048 0.907590
C29   C     C_R   0.000512 0.446394 0.517461 -0.091949
C30   C     C_R   0.099101 0.449081 0.489318 -0.263834
C31   C     C_R   0.976601 0.500968 0.464846 -0.103350
C32   C     C_R   0.042755 0.536471 0.375190 -0.318700
C33   C     C_R   0.130291 0.516397 0.340208 0.497407
C34   C     C_R   0.492155 0.452387 0.967862 -0.097943
C35   C     C_R   0.156859 0.471107 0.396567 0.514976
C36   C     C_R   0.891597 0.525763 0.500296 0.510606
C37   C     C_R   0.929275 0.604811 0.356788 0.325744
C38   C     C_R   0.134351 0.423173 0.552898 -0.247359
C39   C     C_R   0.551152 0.548394 0.258908 0.948367
C40   C     C_R   0.448353 0.450781 0.742574 0.903215
C41   C     C_R   0.669762 0.665882 0.026481 0.521367
C42   C     C_R   0.574981 0.562465 0.161983 -0.323734
C43   C     C_R   0.386104 0.329986 0.865882 -0.372679
C44   C     C_3   0.781536 0.670020 0.173113 -0.251447
C45   C     C_R   0.481127 0.487399 0.892102 -0.205326
C46   C     C_1   0.503407 0.159036 0.577760 0.164897
C47   C     C_1   0.577420 0.831574 0.700931 0.221791
C48   C     C_1   0.620303 0.841249 0.355980 0.200827
C49   C     C_3   0.929903 0.747341 0.333705 -0.329941
C50   C     C_3   0.185810 0.474540 0.195192 -0.209143
C51   C     C_3   0.045066 0.583342 0.169027 -0.208757
C52   C     C_3   0.735530 0.715067 0.783882 -0.226827
C53   C     C_3   0.884945 0.587855 0.635564 -0.374755
C54   C     C_3   0.099809 0.409988 0.765116 -0.248499
C55   C     C_3   0.761993 0.337376 0.685224 -0.081963
C56   C     C_R   0.540979 0.516299 0.021679 -0.118813
C57   C     C_3   0.888032 0.191102 0.688976 -0.256615
C58   C     C_3   0.196467 0.343968 0.354047 -0.384669
C59   C     C_3   0.834365 0.749161 0.954431 -0.239263
C60   C     C_3   0.451742 0.360539 0.210456 -0.185647
C61   C     C_3   0.594631 0.320930 0.975478 -0.329739
C62   C     C_3   0.282816 0.175194 0.037691 -0.272540
C63   C     C_3   0.398332 0.629738 0.872716 -0.318293
C64   C     C_R   0.606107 0.606798 0.982210 -0.330652
C65   C     C_R   0.600471 0.637989 0.902587 0.499374
C66   C     C_R   0.523176 0.584372 0.871430 0.466699
H1    H     H_    0.536711 0.920269 0.281494 0.164581
H2    H     H_    0.010276 0.780123 0.325365 0.188406
H3    H     H_    0.883940 0.748647 0.405138 0.156683
H4    H     H_    0.913954 0.789889 0.290937 0.186940
H5    H     H_    0.108968 0.421508 0.213382 0.095323
H6    H     H_    0.239105 0.441445 0.193229 0.221282
H7    H     H_    0.206263 0.503530 0.125293 0.163120
H8    H     H_    0.007984 0.506751 0.183835 0.116827
H9    H     H_    0.993234 0.612387 0.158264 0.189204
H10   H     H_    0.107334 0.596211 0.104158 0.158610
H11   H     H_    0.703043 0.678157 0.732114 0.187551
H12   H     H_    0.465022 0.030520 0.265952 0.149355
H13   H     H_    0.777891 0.678204 0.801095 0.110144
H14   H     H_    0.788987 0.784965 0.753296 0.177451
H15   H     H_    0.844140 0.574466 0.709342 0.170701
H16   H     H_    0.884027 0.654002 0.613180 0.167611
H17   H     H_    0.962421 0.594338 0.625122 0.159519
H18   H     H_    0.025202 0.411940 0.802589 0.163768
H19   H     H_    0.153392 0.480570 0.735514 0.112424
H20   H     H_    0.126328 0.388121 0.814741 0.180808
H21   H     H_    0.793241 0.386816 0.731578 0.139952
H22   H     H_    0.732757 0.264791 0.713827 0.172205
H23   H     H_    0.415307 0.009433 0.665962 0.158239
H24   H     H_    0.697536 0.351439 0.681587 0.177554
H25   H     H_    0.959497 0.180388 0.671030 0.189286
H26   H     H_    0.860442 0.178641 0.630295 0.159246
H27   H     H_    0.832856 0.138686 0.744591 0.187581
H28   H     H_    0.253129 0.322760 0.303438 0.202115
H29   H     H_    0.179104 0.308556 0.420349 0.167841
H30   H     H_    0.129552 0.318890 0.332455 0.139299
H31   H     H_    0.869958 0.768987 0.007307 0.180880
H32   H     H_    0.835920 0.680675 0.930072 0.089339
H33   H     H_    0.880162 0.801366 0.896202 0.177953
H34   H     H_    0.475585 0.939484 0.755417 0.157512
H35   H     H_    0.428260 0.372325 0.283618 0.137987
H36   H     H_    0.529949 0.364144 0.186006 0.176679
H37   H     H_    0.404139 0.288492 0.204309 0.167594
H38   H     H_    0.647599 0.393914 0.956797 0.143081
H39   H     H_    0.591280 0.283005 0.913407 0.176468
H40   H     H_    0.623821 0.287015 0.013770 0.195789
H41   H     H_    0.222160 0.195916 0.033543 0.141874
H42   H     H_    0.306130 0.205490 0.096336 0.177445
H43   H     H_    0.252461 0.098665 0.050081 0.187707
H44   H     H_    0.401151 0.664976 0.936238 0.178569
H45   H     H_    0.347069 0.281016 0.826496 0.217944
H46   H     H_    0.340551 0.558607 0.888607 0.142438
H47   H     H_    0.376142 0.669662 0.833062 0.179865
H48   H     H_    0.433499 0.170761 0.316836 0.128336
H49   H     H_    0.800532 0.620424 0.122663 0.112525
H50   H     H_    0.753334 0.637304 0.242699 0.220099
H51   H     H_    0.851666 0.729401 0.166276 0.189431
N1    N     N_1   0.529013 0.197369 0.635872 -0.211447
N2    N     N_1   0.613170 0.808367 0.744653 -0.094693
N3    N     N_1   0.674772 0.805701 0.317578 -0.160993
O1    O     O_3   0.500000 0.500000 0.500000 -0.506388
O2    O     O_R   0.588830 0.499590 0.285390 -0.703955
O3    O     O_R   0.395900 0.395880 0.699370 -0.653568
O4    O     O_R   0.493280 0.582590 0.315890 -0.579295
O5    O     O_R   0.521980 0.521940 0.699340 -0.596655
O6    O     O_3   0.712989 0.704481 0.160666 -0.578497
O7    O     O_3   0.905850 0.656334 0.305115 -0.622647
O8    O     O_3   0.195126 0.548244 0.253005 -0.529005
O9    O     O_3   0.083880 0.628714 0.236711 -0.537217
O10   O     O_3   0.661714 0.725246 0.861702 -0.525088
O11   O     O_3   0.836827 0.513194 0.591364 -0.574255
O12   O     O_R   0.708210 0.582550 0.530770 -0.639026
O13   O     O_3   0.095372 0.345541 0.698063 -0.549111
O14   O     O_3   0.830045 0.347136 0.596262 -0.583021
O15   O     O_3   0.897281 0.280136 0.719613 -0.607693
O16   O     O_3   0.235103 0.441575 0.357294 -0.562133
O17   O     O_3   0.738167 0.752061 0.986747 -0.512993
O18   O     O_3   0.434122 0.421935 0.160849 -0.599738
O19   O     O_3   0.499703 0.316644 0.031306 -0.598221
O20   O     O_3   0.363643 0.200163 0.955962 -0.581853
O21   O     O_3   0.491974 0.628370 0.820060 -0.566339
O22   O     O_R   0.270260 0.395900 0.573760 -0.611876
O23   O     O_R   0.537060 0.322180 0.411040 -0.645382
O24   O     O_R   0.484470 0.699370 0.484430 -0.631657
O25   O     O_R   0.404710 0.279110 0.530840 -0.633302
O26   O     O_R   0.573760 0.699350 0.573690 -0.634638
O27   O     O_R   0.714470 0.499570 0.411000 -0.637614
O28   O     O_R   0.307050 0.521980 0.484470 -0.602695
Zn1   Zn    Zn3+2 0.574690 0.574670 0.574650 0.996328
Zn2   Zn    Zn3+2 0.583640 0.456100 0.403530 0.963138
Zn3   Zn    Zn3+2 0.447120 0.574690 0.447120 1.023143
Zn4   Zn    Zn3+2 0.394550 0.394550 0.574700 0.992887

loop_
_geom_bond_atom_site_label_1
_geom_bond_atom_site_label_2
_ccdc_geom_bond_type
C3    C42   A    
C34   C56   A    
C57   H26   S    
C27   C29   A    
C59   H33   S    
C1    O25   A    
C51   H8    S    
C50   H5    S    
C54   H18   S    
C65   O10   S    
C51   O9    S    
C3    O6    S    
C48   N3    T    
C66   O21   S    
C12   C23   A    
C44   O6    S    
C26   C27   A    
C24   C36   A    
C39   O2    A    
C22   C32   A    
C13   C18   A    
C16   O27   A    
O2    Zn2   S    
C23   O19   S    
C49   H2    S    
C51   H9    S    
O24   Zn3   S    
C31   C36   A    
C11   C14   A    
C6    H12   S    
C11   C13   A    
C62   H42   S    
C59   O17   S    
C55   H24   S    
C55   H22   S    
O1    Zn2   S    
C30   C38   A    
C53   H15   S    
O22   Zn4   S    
C63   H46   S    
C50   H6    S    
C58   H30   S    
C26   O15   S    
C6    C15   A    
O23   Zn2   S    
C44   H49   S    
C8    C9    A    
C12   O20   S    
C53   O11   S    
C52   H13   S    
C25   O13   S    
C9    C10   A    
C41   O17   S    
C47   N2    T    
C5    C43   A    
C16   C24   S    
C57   H27   S    
O12   Zn1   S    
C43   H45   S    
C60   H36   S    
C24   C37   A    
C39   C42   S    
C49   O7    S    
C17   H1    S    
C28   O28   A    
C2    O18   S    
O28   Zn3   S    
C51   H10   S    
C10   H23   S    
C50   H7    S    
C54   H20   S    
C61   O19   S    
C62   H41   S    
C58   O16   S    
C25   C26   A    
C54   O13   S    
C5    C45   A    
C33   O8    S    
C39   O4    A    
O1    Zn3   S    
C18   C48   S    
C53   H16   S    
C58   H29   S    
C29   C30   A    
C1    O23   A    
C25   C38   A    
O26   Zn1   S    
C31   C32   A    
C28   C38   S    
C23   C34   A    
C4    O26   A    
C61   H38   S    
C56   C64   A    
C17   C18   A    
C63   O21   S    
C13   C21   A    
C34   C45   A    
C61   H40   S    
O5    Zn1   S    
C30   C35   A    
O4    Zn3   S    
C65   C66   A    
C9    H34   S    
C7    C19   A    
C49   H4    S    
C22   O9    S    
C59   H31   S    
C36   O11   S    
C46   N1    T    
C50   O8    S    
C60   H35   S    
C60   H37   S    
O27   Zn2   S    
C61   H39   S    
C15   C17   A    
C40   O3    A    
O3    Zn4   S    
C3    C41   A    
C57   H25   S    
C1    C7    S    
C27   O14   S    
C14   C19   A    
C8    C21   A    
C35   O16   S    
C4    O24   A    
C54   H19   S    
C19   C46   S    
C12   C43   A    
C55   O14   S    
C6    C20   A    
O1    Zn4   S    
C53   H17   S    
C52   O10   S    
C64   C65   A    
C63   H44   S    
C58   H28   S    
C8    C47   S    
C29   C31   A    
C2    C56   A    
C32   C33   A    
C20   H48   S    
C4    C21   S    
C22   C37   A    
C62   H43   S    
C44   H51   S    
C2    C42   A    
C40   O5    A    
C33   C35   A    
O1    Zn1   S    
C55   H21   S    
C16   O12   A    
O25   Zn4   S    
C10   C11   A    
C63   H47   S    
C28   O22   A    
C44   H50   S    
C7    C20   A    
C5    C40   S    
C45   C66   A    
C59   H32   S    
C14   C15   A    
C57   O15   S    
C49   H3    S    
C41   C64   A    
C62   O20   S    
C52   H14   S    
C52   H11   S    
C60   O18   S    
C37   O7    S    
