data_mof_unit_62470.cif
_audit_creation_date              2012-12-10T19:16:52-0500
_audit_creation_method            fapswitch 2.2
_symmetry_space_group_name_H-M    P1
_symmetry_Int_Tables_number       1
_space_group_crystal_system       triclinic
_cell_length_a                    16.005913
_cell_length_b                    14.758433
_cell_length_c                    10.761864
_cell_angle_alpha                 89.769925
_cell_angle_beta                  90.032343
_cell_angle_gamma                 90.033697
_cell_volume                      2542.16979481

loop_
_atom_site_label
_atom_site_type_symbol
_atom_type_description
_atom_site_fract_x
_atom_site_fract_y
_atom_site_fract_z
_atom_type_partial_charge
C1    C     C_R   0.340914 0.499986 0.499949 0.838370
C2    C     C_3   0.574899 0.560960 0.925512 -0.411869
C3    C     C_R   0.955463 0.501173 0.386655 -0.110657
C4    C     C_R   0.955612 0.499713 0.611658 -0.133637
C5    C     C_R   0.912361 0.500392 0.499189 0.048687
C6    C     C_R   0.043207 0.499703 0.613413 -0.005028
C7    C     C_R   0.043079 0.501141 0.384844 -0.016707
C8    C     C_R   0.087117 0.500333 0.499117 -0.016956
C9    C     C_1   0.823000 0.500231 0.499360 -0.006220
C10   C     C_1   0.177016 0.500146 0.499179 -0.103543
C11   C     C_1   0.251976 0.500009 0.499491 -0.149241
C12   C     C_1   0.748053 0.500098 0.499715 -0.113359
C13   C     C_R   0.492700 0.951747 0.611316 -0.142394
C14   C     C_R   0.492713 0.047558 0.611325 -0.140943
C15   C     C_R   0.501849 0.500227 0.259270 0.844840
C16   C     C_R   0.500072 0.902854 0.499752 0.032580
C17   C     C_R   0.500107 0.097125 0.499771 0.040386
C18   C     C_R   0.507499 0.952400 0.388168 -0.122913
C19   C     C_R   0.507526 0.048236 0.388181 -0.137751
C20   C     C_1   0.500019 0.802729 0.499861 0.177720
C21   C     C_1   0.500042 0.197265 0.499882 0.148180
C22   C     C_R   0.659086 0.500021 0.500092 0.845825
C23   C     C_R   0.501862 0.499716 0.740581 0.791583
C24   C     C_3   0.413364 0.519327 0.069264 -0.044743
C25   C     C_3   0.525220 0.403008 0.071093 -0.030559
C26   C     C_3   0.418259 0.533887 0.927605 -0.386764
C27   C     C_3   0.520380 0.402104 0.928353 -0.406178
C28   C     C_3   0.567835 0.573550 0.067783 0.309905
C29   C     C_3   0.503624 0.500811 0.121634 -0.052872
C30   C     C_3   0.503503 0.499145 0.877860 0.010701
Cu1   Cu    Cu3+1 0.500000 0.589220 0.500040 1.032531
Cu2   Cu    Cu3+1 0.500000 0.410780 0.500040 1.001341
H1    H     H_    0.513294 0.916933 0.300677 0.165448
H2    H     H_    0.513353 0.084224 0.300697 0.149363
H3    H     H_    0.374881 0.457478 0.085238 0.134757
H4    H     H_    0.476695 0.354836 0.105252 0.148618
H5    H     H_    0.365701 0.497401 0.881965 0.154327
H6    H     H_    0.469340 0.355617 0.898680 0.175430
H7    H     H_    0.411334 0.607135 0.905251 0.223837
H8    H     H_    0.579573 0.375523 0.888565 0.211231
H9    H     H_    0.573612 0.627646 0.877274 0.199019
H10   H     H_    0.635994 0.529819 0.901245 0.185532
H11   H     H_    0.920394 0.501735 0.300408 0.202881
H12   H     H_    0.920663 0.499169 0.697946 0.190106
H13   H     H_    0.486914 0.083000 0.698829 0.138398
H14   H     H_    0.486899 0.915776 0.698815 0.145807
N1    N     N_1   0.499980 0.276710 0.500040 -0.145731
N2    N     N_1   0.499980 0.723290 0.500040 -0.134709
O1    O     O_R   0.380310 0.575320 0.500060 -0.553357
O2    O     O_R   0.380310 0.424680 0.500060 -0.578709
O3    O     O_R   0.499990 0.575340 0.317720 -0.526927
O4    O     O_R   0.499990 0.424660 0.317720 -0.573974
O5    O     O_R   0.619690 0.575360 0.500000 -0.563500
O6    O     O_R   0.619690 0.424640 0.500000 -0.557608
O7    O     O_R   0.500010 0.575340 0.682340 -0.587535
O8    O     O_R   0.500010 0.424660 0.682340 -0.588479
I1    I     I_    0.332258 0.617234 0.157175 -0.323289
I2    I     I_    0.636972 0.335051 0.135993 -0.319410
I3    I     I_    0.535210 0.714301 0.100793 -0.305480
I4    I     I_    0.691167 0.569859 0.149827 -0.280466
C31   C     C_2   0.087561 0.501898 0.263387 0.418676
H15   H     H_    0.155251 0.501328 0.259539 0.095958
O9    O     O_2   0.048978 0.503163 0.165443 -0.483562
C32   C     C_2   0.087794 0.499036 0.734882 0.407413
H16   H     H_    0.155498 0.499007 0.738755 0.072771
O10   O     O_2   0.049281 0.498528 0.832835 -0.487149

loop_
_geom_bond_atom_site_label_1
_geom_bond_atom_site_label_2
_ccdc_geom_bond_type
C2    C28   S    
C27   H6    S    
C19   H2    S    
C26   H5    S    
C23   O7    A    
C15   O3    A    
C14   H13   S    
C1    O2    A    
C24   I1    S    
Cu1   Cu2   S    
C1    C11   S    
C16   C20   S    
C27   H8    S    
C2    C30   S    
C3    H11   S    
C32   H16   S    
C15   O4    A    
C7    C8    A    
C22   O6    A    
C13   C14   A    
Cu1   O5    S    
C27   C30   S    
C5    C9    S    
C14   C17   A    
Cu2   O2    S    
C25   I2    S    
C20   N2    T    
C2    H10   S    
Cu1   O3    S    
Cu2   O6    S    
C28   C29   S    
C17   C19   A    
Cu1   O1    S    
C15   C29   S    
C22   O5    A    
C3    C7    A    
Cu1   N2    S    
C28   I4    S    
C25   C29   S    
C31   H15   S    
C18   H1    S    
C17   C21   S    
C26   H7    S    
C28   I3    S    
C24   H3    S    
C25   C27   S    
C9    C12   T    
C2    H9    S    
C23   C30   S    
C12   C22   S    
C23   O8    A    
C18   C19   A    
C16   C18   A    
C4    C6    A    
C10   C11   T    
C13   C16   A    
C6    C32   S    
C31   O9    D    
C21   N1    T    
C13   H14   S    
C7    C31   S    
C6    C8    A    
C4    H12   S    
Cu1   O7    S    
C25   H4    S    
C24   C29   S    
C1    O1    A    
Cu2   O8    S    
C8    C10   S    
Cu2   O4    S    
Cu2   N1    S    
C24   C26   S    
C4    C5    A    
C3    C5    A    
C26   C30   S    
C32   O10   D    
