data_mof_unit_25710.cif
_audit_creation_date              2012-12-10T17:02:03-0500
_audit_creation_method            fapswitch 2.2
_symmetry_space_group_name_H-M    P1
_symmetry_Int_Tables_number       1
_space_group_crystal_system       triclinic
_cell_length_a                    10.890786
_cell_length_b                    11.044998
_cell_length_c                    9.817789
_cell_angle_alpha                 111.434491
_cell_angle_beta                  97.613669
_cell_angle_gamma                 91.977023
_cell_volume                      1085.18821408

loop_
_atom_site_label
_atom_site_type_symbol
_atom_type_description
_atom_site_fract_x
_atom_site_fract_y
_atom_site_fract_z
_atom_type_partial_charge
C1    C     C_R   0.493154 0.253923 0.439847 0.884616
C2    C     C_R   0.076415 0.458450 0.618879 0.022210
C3    C     C_R   0.126733 0.469855 0.497513 -0.073882
C4    C     C_R   0.045960 0.462767 0.370766 -0.169337
C5    C     C_R   0.918826 0.461898 0.369290 -0.193535
C6    C     C_R   0.867950 0.464863 0.493617 -0.095349
C7    C     C_2   0.489527 0.114109 0.405192 -0.334965
C8    C     C_2   0.526020 0.070964 0.512714 -0.128443
C9    C     C_2   0.516180 0.888168 0.597374 -0.179701
C10   C     C_2   0.509881 0.932402 0.486222 -0.222958
C11   C     C_2   0.517029 0.505919 0.081646 -0.002292
C12   C     C_R   0.261715 0.491107 0.499690 0.848111
C13   C     C_2   0.507157 0.475657 0.916951 -0.029175
C14   C     C_R   0.509901 0.746716 0.560400 0.804211
C15   C     C_R   0.736225 0.487568 0.496467 0.793737
C16   C     C_R   0.150997 0.446088 0.741583 -0.052897
C17   C     C_R   0.107218 0.495205 0.878016 -0.013138
C18   C     C_R   0.979958 0.477442 0.876215 -0.210094
C19   C     C_R   0.900802 0.442568 0.741869 -0.180293
C20   C     C_R   0.946073 0.454844 0.617256 0.092854
Cu1   Cu    Cu3+1 0.521920 0.521810 0.644910 0.996394
Cu2   Cu    Cu3+1 0.478080 0.478190 0.355090 0.974974
H1    H     H_    0.081147 0.462047 0.272864 0.213968
H2    H     H_    0.452991 0.046767 0.293482 0.176957
H3    H     H_    0.456781 0.385376 0.841187 0.194537
H4    H     H_    0.585865 0.582721 0.156605 0.149711
H5    H     H_    0.600976 0.640877 0.938014 0.218133
H6    H     H_    0.382009 0.371501 0.064045 0.241922
H7    H     H_    0.941815 0.493364 0.977212 0.177326
H8    H     H_    0.805803 0.412119 0.741834 0.181511
H9    H     H_    0.860691 0.464498 0.272052 0.165816
H10   H     H_    0.495166 0.864497 0.371483 0.193385
H11   H     H_    0.566153 0.139431 0.622335 0.199429
N1    N     N_2   0.445130 0.445430 0.137370 -0.282241
N2    N     N_2   0.554930 0.554500 0.862630 -0.287675
O1    O     O_R   0.511700 0.332330 0.577400 -0.591356
O2    O     O_R   0.474680 0.295500 0.332650 -0.570605
O3    O     O_R   0.338160 0.518420 0.622400 -0.562739
O4    O     O_R   0.301140 0.481590 0.377650 -0.573789
O5    O     O_R   0.525320 0.704500 0.667350 -0.530778
O6    O     O_R   0.488300 0.667670 0.422600 -0.586000
O7    O     O_R   0.698860 0.518410 0.622350 -0.588657
O8    O     O_R   0.661840 0.481580 0.377600 -0.589711
C21   C     C_2   0.217601 0.325626 0.712592 0.854295
O9    O     O_2   0.245737 0.284975 0.811887 -0.617904
O10   O     O_R   0.237815 0.251408 0.569142 -0.767927
H12   H     H_    0.276582 0.167819 0.562982 0.354667
C22   C     C_2   0.190729 0.574341 0.016006 0.867780
O11   O     O_2   0.292279 0.620411 0.009446 -0.596334
O12   O     O_R   0.149961 0.606518 0.152852 -0.788128
H13   H     H_    0.214702 0.664180 0.238331 0.344601
C23   C     C_2   0.526477 0.977310 0.755806 0.856745
O13   O     O_2   0.596793 0.956500 0.851182 -0.575776
O14   O     O_R   0.453157 0.082575 0.796106 -0.748746
H14   H     H_    0.468341 0.135401 0.906619 0.336535

loop_
_geom_bond_atom_site_label_1
_geom_bond_atom_site_label_2
_ccdc_geom_bond_type
C9    C14   S    
Cu1   N2    S    
C7    H2    S    
C2    C20   A    
C6    C20   A    
C9    C10   D    
C16   C21   S    
Cu2   O8    S    
C17   C22   S    
C1    O2    A    
H5    N2    S    
C12   O4    A    
C22   O12   S    
C2    C3    A    
C3    C4    A    
C15   O8    A    
C7    C8    D    
C18   H7    S    
Cu1   Cu2   S    
C21   O9    D    
C11   C13   S    
C13   H3    S    
C9    C23   S    
C14   O6    A    
Cu2   O4    S    
C8    C10   S    
C22   O11   D    
C23   O14   S    
C13   N2    D    
C8    H11   S    
C12   O3    A    
C5    C6    A    
Cu2   N1    S    
Cu2   O6    S    
H6    N1    S    
Cu1   O7    S    
C10   H10   S    
C2    C16   A    
C23   O13   D    
C15   O7    A    
C17   C18   A    
C18   C19   A    
O14   H14   S    
Cu1   O1    S    
C4    H1    S    
O10   H12   S    
C16   C17   A    
C3    C12   S    
C11   H4    S    
O12   H13   S    
C6    C15   S    
C1    C7    S    
C19   H8    S    
C14   O5    A    
Cu2   O2    S    
C11   N1    D    
Cu1   O3    S    
C19   C20   A    
C1    O1    A    
C21   O10   S    
C4    C5    A    
C5    H9    S    
Cu1   O5    S    
