data_mof_unit_8284.cif
_audit_creation_date              2012-12-11T16:07:16-0500
_audit_creation_method            fapswitch 2.2
_symmetry_space_group_name_H-M    P1
_symmetry_Int_Tables_number       1
_space_group_crystal_system       triclinic
_cell_length_a                    17.115091
_cell_length_b                    17.112785
_cell_length_c                    17.248248
_cell_angle_alpha                 89.99905
_cell_angle_beta                  89.901072
_cell_angle_gamma                 90.000119
_cell_volume                      5051.77788256

loop_
_atom_site_label
_atom_site_type_symbol
_atom_type_description
_atom_site_fract_x
_atom_site_fract_y
_atom_site_fract_z
_atom_type_partial_charge
C1    C     C_R   0.393864 0.697896 0.607414 -0.068010
C2    C     C_R   0.576585 0.669545 0.646220 -0.074648
C3    C     C_3   0.801055 0.214865 0.632271 -0.541171
C4    C     C_3   0.727681 0.742157 0.282237 -0.546346
C5    C     C_3   0.272326 0.257840 0.717771 -0.546357
C6    C     C_3   0.785953 0.199240 0.368245 -0.537312
C7    C     C_3   0.214141 0.800859 0.631752 -0.537361
C8    C     C_3   0.699301 0.714526 0.867728 -0.541117
C9    C     C_3   0.300778 0.285398 0.132271 -0.541119
C10   C     C_3   0.756938 0.227402 0.782585 -0.542332
C11   C     C_3   0.243179 0.772742 0.217463 -0.542355
C12   C     C_3   0.285956 0.300742 0.868235 -0.537228
C13   C     C_R   0.697931 0.394635 0.392160 -0.086505
C14   C     C_3   0.714041 0.699266 0.131769 -0.537199
C15   C     C_3   0.227555 0.757745 0.782181 -0.546285
C16   C     C_3   0.772337 0.242167 0.217784 -0.546299
C17   C     C_R   0.302065 0.605364 0.607830 -0.086627
C18   C     C_R   0.576604 0.668591 0.353133 -0.079005
C19   C     C_R   0.423395 0.331409 0.646867 -0.078991
C20   C     C_R   0.302216 0.606056 0.392406 -0.068041
C21   C     C_R   0.697780 0.393956 0.607612 -0.068176
C22   C     C_R   0.923393 0.168591 0.146866 -0.078942
C23   C     C_R   0.076609 0.831411 0.853131 -0.078967
C24   C     C_R   0.197770 0.106016 0.107656 -0.068494
C25   C     C_R   0.606126 0.302108 0.392572 -0.068140
C26   C     C_R   0.802233 0.893991 0.892334 -0.068551
C27   C     C_R   0.076594 0.830420 0.146198 -0.074546
C28   C     C_R   0.923408 0.169571 0.853797 -0.074570
C29   C     C_R   0.802072 0.894639 0.107849 -0.086419
C30   C     C_R   0.197929 0.105362 0.892155 -0.086447
C31   C     C_R   0.894788 0.802174 0.891910 -0.086929
C32   C     C_R   0.105210 0.197829 0.108082 -0.086992
C33   C     C_R   0.169409 0.923506 0.853641 -0.077034
C34   C     C_R   0.830597 0.076493 0.146363 -0.077054
C35   C     C_R   0.106124 0.197891 0.892565 -0.068246
C36   C     C_R   0.668730 0.576707 0.646723 -0.077152
C37   C     C_R   0.893877 0.802110 0.107438 -0.068282
C38   C     C_R   0.831274 0.076722 0.853272 -0.077353
C39   C     C_R   0.168723 0.923276 0.146730 -0.077374
C40   C     C_3   0.324444 0.323269 0.250593 -0.421789
C41   C     C_3   0.675561 0.676728 0.749400 -0.421791
C42   C     C_3   0.266195 0.735049 0.334649 -0.425472
C43   C     C_3   0.733803 0.264973 0.665384 -0.425454
C44   C     C_3   0.676380 0.675232 0.250177 -0.417599
C45   C     C_3   0.323621 0.324770 0.749826 -0.417584
C46   C     C_3   0.735217 0.265890 0.335080 -0.427229
C47   C     C_R   0.331272 0.423293 0.353275 -0.077127
C48   C     C_3   0.264765 0.734111 0.664895 -0.427251
C49   C     C_3   0.766204 0.765035 0.834519 -0.425350
C50   C     C_3   0.233795 0.234979 0.165461 -0.425369
C51   C     C_3   0.824472 0.176746 0.750568 -0.421640
C52   C     C_3   0.175517 0.823249 0.249445 -0.421585
C53   C     C_3   0.235210 0.234103 0.835065 -0.427216
C54   C     C_3   0.764793 0.765899 0.164942 -0.427204
C55   C     C_3   0.176381 0.824785 0.750155 -0.417597
C56   C     C_3   0.823622 0.175225 0.249834 -0.417626
C57   C     C_R   0.318078 0.681211 0.626973 0.227937
C58   C     C_R   0.605210 0.302158 0.608052 -0.087278
C59   C     C_R   0.681909 0.318792 0.373004 0.227931
C60   C     C_R   0.633639 0.634497 0.690425 0.247538
C61   C     C_R   0.366359 0.365496 0.309577 0.247522
C62   C     C_R   0.680986 0.318233 0.627368 0.231188
C63   C     C_R   0.319010 0.681784 0.372661 0.231191
C64   C     C_R   0.365782 0.366629 0.690674 0.244677
C65   C     C_R   0.634217 0.633371 0.309326 0.244689
C66   C     C_R   0.865779 0.133371 0.190674 0.244707
C67   C     C_R   0.134230 0.866629 0.809327 0.244690
C68   C     C_R   0.180974 0.181729 0.127440 0.231271
C69   C     C_R   0.394792 0.697847 0.391961 -0.087420
C70   C     C_R   0.819028 0.818281 0.872542 0.231280
C71   C     C_R   0.133645 0.865451 0.190408 0.247403
C72   C     C_R   0.866357 0.134536 0.809588 0.247419
C73   C     C_R   0.818098 0.818799 0.127015 0.227917
C74   C     C_R   0.181904 0.181203 0.872991 0.227915
C75   C     C_3   0.727838 0.646716 0.814713 0.766211
C76   C     C_3   0.272255 0.353280 0.185207 0.766302
C77   C     C_3   0.705680 0.197165 0.716240 0.735798
C78   C     C_3   0.294290 0.802970 0.283925 0.735765
C79   C     C_3   0.256429 0.353378 0.801142 0.750950
C80   C     C_R   0.330599 0.423509 0.646364 -0.077022
C81   C     C_3   0.743568 0.646622 0.198856 0.750950
C82   C     C_3   0.294173 0.786862 0.730309 0.741566
C83   C     C_3   0.705804 0.213031 0.269753 0.741531
C84   C     C_3   0.802556 0.294117 0.283622 0.738872
C85   C     C_3   0.197341 0.705905 0.716254 0.738857
C86   C     C_3   0.646413 0.727830 0.185062 0.761354
C87   C     C_3   0.353587 0.272179 0.814947 0.761373
C88   C     C_3   0.214180 0.705611 0.268712 0.739762
C89   C     C_3   0.785964 0.294420 0.731204 0.739707
C90   C     C_3   0.352995 0.255824 0.199616 0.752652
C91   C     C_R   0.669401 0.576491 0.353636 -0.077019
C92   C     C_3   0.646995 0.744104 0.800455 0.752762
C93   C     C_3   0.286258 0.205519 0.231043 0.739571
C94   C     C_3   0.713654 0.794498 0.769009 0.739533
C95   C     C_3   0.147061 0.755460 0.300031 0.752255
C96   C     C_3   0.852959 0.244422 0.699852 0.752372
C97   C     C_3   0.697465 0.794128 0.216412 0.738899
C98   C     C_3   0.302542 0.205876 0.783601 0.738899
C99   C     C_3   0.853593 0.227802 0.314963 0.761397
C100  C     C_3   0.146413 0.772317 0.684937 0.761473
C101  C     C_3   0.243664 0.853371 0.698941 0.750949
C102  C     C_R   0.423411 0.330449 0.353784 -0.074671
C103  C     C_3   0.756425 0.146617 0.301144 0.751024
C104  C     C_3   0.205799 0.286975 0.769747 0.741540
C105  C     C_3   0.794205 0.713020 0.230255 0.741512
C106  C     C_3   0.772590 0.146743 0.684942 0.766605
C107  C     C_3   0.227252 0.853245 0.315187 0.766742
C108  C     C_3   0.794403 0.697526 0.783318 0.735780
C109  C     C_3   0.205611 0.302557 0.216584 0.735726
C110  C     C_3   0.257177 0.272307 0.282691 -0.542163
C111  C     C_3   0.742749 0.727779 0.717283 -0.542190
C112  C     C_3   0.198816 0.785007 0.367729 -0.541227
F1    F     F_    0.734489 0.569274 0.836519 -0.584584
F2    F     F_    0.172774 0.629489 0.725496 -0.598495
F3    F     F_    0.568964 0.734785 0.163534 -0.595116
F4    F     F_    0.431035 0.265231 0.836479 -0.595046
F5    F     F_    0.207345 0.628754 0.244835 -0.595955
F6    F     F_    0.792960 0.371295 0.754976 -0.595987
F7    F     F_    0.429865 0.232118 0.192166 -0.584677
F8    F     F_    0.570109 0.767726 0.807987 -0.584622
F9    F     F_    0.293585 0.128604 0.254597 -0.596307
F10   F     F_    0.706235 0.871422 0.745524 -0.596301
F11   F     F_    0.070283 0.731338 0.307058 -0.584813
F12   F     F_    0.265696 0.430713 0.163333 -0.584511
F13   F     F_    0.929765 0.268411 0.692686 -0.584774
F14   F     F_    0.673018 0.870568 0.225780 -0.598426
F15   F     F_    0.326995 0.129438 0.774239 -0.598399
F16   F     F_    0.931041 0.234737 0.336500 -0.594865
F17   F     F_    0.068977 0.765502 0.663320 -0.594832
F18   F     F_    0.267132 0.930299 0.691351 -0.593282
F19   F     F_    0.733057 0.069670 0.308839 -0.593278
F20   F     F_    0.128882 0.294727 0.746496 -0.591531
F21   F     F_    0.871123 0.705262 0.253502 -0.591514
F22   F     F_    0.766359 0.069350 0.662848 -0.584799
F23   F     F_    0.629369 0.172100 0.724992 -0.604434
F24   F     F_    0.233324 0.930621 0.337388 -0.584789
F25   F     F_    0.870792 0.672835 0.774185 -0.604334
F26   F     F_    0.129237 0.327334 0.225633 -0.604333
F27   F     F_    0.370572 0.828170 0.275317 -0.604504
F28   F     F_    0.233072 0.430327 0.808848 -0.593403
F29   F     F_    0.766919 0.569671 0.191144 -0.593330
F30   F     F_    0.371079 0.794480 0.753646 -0.591529
F31   F     F_    0.628887 0.205293 0.246497 -0.591551
F32   F     F_    0.827021 0.370553 0.274271 -0.598441
H1    H     H_    0.421155 0.754892 0.606278 0.158375
H2    H     H_    0.542355 0.720415 0.660996 0.182797
H3    H     H_    0.754695 0.422274 0.393920 0.172382
H4    H     H_    0.245303 0.577720 0.606065 0.172468
H5    H     H_    0.542444 0.719242 0.337542 0.172605
H6    H     H_    0.457555 0.280757 0.662458 0.172629
H7    H     H_    0.245236 0.578733 0.393404 0.155771
H8    H     H_    0.754759 0.421280 0.606610 0.155906
H9    H     H_    0.957552 0.219242 0.162457 0.172676
H10   H     H_    0.042448 0.780764 0.837536 0.172640
H11   H     H_    0.254746 0.078688 0.106651 0.156133
H12   H     H_    0.578835 0.245112 0.393711 0.158482
H13   H     H_    0.745256 0.921319 0.893342 0.156222
H14   H     H_    0.042360 0.779549 0.160950 0.183104
H15   H     H_    0.957641 0.220442 0.839038 0.183016
H16   H     H_    0.745307 0.922278 0.106090 0.172374
H17   H     H_    0.254694 0.077724 0.893914 0.172391
H18   H     H_    0.922480 0.745423 0.893532 0.171111
H19   H     H_    0.077515 0.254578 0.106455 0.171184
H20   H     H_    0.220357 0.957582 0.838812 0.182027
H21   H     H_    0.779649 0.042419 0.161197 0.181961
H22   H     H_    0.078834 0.254886 0.893705 0.158513
H23   H     H_    0.719299 0.542396 0.662258 0.173652
H24   H     H_    0.921166 0.745114 0.106298 0.158536
H25   H     H_    0.780709 0.042412 0.837722 0.173491
H26   H     H_    0.219282 0.957591 0.162287 0.173421
H27   H     H_    0.239492 0.266925 0.344464 0.247564
H28   H     H_    0.760369 0.733224 0.655499 0.247560
H29   H     H_    0.181693 0.788913 0.429664 0.234454
H30   H     H_    0.818082 0.210848 0.570318 0.234350
H31   H     H_    0.733291 0.759559 0.344031 0.246959
H32   H     H_    0.266720 0.240432 0.655979 0.246965
H33   H     H_    0.790389 0.182711 0.430267 0.233939
H34   H     H_    0.280707 0.457609 0.337737 0.173597
H35   H     H_    0.209788 0.817460 0.569741 0.234044
H36   H     H_    0.682538 0.710222 0.929730 0.234185
H37   H     H_    0.317602 0.289638 0.070279 0.234220
H38   H     H_    0.739039 0.232566 0.844315 0.247582
H39   H     H_    0.261179 0.767687 0.155753 0.247596
H40   H     H_    0.290397 0.317265 0.930255 0.233801
H41   H     H_    0.709595 0.682746 0.069748 0.233760
H42   H     H_    0.233075 0.740250 0.843957 0.246995
H43   H     H_    0.766736 0.259585 0.155994 0.246980
H44   H     H_    0.577502 0.245416 0.606411 0.171445
H45   H     H_    0.422505 0.754585 0.393609 0.171560
H46   H     H_    0.279651 0.457583 0.661197 0.181941
H47   H     H_    0.720350 0.542418 0.338803 0.181952
H48   H     H_    0.457639 0.279577 0.339012 0.182856
N1    N     N_R   0.424590 0.632770 0.578330 -0.069424
N2    N     N_R   0.575410 0.632770 0.578330 -0.065837
N3    N     N_R   0.632770 0.424590 0.421670 -0.069926
N4    N     N_R   0.367230 0.575410 0.578330 -0.069925
N5    N     N_R   0.575410 0.632770 0.421670 -0.063861
N6    N     N_R   0.424590 0.367230 0.578330 -0.063864
N7    N     N_R   0.367230 0.575410 0.421670 -0.068424
N8    N     N_R   0.632770 0.424590 0.578330 -0.068440
N9    N     N_R   0.924590 0.132770 0.078330 -0.063877
N10   N     N_R   0.075410 0.867230 0.921670 -0.063866
N11   N     N_R   0.132770 0.075410 0.078330 -0.068440
N12   N     N_R   0.575410 0.367230 0.421670 -0.069434
N13   N     N_R   0.867230 0.924590 0.921670 -0.068455
N14   N     N_R   0.075410 0.867230 0.078330 -0.065835
N15   N     N_R   0.924590 0.132770 0.921670 -0.065833
N16   N     N_R   0.867230 0.924590 0.078330 -0.069925
N17   N     N_R   0.132770 0.075410 0.921670 -0.069930
N18   N     N_R   0.924590 0.867230 0.921670 -0.069075
N19   N     N_R   0.075410 0.132770 0.078330 -0.069075
N20   N     N_R   0.132770 0.924590 0.921670 -0.064808
N21   N     N_R   0.867230 0.075410 0.078330 -0.064806
N22   N     N_R   0.075410 0.132770 0.921670 -0.069448
N23   N     N_R   0.632770 0.575410 0.578330 -0.064923
N24   N     N_R   0.924590 0.867230 0.078330 -0.069453
N25   N     N_R   0.867230 0.075410 0.921670 -0.064859
N26   N     N_R   0.132770 0.924590 0.078330 -0.064848
N27   N     N_R   0.367230 0.424590 0.421670 -0.064921
N28   N     N_R   0.575410 0.367230 0.578330 -0.069070
N29   N     N_R   0.424590 0.632770 0.421670 -0.069066
N30   N     N_R   0.367230 0.424590 0.578330 -0.064808
N31   N     N_R   0.632770 0.575410 0.421670 -0.064810
N32   N     N_R   0.424590 0.367230 0.421670 -0.065832
Ni1   Ni    Ni4+2 0.500000 0.631570 0.500000 0.245547
Ni2   Ni    Ni4+2 0.500000 0.368430 0.500000 0.245552
Ni3   Ni    Ni4+2 0.631570 0.500000 0.500000 0.245339
Ni4   Ni    Ni4+2 0.368430 0.500000 0.500000 0.245337
Ni5   Ni    Ni4+2 0.000000 0.131570 0.000000 0.245549
Ni6   Ni    Ni4+2 0.000000 0.868430 0.000000 0.245554
Ni7   Ni    Ni4+2 0.131570 0.000000 0.000000 0.245351
Ni8   Ni    Ni4+2 0.868430 0.000000 0.000000 0.245349

loop_
_geom_bond_atom_site_label_1
_geom_bond_atom_site_label_2
_ccdc_geom_bond_type
C58   C62   A    
C110  H27   S    
N4    Ni4   S    
C24   N11   A    
C46   C59   S    
N14   Ni6   S    
C107  C112  S    
C39   N26   A    
C1    H1    S    
C53   C74   S    
C83   F31   S    
C82   F30   S    
C25   N12   A    
C78   F27   S    
C19   H6    S    
C30   N17   A    
C102  N32   A    
C48   C57   S    
C35   C74   A    
C32   C68   A    
N14   N26   A    
C18   C65   A    
C3    C43   S    
C43   C89   S    
C29   N16   A    
C83   C103  S    
C52   C95   S    
C43   C77   S    
N2    Ni1   S    
C85   F2    S    
N6    N30   A    
C90   F7    S    
C93   F9    S    
C55   C101  S    
C39   H26   S    
C7    C101  S    
C95   C112  S    
C36   N23   A    
C108  F25   S    
C30   C74   A    
C33   N20   A    
N31   Ni3   S    
C46   C83   S    
C29   C73   A    
C84   F32   S    
C53   C104  S    
C104  F20   S    
C32   H19   S    
N29   Ni1   S    
C94   C111  S    
C16   C84   S    
C35   H22   S    
C36   H23   S    
C26   H13   S    
C111  H28   S    
N17   Ni7   S    
C21   H8    S    
C23   C67   A    
C86   C97   S    
C42   C112  S    
C22   C66   A    
C11   C52   S    
C41   C60   S    
N27   N32   A    
C58   N28   A    
C52   C107  S    
C31   C70   A    
C63   C69   A    
C10   C89   S    
C76   C109  S    
C4    H31   S    
C55   C100  S    
N24   Ni6   S    
C56   C66   S    
C54   C97   S    
C3    C96   S    
C8    C92   S    
C9    C76   S    
C16   C83   S    
C49   C94   S    
C29   H16   S    
C18   H5    S    
N19   Ni5   S    
N7    Ni4   S    
C11   C88   S    
C37   N24   A    
C69   N29   A    
C12   C53   S    
C54   C105  S    
C24   H11   S    
C93   C110  S    
N10   Ni6   S    
C87   C98   S    
C101  F18   S    
C81   F29   S    
C79   F28   S    
C31   H18   S    
C75   C108  S    
N16   N24   A    
C4    C97   S    
C25   H12   S    
C64   C80   A    
C38   N25   A    
N11   N19   A    
C44   C65   S    
C28   C72   A    
C2    C60   A    
C44   C86   S    
C10   C51   S    
C14   C81   S    
C34   C66   A    
C10   C77   S    
C15   C82   S    
C81   C105  S    
N25   Ni8   S    
C3    C106  S    
C37   H24   S    
C15   H42   S    
C38   C72   A    
N15   N25   A    
C7    C100  S    
C23   N10   A    
C58   H44   S    
C76   F12   S    
C17   H4    S    
C11   H39   S    
C14   C86   S    
C44   C81   S    
C69   H45   S    
N2    N23   A    
C86   F3    S    
N20   Ni7   S    
C24   C68   A    
C100  F17   S    
N15   Ni5   S    
C40   C110  S    
N3    N12   A    
C4    C44   S    
C36   C60   A    
C5    C45   S    
C16   H43   S    
C50   C109  S    
C40   C61   S    
C40   C76   S    
C14   H41   S    
C109  F26   S    
C27   H14   S    
N8    Ni3   S    
C15   C55   S    
N27   Ni4   S    
C1    N1    A    
C16   C56   S    
C20   N7    A    
C107  F24   S    
C11   C78   S    
C1    C57   A    
C41   C75   S    
C54   C73   S    
C8    H36   S    
C3    H30   S    
C102  H48   S    
N8    N28   A    
N30   Ni4   S    
C19   C64   A    
N1    N4    A    
C33   H20   S    
C18   N5    A    
C92   C94   S    
N18   Ni6   S    
N28   Ni2   S    
C45   C79   S    
C6    C103  S    
C5    C98   S    
N9    N21   A    
C87   F4    S    
N21   Ni8   S    
N16   Ni8   S    
N7    N29   A    
C94   F10   S    
C98   F15   S    
C14   C54   S    
C42   C78   S    
C49   C70   S    
C6    H33   S    
C41   C111  S    
C26   C70   A    
C5    H32   S    
C46   C84   S    
C79   C104  S    
C26   N13   A    
C42   C88   S    
C51   C72   S    
C13   H3    S    
C21   N8    A    
C91   N31   A    
C34   H21   S    
N5    Ni1   S    
C27   C71   A    
C33   C67   A    
C90   C93   S    
C105  F21   S    
C6    C99   S    
C95   F11   S    
C65   C91   A    
C37   C73   A    
C77   C106  S    
C19   N6    A    
C6    C46   S    
C22   N9    A    
C45   C87   S    
C84   C99   S    
C80   H46   S    
C9    C50   S    
C56   C103  S    
N10   N20   A    
C97   F14   S    
N5    N31   A    
C34   N21   A    
N32   Ni2   S    
C9    C90   S    
C47   C61   A    
C55   C67   S    
C20   H7    S    
C50   C93   S    
C88   C95   S    
C99   F16   S    
C13   C59   A    
N3    Ni3   S    
C53   C98   S    
C2    H2    S    
C77   F23   S    
C4    C105  S    
C51   C96   S    
C45   C64   S    
N17   N22   A    
C30   H17   S    
C108  C111  S    
C15   C85   S    
C7    H35   S    
C27   N14   A    
C40   C90   S    
C7    C48   S    
C89   C96   S    
C103  F19   S    
C61   C102  A    
C92   F8    S    
N1    Ni1   S    
C12   C87   S    
C52   C71   S    
C109  C110  S    
C32   N19   A    
N12   Ni2   S    
N11   Ni7   S    
C12   H40   S    
C31   N18   A    
C47   N27   A    
N13   N18   A    
C20   C63   A    
C51   C106  S    
C10   H38   S    
C8    C49   S    
N9    Ni5   S    
C47   H34   S    
C82   C101  S    
C48   C82   S    
C96   F13   S    
C112  H29   S    
N23   Ni3   S    
C28   H15   S    
C91   H47   S    
C35   N22   A    
C49   C108  S    
N26   Ni7   S    
C5    C104  S    
C9    H37   S    
C8    C75   S    
C80   N30   A    
C38   H25   S    
C106  F22   S    
C41   C92   S    
C89   F6    S    
C13   N3    A    
C23   H10   S    
C85   C100  S    
C28   N15   A    
C39   C71   A    
C48   C85   S    
C78   C107  S    
C17   N4    A    
N13   Ni8   S    
C25   C59   A    
C56   C99   S    
C2    N2    A    
C88   F5    S    
C21   C62   A    
N22   Ni5   S    
C50   C68   S    
C42   C63   S    
N6    Ni2   S    
C43   C62   S    
C17   C57   A    
C12   C79   S    
C22   H9    S    
C75   F1    S    
