data_mof_unit_15421.cif
_audit_creation_date              2012-12-11T16:13:06-0500
_audit_creation_method            fapswitch 2.2
_symmetry_space_group_name_H-M    P1
_symmetry_Int_Tables_number       1
_space_group_crystal_system       triclinic
_cell_length_a                    23.471936
_cell_length_b                    13.58981
_cell_length_c                    28.461396
_cell_angle_alpha                 89.999814
_cell_angle_beta                  90.542468
_cell_angle_gamma                 90.000348
_cell_volume                      9078.18501945

loop_
_atom_site_label
_atom_site_type_symbol
_atom_type_description
_atom_site_fract_x
_atom_site_fract_y
_atom_site_fract_z
_atom_type_partial_charge
C1    C     C_R   0.284757 0.005307 0.816094 0.544188
C2    C     C_3   0.495743 0.728934 0.973007 -0.212705
C3    C     C_R   0.204633 0.029352 0.523755 0.008360
C4    C     C_R   0.297608 0.539584 0.525242 -0.105646
C5    C     C_R   0.702392 0.539583 0.474759 -0.105646
C6    C     C_R   0.797608 0.039584 0.525242 -0.105646
C7    C     C_R   0.202393 0.039581 0.474759 -0.105646
C8    C     C_R   0.254075 0.588778 0.548778 0.024324
C9    C     C_R   0.745925 0.588778 0.451222 0.024324
C10   C     C_R   0.754075 0.088779 0.548778 0.024324
C11   C     C_R   0.245924 0.088780 0.451222 0.024324
C12   C     C_R   0.249161 0.571804 0.451252 0.031122
C13   C     C_3   0.003666 0.228937 0.027062 -0.212722
C14   C     C_R   0.750839 0.571805 0.548749 0.031122
C15   C     C_R   0.749161 0.071805 0.451251 0.031122
C16   C     C_R   0.250838 0.071806 0.548749 0.031122
C17   C     C_1   0.242140 0.558985 0.401683 -0.055986
C18   C     C_1   0.757860 0.558987 0.598317 -0.055986
C19   C     C_1   0.742140 0.058986 0.401683 -0.055986
C20   C     C_1   0.257860 0.058988 0.598317 -0.055986
C21   C     C_1   0.259268 0.607284 0.597894 -0.063940
C22   C     C_1   0.740732 0.607283 0.402106 -0.063939
C23   C     C_1   0.759268 0.107284 0.597894 -0.063939
C24   C     C_3   0.995578 0.228932 0.973027 -0.212699
C25   C     C_1   0.240732 0.107284 0.402106 -0.063939
C26   C     C_1   0.232249 0.540790 0.361272 -0.010035
C27   C     C_1   0.767751 0.540791 0.638728 -0.010035
C28   C     C_1   0.732249 0.040790 0.361272 -0.010036
C29   C     C_1   0.267751 0.040791 0.638729 -0.010035
C30   C     C_R   0.284384 0.007205 0.684030 0.545750
C31   C     C_R   0.715616 0.007205 0.315970 0.545749
C32   C     C_R   0.784384 0.507205 0.684030 0.545751
C33   C     C_R   0.215616 0.507205 0.315970 0.545749
C34   C     C_R   0.445700 0.825194 0.684358 0.545039
C35   C     C_1   0.516520 0.834794 0.096694 -0.073136
C36   C     C_R   0.554300 0.825193 0.315642 0.545038
C37   C     C_R   0.945700 0.325194 0.684358 0.545040
C38   C     C_R   0.054300 0.325193 0.315642 0.545037
C39   C     C_R   0.274186 0.674138 0.683021 0.544317
C40   C     C_R   0.725814 0.674138 0.316979 0.544317
C41   C     C_R   0.774186 0.174138 0.683021 0.544316
C42   C     C_R   0.225814 0.174138 0.316979 0.544317
C43   C     C_3   0.442660 0.889340 0.978504 -0.212554
C44   C     C_3   0.557516 0.888742 0.021480 -0.212622
C45   C     C_3   0.942719 0.389563 0.978500 -0.212506
C46   C     C_1   0.483462 0.834791 0.903312 -0.073143
C47   C     C_3   0.057574 0.388509 0.021476 -0.212687
C48   C     C_3   0.549018 0.889151 0.967401 -0.216257
C49   C     C_3   0.451160 0.889753 0.032584 -0.216202
C50   C     C_3   0.049076 0.388923 0.967398 -0.216305
C51   C     C_3   0.951221 0.389979 0.032580 -0.216163
C52   C     C_1   0.529860 0.831250 0.137439 -0.015463
C53   C     C_1   0.470130 0.831249 0.862565 -0.015461
C54   C     C_1   0.029852 0.331250 0.137442 -0.015466
C55   C     C_1   0.970123 0.331248 0.862568 -0.015459
C56   C     C_R   0.341471 0.474356 0.452514 0.030709
C57   C     C_1   0.016506 0.334792 0.096698 -0.073132
C58   C     C_R   0.398632 0.502341 0.459306 -0.102664
C59   C     C_R   0.442366 0.449497 0.437837 -0.112459
C60   C     C_R   0.429435 0.368204 0.409605 -0.102101
C61   C     C_R   0.372768 0.339385 0.402944 -0.112774
C62   C     C_R   0.328910 0.391818 0.424469 -0.085715
C63   C     C_R   0.658530 0.474353 0.547487 0.030708
C64   C     C_R   0.601368 0.502336 0.540695 -0.102664
C65   C     C_R   0.557635 0.449491 0.562164 -0.112458
C66   C     C_R   0.570566 0.368197 0.590396 -0.102101
C67   C     C_R   0.627234 0.339380 0.597057 -0.112773
C68   C     C_1   0.983450 0.334789 0.903315 -0.073144
C69   C     C_R   0.671091 0.391815 0.575531 -0.085714
C70   C     C_R   0.841470 0.974355 0.452514 0.030708
C71   C     C_R   0.898632 0.002339 0.459306 -0.102664
C72   C     C_R   0.942365 0.949494 0.437837 -0.112459
C73   C     C_R   0.929433 0.868200 0.409605 -0.102101
C74   C     C_R   0.872766 0.839383 0.402944 -0.112774
C75   C     C_R   0.828909 0.891816 0.424470 -0.085714
C76   C     C_R   0.158531 0.974348 0.547486 0.030709
C77   C     C_R   0.101369 0.002327 0.540694 -0.102664
C78   C     C_R   0.057637 0.949479 0.562163 -0.112459
C79   C     C_1   0.266659 0.633676 0.860896 -0.012705
C80   C     C_R   0.070570 0.868187 0.590395 -0.102103
C81   C     C_R   0.127238 0.839375 0.597058 -0.112774
C82   C     C_R   0.171094 0.891812 0.575531 -0.085713
C83   C     C_1   0.733340 0.633692 0.139101 -0.012690
C84   C     C_1   0.766660 0.133683 0.860897 -0.012708
C85   C     C_R   0.715243 0.005307 0.183906 0.544183
C86   C     C_1   0.233342 0.133685 0.139103 -0.012679
C87   C     C_R   0.290543 0.651675 0.982094 -0.106986
C88   C     C_R   0.709936 0.652493 0.017885 -0.106899
C89   C     C_R   0.790336 0.152031 0.982103 -0.106998
C90   C     C_R   0.209848 0.152330 0.017891 -0.106863
C91   C     C_R   0.285235 0.639119 0.030575 -0.108464
C92   C     C_R   0.715226 0.639894 0.969407 -0.108440
C93   C     C_R   0.785034 0.139455 0.030583 -0.108483
C94   C     C_R   0.215141 0.139740 0.969412 -0.108409
C95   C     C_R   0.218133 0.506062 0.016783 -0.105831
C96   C     C_R   0.784757 0.505307 0.816094 0.544186
C97   C     C_R   0.781330 0.505365 0.983216 -0.105773
C98   C     C_R   0.718366 0.005753 0.016782 -0.105828
C99   C     C_R   0.281441 0.005497 0.983217 -0.105766
C100  C     C_R   0.223321 0.518745 0.968335 -0.107511
C101  C     C_R   0.776161 0.518093 0.031663 -0.107512
C102  C     C_R   0.723547 0.018456 0.968335 -0.107524
C103  C     C_R   0.276268 0.018215 0.031665 -0.107498
C104  C     C_R   0.259350 0.591884 0.950961 0.040901
C105  C     C_R   0.740644 0.591988 0.049028 0.040840
C106  C     C_R   0.759353 0.091927 0.950965 0.040884
C107  C     C_R   0.215243 0.505308 0.183906 0.544183
C108  C     C_R   0.240651 0.091963 0.049032 0.040838
C109  C     C_R   0.248699 0.566682 0.047929 0.041068
C110  C     C_R   0.751255 0.566691 0.952062 0.041000
C111  C     C_R   0.748718 0.066682 0.047932 0.041050
C112  C     C_R   0.251269 0.066685 0.952065 0.040995
C113  C     C_R   0.445998 0.824114 0.816647 0.544523
C114  C     C_R   0.554001 0.824114 0.183354 0.544525
C115  C     C_R   0.945996 0.324114 0.816648 0.544523
C116  C     C_R   0.053999 0.324114 0.183355 0.544526
C117  C     C_1   0.241180 0.554094 0.097508 -0.058858
C118  C     C_3   0.492900 0.835833 0.954177 0.067346
C119  C     C_1   0.758803 0.554096 0.902487 -0.058859
C120  C     C_1   0.741186 0.054091 0.097509 -0.058872
C121  C     C_1   0.258810 0.054092 0.902489 -0.058842
C122  C     C_1   0.262514 0.610224 0.901444 -0.058922
C123  C     C_1   0.737485 0.610273 0.098549 -0.058914
C124  C     C_1   0.762515 0.110244 0.901447 -0.058934
C125  C     C_1   0.237489 0.110257 0.098552 -0.058897
C126  C     C_1   0.231483 0.536844 0.138082 -0.012499
C127  C     C_1   0.768513 0.536845 0.861916 -0.012490
C128  C     C_1   0.731483 0.036842 0.138082 -0.012504
C129  C     C_3   0.507078 0.835835 0.045829 0.067365
C130  C     C_1   0.268516 0.036842 0.861917 -0.012477
C131  C     C_1   0.470086 0.833091 0.638782 -0.011403
C132  C     C_1   0.529914 0.833090 0.361218 -0.011402
C133  C     C_1   0.970086 0.333091 0.638782 -0.011403
C134  C     C_1   0.029914 0.333090 0.361218 -0.011402
C135  C     C_R   0.497360 0.748102 0.524392 -0.110588
C136  C     C_R   0.502635 0.748102 0.475608 -0.110588
C137  C     C_R   0.997365 0.248102 0.524393 -0.110587
C138  C     C_R   0.002639 0.248102 0.475608 -0.110587
C139  C     C_R   0.502675 0.926702 0.475569 -0.105077
C140  C     C_3   0.992885 0.335831 0.954181 0.067350
C141  C     C_R   0.497331 0.926702 0.524431 -0.105077
C142  C     C_R   0.002670 0.426702 0.475569 -0.105077
C143  C     C_R   0.997326 0.426703 0.524430 -0.105077
C144  C     C_R   0.494948 0.837366 0.548873 0.041580
C145  C     C_R   0.505052 0.837366 0.451127 0.041580
C146  C     C_R   0.994948 0.337366 0.548873 0.041580
C147  C     C_R   0.005052 0.337365 0.451127 0.041581
C148  C     C_1   0.515881 0.836569 0.401671 -0.056832
C149  C     C_1   0.484120 0.836570 0.598329 -0.056832
C150  C     C_1   0.015881 0.336569 0.401671 -0.056831
C151  C     C_3   0.007062 0.335833 0.045833 0.067381
C152  C     C_1   0.984120 0.336570 0.598329 -0.056832
C153  C     C_1   0.265044 0.631917 0.638010 -0.017713
C154  C     C_1   0.734955 0.631917 0.361990 -0.017712
C155  C     C_1   0.765045 0.131918 0.638010 -0.017713
C156  C     C_1   0.234955 0.131917 0.361990 -0.017711
C157  C     C_R   0.208428 0.629763 0.523858 -0.113219
C158  C     C_R   0.791571 0.629766 0.476142 -0.113220
C159  C     C_R   0.708429 0.129765 0.523857 -0.113220
C160  C     C_R   0.291570 0.129770 0.476143 -0.113220
C161  C     C_R   0.274615 0.674001 0.815099 0.543775
C162  C     C_3   0.503835 0.728937 0.027042 -0.212719
C163  C     C_R   0.725386 0.674000 0.184901 0.543768
C164  C     C_R   0.774614 0.174001 0.815099 0.543770
C165  C     C_R   0.225386 0.173999 0.184902 0.543773
C166  C     C_R   0.205989 0.621281 0.475232 -0.116973
C167  C     C_R   0.794010 0.621284 0.524768 -0.116974
C168  C     C_R   0.705989 0.121284 0.475232 -0.116973
C169  C     C_R   0.294009 0.121289 0.524768 -0.116973
C170  C     C_R   0.295367 0.529354 0.476246 0.008360
C171  C     C_R   0.704633 0.529354 0.523755 0.008360
C172  C     C_R   0.795367 0.029354 0.476245 0.008360
Cr1   Cr    Cr6+3 0.250680 0.837130 0.748990 1.030723
Cr2   Cr    Cr6+3 0.623910 0.707720 0.250330 1.032668
Cr3   Cr    Cr6+3 0.876090 0.207720 0.749670 1.032666
Cr4   Cr    Cr6+3 0.123910 0.207720 0.250330 1.032671
Cr5   Cr    Cr6+3 0.749320 0.837130 0.251010 1.030720
Cr6   Cr    Cr6+3 0.750680 0.337130 0.748990 1.030721
Cr7   Cr    Cr6+3 0.249320 0.337130 0.251010 1.030722
Cr8   Cr    Cr6+3 0.378160 0.960100 0.750430 1.030731
Cr9   Cr    Cr6+3 0.621840 0.960100 0.249570 1.030727
Cr10  Cr    Cr6+3 0.878160 0.460100 0.750430 1.030727
Cr11  Cr    Cr6+3 0.121840 0.460100 0.249570 1.030728
Cr12  Cr    Cr6+3 0.376090 0.707720 0.749670 1.032667
H1    H     H_    0.452614 0.966990 0.045541 0.121172
H2    H     H_    0.505344 0.678650 0.457046 0.102584
H3    H     H_    0.994655 0.178650 0.542955 0.102585
H4    H     H_    0.005352 0.178649 0.457047 0.102583
H5    H     H_    0.505411 0.996053 0.456945 0.107818
H6    H     H_    0.494600 0.996053 0.543055 0.107818
H7    H     H_    0.005402 0.496053 0.456944 0.107817
H8    H     H_    0.994591 0.496053 0.543054 0.107817
H9    H     H_    0.175120 0.669346 0.541955 0.114053
H10   H     H_    0.824879 0.669350 0.458045 0.114051
H11   H     H_    0.675121 0.169349 0.541954 0.114052
H12   H     H_    0.547853 0.966379 0.954414 0.121076
H13   H     H_    0.324877 0.169357 0.458046 0.114052
H14   H     H_    0.170110 0.652813 0.456279 0.115351
H15   H     H_    0.829889 0.652817 0.543720 0.115350
H16   H     H_    0.670111 0.152816 0.456279 0.115350
H17   H     H_    0.329886 0.152824 0.543721 0.115351
H18   H     H_    0.333187 0.509202 0.545043 0.108724
H19   H     H_    0.666813 0.509199 0.454958 0.108724
H20   H     H_    0.833186 0.009201 0.545043 0.108724
H21   H     H_    0.166815 0.009195 0.454957 0.108724
H22   H     H_    0.439363 0.966424 0.965534 0.122843
H23   H     H_    0.952785 0.467219 0.045524 0.121206
H24   H     H_    0.561097 0.965812 0.034419 0.122723
H25   H     H_    0.939528 0.466650 0.965518 0.122883
H26   H     H_    0.061267 0.465571 0.034406 0.122644
H27   H     H_    0.585764 0.851998 0.950458 0.108803
H28   H     H_    0.414277 0.853040 0.049541 0.108783
H29   H     H_    0.085771 0.351608 0.950460 0.108799
H30   H     H_    0.914285 0.353436 0.049543 0.108783
H31   H     H_    0.598229 0.850812 0.030416 0.104821
H32   H     H_    0.401808 0.851839 0.969583 0.104825
H33   H     H_    0.098233 0.350407 0.030417 0.104809
H34   H     H_    0.048020 0.466148 0.954402 0.121021
H35   H     H_    0.901816 0.352223 0.969584 0.104836
H36   H     H_    0.455850 0.688810 0.963672 0.121110
H37   H     H_    0.543576 0.688386 0.036392 0.121362
H38   H     H_    0.955630 0.188968 0.963696 0.121143
H39   H     H_    0.043349 0.188222 0.036420 0.121361
H40   H     H_    0.531731 0.688900 0.956441 0.119856
H41   H     H_    0.467697 0.689337 0.043623 0.119643
H42   H     H_    0.031511 0.188738 0.956468 0.119862
H43   H     H_    0.967471 0.189503 0.043648 0.119659
H44   H     H_    0.318302 0.708878 0.968878 0.098116
H45   H     H_    0.198795 0.472624 0.944574 0.102239
H46   H     H_    0.682572 0.710269 0.031095 0.098150
H47   H     H_    0.817923 0.209485 0.968891 0.098107
H48   H     H_    0.182408 0.209995 0.031102 0.098191
H49   H     H_    0.309030 0.686274 0.054369 0.101987
H50   H     H_    0.691821 0.687608 0.945606 0.102032
H51   H     H_    0.808658 0.186854 0.054381 0.101988
H52   H     H_    0.191661 0.187346 0.945613 0.102056
H53   H     H_    0.189858 0.449693 0.030003 0.097888
H54   H     H_    0.809214 0.448409 0.970003 0.097947
H55   H     H_    0.690260 0.949127 0.029999 0.097878
H56   H     H_    0.800305 0.471401 0.055433 0.102279
H57   H     H_    0.309402 0.948655 0.970003 0.098005
H58   H     H_    0.409281 0.565245 0.481060 0.102229
H59   H     H_    0.486282 0.471535 0.443143 0.102491
H60   H     H_    0.463337 0.327321 0.393036 0.111252
H61   H     H_    0.362817 0.275986 0.381349 0.122619
H62   H     H_    0.285316 0.367377 0.419683 0.119976
H63   H     H_    0.590718 0.565241 0.518941 0.102231
H64   H     H_    0.513718 0.471527 0.556859 0.102492
H65   H     H_    0.536665 0.327313 0.606965 0.111252
H66   H     H_    0.637185 0.275981 0.618651 0.122619
H67   H     H_    0.699188 0.972084 0.944569 0.102235
H68   H     H_    0.714686 0.367375 0.580317 0.119976
H69   H     H_    0.909281 0.065243 0.481060 0.102231
H70   H     H_    0.986282 0.971530 0.443142 0.102491
H71   H     H_    0.963335 0.827316 0.393037 0.111252
H72   H     H_    0.862815 0.775983 0.381350 0.122619
H73   H     H_    0.785314 0.867376 0.419684 0.119976
H74   H     H_    0.090718 0.065230 0.518939 0.102228
H75   H     H_    0.013719 0.971511 0.556857 0.102493
H76   H     H_    0.036669 0.827301 0.606964 0.111252
H77   H     H_    0.137190 0.775977 0.618652 0.122621
H78   H     H_    0.300487 0.971634 0.055433 0.102313
H79   H     H_    0.214689 0.867375 0.580318 0.119976
H80   H     H_    0.494647 0.678650 0.542954 0.102584
O1    O     O_R   0.237900 0.735050 0.799950 -0.505260
O2    O     O_R   0.566580 0.739640 0.301090 -0.506118
O3    O     O_R   0.933420 0.239640 0.698910 -0.506114
O4    O     O_R   0.066580 0.239640 0.301090 -0.506118
O5    O     O_R   0.323550 0.666510 0.701520 -0.493223
O6    O     O_R   0.676450 0.666510 0.298480 -0.493226
O7    O     O_R   0.823550 0.166510 0.701520 -0.493224
O8    O     O_R   0.176450 0.166510 0.298480 -0.493225
O9    O     O_3   0.334980 0.834990 0.749700 -0.252177
O10   O     O_3   0.665020 0.834990 0.250300 -0.252175
O11   O     O_3   0.834980 0.334990 0.749700 -0.252177
O12   O     O_R   0.762100 0.735050 0.200050 -0.505261
O13   O     O_3   0.165020 0.334990 0.250300 -0.252175
O14   O     O_R   0.256160 0.936210 0.796950 -0.493699
O15   O     O_R   0.743840 0.936210 0.203050 -0.493700
O16   O     O_R   0.756160 0.436210 0.796950 -0.493700
O17   O     O_R   0.243840 0.436210 0.203050 -0.493697
O18   O     O_R   0.333710 0.029860 0.801630 -0.506447
O19   O     O_R   0.666290 0.029860 0.198370 -0.506449
O20   O     O_R   0.833710 0.529860 0.801630 -0.506448
O21   O     O_R   0.166290 0.529860 0.198370 -0.506448
O22   O     O_R   0.425340 0.901920 0.798280 -0.495479
O23   O     O_R   0.737900 0.235050 0.799950 -0.505261
O24   O     O_R   0.574660 0.901920 0.201720 -0.495480
O25   O     O_R   0.925340 0.401920 0.798280 -0.495481
O26   O     O_R   0.074660 0.401920 0.201720 -0.495481
O27   O     O_R   0.433530 0.738890 0.801610 -0.506769
O28   O     O_R   0.566470 0.738890 0.198390 -0.506766
O29   O     O_R   0.933530 0.238890 0.801610 -0.506767
O30   O     O_R   0.066470 0.238890 0.198390 -0.506764
O31   O     O_R   0.323650 0.665810 0.796720 -0.494868
O32   O     O_R   0.676350 0.665810 0.203280 -0.494863
O33   O     O_R   0.823650 0.165810 0.796720 -0.494868
O34   O     O_R   0.262100 0.235050 0.200050 -0.505259
O35   O     O_R   0.176350 0.165810 0.203280 -0.494863
O36   O     O_R   0.237790 0.735800 0.697250 -0.515510
O37   O     O_R   0.762210 0.735800 0.302750 -0.515509
O38   O     O_R   0.737790 0.235800 0.697250 -0.515509
O39   O     O_R   0.262210 0.235800 0.302750 -0.515510
O40   O     O_R   0.256050 0.936910 0.701750 -0.494745
O41   O     O_R   0.743950 0.936910 0.298250 -0.494745
O42   O     O_R   0.756050 0.436910 0.701750 -0.494744
O43   O     O_R   0.243950 0.436910 0.298250 -0.494747
O44   O     O_R   0.333600 0.030610 0.698930 -0.508116
O45   O     O_R   0.425240 0.902610 0.703070 -0.495683
O46   O     O_R   0.666400 0.030610 0.301070 -0.508116
O47   O     O_R   0.833600 0.530610 0.698930 -0.508117
O48   O     O_R   0.166400 0.530610 0.301070 -0.508115
O49   O     O_R   0.574760 0.902610 0.296930 -0.495683
O50   O     O_R   0.925240 0.402610 0.703070 -0.495683
O51   O     O_R   0.074760 0.402610 0.296930 -0.495683
O52   O     O_R   0.433420 0.739640 0.698910 -0.506114

loop_
_geom_bond_atom_site_label_1
_geom_bond_atom_site_label_2
_ccdc_geom_bond_type
C88   H46   S    
C87   C91   A    
C99   C103  A    
C163  O32   A    
C161  O31   A    
C24   C140  S    
C47   H33   S    
C96   O20   A    
C157  H9    S    
Cr12  O5    S    
Cr9   O19   S    
C23   C155  T    
Cr10  O20   S    
C50   C140  S    
C100  C104  A    
C105  C123  S    
C30   O44   A    
C54   C116  S    
C89   C106  A    
C78   H75   S    
C39   O36   A    
C33   O43   A    
C117  C126  T    
C59   C60   A    
Cr9   O46   S    
C101  H56   S    
C2    H36   S    
C86   C165  S    
C79   C161  S    
C8    C157  A    
C53   C113  S    
Cr5   O10   S    
C163  O12   A    
C31   O46   A    
C96   O16   A    
C137  C146  A    
C147  C150  S    
C13   C151  S    
C34   O45   A    
C95   C109  A    
C141  C144  A    
C98   H55   S    
C98   C102  A    
C96   C127  S    
C42   C156  S    
C166  H14   S    
C16   C20   S    
C32   O42   A    
C89   H47   S    
C56   C62   A    
C131  C149  T    
C145  C148  S    
Cr1   O14   S    
Cr12  O9    S    
C164  O23   A    
C136  H2    S    
C141  H6    S    
C72   C73   A    
C13   H43   S    
C12   C170  A    
C160  H13   S    
C40   O6    A    
C113  O27   A    
C114  O28   A    
Cr6   O38   S    
C114  O24   A    
Cr2   O10   S    
C9    C158  A    
C31   O41   A    
C46   C53   T    
C116  O26   A    
Cr3   O33   S    
C15   C172  A    
C38   C134  S    
C42   O8    A    
C40   O37   A    
Cr3   O11   S    
Cr4   O4    S    
C43   C118  S    
Cr8   O45   S    
C87   H44   S    
C85   O19   A    
C106  C124  S    
C21   C153  T    
Cr10  O47   S    
C44   C48   S    
Cr5   O12   S    
Cr6   O11   S    
C81   H77   S    
Cr4   O35   S    
C121  C130  T    
C112  C121  S    
C2    C162  S    
C6    C172  A    
C159  H11   S    
Cr8   O9    S    
C4    C170  A    
C100  H45   S    
Cr6   O42   S    
C36   C132  S    
C78   C80   A    
C104  C122  S    
C11   C25   S    
C95   H53   S    
C58   H58   S    
Cr9   O24   S    
C16   C169  A    
C63   C69   A    
C161  O1    A    
Cr11  O48   S    
C85   O15   A    
C66   C67   A    
C135  H80   S    
C25   C156  T    
C90   H48   S    
C43   H32   S    
Cr12  O31   S    
Cr11  O13   S    
C47   C50   S    
C42   O39   A    
C102  H67   S    
C76   C82   A    
C50   H29   S    
C45   H25   S    
C138  H4    S    
C5    C9    A    
C29   C30   S    
C26   C33   S    
C162  H37   S    
C2    H40   S    
C19   C28   T    
C164  O33   A    
C51   H30   S    
C65   H64   S    
C34   C131  S    
Cr1   O9    S    
Cr8   O18   S    
Cr9   O49   S    
C56   C170  S    
C142  C147  A    
C72   H70   S    
C14   C171  A    
C110  C119  S    
C5    H19   S    
C41   O38   A    
C52   C114  S    
C91   H49   S    
C37   O50   A    
C90   C108  A    
C71   C72   A    
C34   O52   A    
C88   C105  A    
C139  C141  A    
C92   C110  A    
Cr3   O29   S    
C57   C151  S    
C49   H28   S    
C94   C112  A    
C56   C58   A    
C41   O7    A    
Cr10  O25   S    
C89   C93   A    
C61   C62   A    
C63   C64   A    
C49   H1    S    
Cr1   O40   S    
C70   C75   A    
C167  H15   S    
C85   C128  S    
C3    C16   A    
C39   O5    A    
C41   C155  S    
C54   C57   T    
C119  C127  T    
C6    H20   S    
C143  C146  A    
Cr8   O44   S    
C115  O29   A    
C73   C74   A    
C7    H21   S    
Cr1   O1    S    
C55   C68   T    
C2    C118  S    
C109  C117  S    
C135  C136  A    
Cr2   O6    S    
C77   C78   A    
C15   C19   S    
C116  O30   A    
C158  H10   S    
Cr2   O32   S    
C39   C153  S    
C107  O21   A    
C3    C7    A    
C62   H62   S    
C46   C118  S    
C70   C172  S    
C71   H69   S    
C75   H73   S    
C12   C17   S    
C158  C167  A    
C160  C169  A    
C70   C71   A    
C51   C151  S    
C133  C152  T    
C13   H39   S    
Cr7   O43   S    
C11   C160  A    
C90   C94   A    
C79   C122  T    
C60   H60   S    
C38   O51   A    
Cr4   O30   S    
Cr11  O26   S    
C1    C130  S    
Cr3   O3    S    
C95   C100  A    
C58   C59   A    
C45   C140  S    
C60   C61   A    
C165  O35   A    
C113  O22   A    
C63   C171  S    
C48   H27   S    
Cr12  O27   S    
C93   C111  A    
C47   C151  S    
Cr6   O23   S    
C83   C163  S    
Cr7   O17   S    
C168  H16   S    
C27   C32   S    
C28   C31   S    
Cr12  O52   S    
C139  H5    S    
C6    C10   A    
C120  C128  T    
C24   H38   S    
C64   C65   A    
C44   C129  S    
C1    O14   A    
C55   C115  S    
C103  H78   S    
C51   H23   S    
Cr8   O22   S    
C169  H17   S    
C87   C104  A    
C67   H66   S    
Cr11  O21   S    
C36   O49   A    
Cr10  O50   S    
C35   C52   T    
C142  C143  A    
C83   C123  T    
C14   C167  A    
C10   C159  A    
C137  H3    S    
C44   H31   S    
C14   C18   S    
C4    C8    A    
C81   C82   A    
C93   H51   S    
C7    C11   A    
C97   H54   S    
C17   C26   T    
C12   C166  A    
C1    O18   A    
C9    C22   S    
C45   C51   S    
C61   H61   S    
C134  C150  T    
Cr1   O36   S    
C44   H24   S    
C159  C168  A    
C59   H59   S    
C37   O3    A    
C38   O4    A    
C69   H68   S    
C73   H71   S    
C4    H18   S    
C88   C92   A    
C115  O25   A    
C143  H8    S    
C103  C108  A    
C80   H76   S    
Cr11  O51   S    
C108  C125  S    
C35   C129  S    
C136  C145  A    
C84   C164  S    
Cr2   O2    S    
C66   H65   S    
Cr2   O28   S    
C48   H12   S    
C86   C125  T    
C40   C154  S    
C107  O17   A    
C24   H42   S    
Cr9   O10   S    
C20   C29   T    
C101  C105  A    
C74   C75   A    
C132  C148  T    
C76   C77   A    
C165  O34   A    
C43   C49   S    
C48   C118  S    
C49   C129  S    
C50   H34   S    
C13   C24   S    
C111  C120  S    
C67   C69   A    
C99   H57   S    
C144  C149  S    
C138  C147  A    
Cr5   O37   S    
C8    C21   S    
C5    C171  A    
Cr7   O39   S    
C3    C76   S    
C146  C152  S    
C30   O40   A    
C135  C144  A    
C77   H74   S    
C45   H35   S    
C37   C133  S    
C15   C168  A    
Cr3   O7    S    
C162  H41   S    
Cr4   O8    S    
C22   C154  T    
C139  C145  A    
C98   C111  A    
C36   O2    A    
Cr7   O34   S    
C18   C27   T    
C107  C126  S    
C80   C81   A    
C157  C166  A    
C99   C112  A    
C10   C23   S    
C84   C124  T    
C137  C138  A    
C32   O47   A    
C91   C109  A    
C33   O48   A    
Cr4   O13   S    
C97   C110  A    
C94   H52   S    
C64   H63   S    
C142  H7    S    
C92   H50   S    
C129  C162  S    
C102  C106  A    
Cr5   O41   S    
C97   C101  A    
C68   C140  S    
Cr5   O15   S    
Cr6   O16   S    
Cr7   O13   S    
C65   C66   A    
C47   H26   S    
C82   H79   S    
C74   H72   S    
Cr10  O11   S    
C43   H22   S    
