data_mof_unit_62510.cif
_audit_creation_date              2012-10-26T17:41:58-0400
_audit_creation_method            fapswitch 2.2
_symmetry_space_group_name_H-M    P1
_symmetry_Int_Tables_number       1
_space_group_crystal_system       triclinic
_cell_length_a                    21.730932
_cell_length_b                    21.745709
_cell_length_c                    22.33991
_cell_angle_alpha                 119.582764
_cell_angle_beta                  119.681734
_cell_angle_gamma                 89.698526
_cell_volume                      7565.78836761

loop_
_atom_site_label
_atom_site_type_symbol
_atom_type_description
_atom_site_fract_x
_atom_site_fract_y
_atom_site_fract_z
_atom_type_partial_charge
C1    C     C_R   0.499769 0.118492 0.499750 0.543676
C2    C     C_R   0.498860 0.183695 0.497720 0.023463
C3    C     C_R   0.512622 0.189415 0.444886 -0.150743
C4    C     C_R   0.580210 0.079971 0.659913 0.547912
C5    C     C_R   0.511951 0.253968 0.444282 -0.151256
C6    C     C_R   0.500146 0.314230 0.498642 0.021724
C7    C     C_R   0.487982 0.306445 0.550195 0.020240
C8    C     C_3   0.472597 0.344220 0.615569 -0.271994
C9    C     C_3   0.470847 0.272657 0.614239 -0.269344
C10   C     C_3   0.207000 0.764966 0.047405 -0.212853
C11   C     C_3   0.315119 0.722238 0.048724 -0.209272
C12   C     C_3   0.712755 0.295442 0.047879 -0.226635
C13   C     C_3   0.266833 0.673765 0.951717 -0.216107
C14   C     C_1   0.124927 0.625349 0.749742 -0.028560
C15   C     C_3   0.290631 0.791806 0.082613 0.060392
C16   C     C_R   0.499315 0.880424 0.498171 0.590920
C17   C     C_3   0.158710 0.716496 0.950394 -0.213715
C18   C     C_3   0.208409 0.709266 0.917430 0.064571
C19   C     C_3   0.250593 0.788637 0.952459 -0.211845
C20   C     C_3   0.298876 0.837109 0.049461 -0.217372
C21   C     C_1   0.162493 0.663159 0.825183 -0.073359
C22   C     C_1   0.336603 0.837913 0.174843 -0.062745
C23   C     C_3   0.793554 0.291531 0.082838 0.039438
C24   C     C_1   0.374419 0.875627 0.250273 0.008452
C25   C     C_R   0.516504 0.816507 0.566565 -0.016051
C26   C     C_R   0.499555 0.812610 0.495645 -0.003240
C27   C     C_R   0.494438 0.746038 0.429326 0.024337
C28   C     C_R   0.419794 0.920467 0.340080 0.591994
C29   C     C_R   0.497413 0.683233 0.433022 -0.150742
C30   C     C_R   0.505385 0.686148 0.500819 -0.015305
C31   C     C_R   0.519707 0.754582 0.569347 0.025025
C32   C     C_3   0.483895 0.774546 0.615913 -0.261643
C33   C     C_3   0.480345 0.842820 0.612834 -0.272525
C34   C     C_3   0.790169 0.208914 0.048175 -0.207217
C35   C     C_R   0.881699 0.500287 0.500315 0.545741
C36   C     C_R   0.920463 0.419915 0.340122 0.563746
C37   C     C_R   0.119139 0.500020 0.500618 0.555371
C38   C     C_R   0.080153 0.580120 0.659922 0.545261
C39   C     C_R   0.619163 0.500267 0.500430 0.550392
C40   C     C_3   0.664425 0.247116 0.950878 -0.242565
C41   C     C_R   0.499910 0.380984 0.499726 0.552416
C42   C     C_R   0.380614 0.499597 0.499532 0.549220
C43   C     C_R   0.500708 0.619241 0.500225 0.549561
C44   C     C_R   0.757013 0.515640 0.452699 0.015065
C45   C     C_3   0.740002 0.160159 0.951246 -0.208039
C46   C     C_R   0.816525 0.501297 0.502466 0.020310
C47   C     C_R   0.810486 0.486497 0.554506 -0.150968
C48   C     C_R   0.745942 0.487255 0.555197 -0.152571
C49   C     C_R   0.686021 0.500222 0.501710 0.019867
C50   C     C_R   0.694137 0.513519 0.451017 0.012511
C51   C     C_3   0.656681 0.530164 0.386600 -0.264194
C52   C     C_3   0.778634 0.272490 0.953296 -0.018459
C53   C     C_3   0.728255 0.531803 0.387848 -0.266677
C54   C     C_R   0.181841 0.482353 0.429929 -0.002012
C55   C     C_R   0.185115 0.497960 0.499973 0.003450
C56   C     C_1   0.839081 0.337240 0.175015 -0.062399
C57   C     C_R   0.250493 0.502130 0.565154 -0.152689
C58   C     C_R   0.314785 0.501842 0.564861 -0.157461
C59   C     C_R   0.313151 0.495086 0.498048 -0.002932
C60   C     C_R   0.244624 0.480132 0.428350 0.042802
C61   C     C_3   0.224079 0.515814 0.381094 -0.076522
C62   C     C_3   0.154128 0.517753 0.382812 -0.083259
C63   C     C_3   0.827666 0.319752 0.050773 -0.207296
C64   C     C_1   0.876220 0.374814 0.250398 -0.004339
C65   C     C_3   0.711295 0.209136 0.917488 0.038301
C66   C     C_2   0.825301 0.244093 0.918876 0.571739
C67   C     C_1   0.664138 0.162768 0.825110 -0.055929
C68   C     C_2   0.480899 0.737780 0.353199 0.578205
C69   C     C_2   0.210705 0.466951 0.296198 0.636708
C70   C     C_2   0.078868 0.469231 0.300731 0.613449
C71   C     C_1   0.625743 0.124945 0.749691 -0.008779
C72   C     C_R   0.485739 0.243569 0.548441 0.021264
Cu1   Cu    Cu3+1 0.438190 1.000000 0.500020 0.949534
Cu2   Cu    Cu3+1 0.561810 0.000000 0.499980 0.997763
Cu3   Cu    Cu3+1 0.000200 0.561800 0.500000 0.967757
Cu4   Cu    Cu3+1 0.000170 0.438200 0.500000 0.954825
Cu5   Cu    Cu3+1 0.541330 0.541310 0.582630 0.928034
Cu6   Cu    Cu3+1 0.458770 0.458690 0.417370 0.986715
H1    H     H_    0.713642 0.354259 0.071442 0.122121
H2    H     H_    0.414817 0.241073 0.589957 0.148622
H3    H     H_    0.127922 0.660255 0.926510 0.123069
H4    H     H_    0.199309 0.731890 0.069892 0.130132
H5    H     H_    0.309463 0.688370 0.071251 0.133559
H6    H     H_    0.238084 0.616721 0.927863 0.122923
H7    H     H_    0.303634 0.668186 0.929350 0.116116
H8    H     H_    0.281323 0.887343 0.072526 0.118381
H9    H     H_    0.358448 0.856866 0.073471 0.117325
H10   H     H_    0.209959 0.815699 0.929157 0.121341
H11   H     H_    0.187720 0.813840 0.070443 0.120914
H12   H     H_    0.615556 0.204149 0.926836 0.124320
H13   H     H_    0.116347 0.742204 0.927060 0.120649
H14   H     H_    0.287087 0.785220 0.930104 0.117009
H15   H     H_    0.490143 0.631024 0.381302 0.173893
H16   H     H_    0.428029 0.733767 0.578942 0.134763
H17   H     H_    0.522691 0.788476 0.680107 0.143731
H18   H     H_    0.422379 0.841735 0.574089 0.155020
H19   H     H_    0.855583 0.475313 0.594945 0.131340
H20   H     H_    0.742324 0.476459 0.595973 0.130457
H21   H     H_    0.606912 0.482809 0.326951 0.149739
H22   H     H_    0.754931 0.310193 0.934151 0.107318
H23   H     H_    0.687036 0.275422 0.070095 0.122326
H24   H     H_    0.647724 0.585419 0.411544 0.150244
H25   H     H_    0.719839 0.485096 0.329095 0.134271
H26   H     H_    0.760370 0.587899 0.412958 0.153641
H27   H     H_    0.252789 0.509204 0.617823 0.119709
H28   H     H_    0.365910 0.508794 0.617536 0.132045
H29   H     H_    0.264441 0.572234 0.419329 0.071049
H30   H     H_    0.155142 0.575555 0.421678 0.116690
H31   H     H_    0.831237 0.379267 0.075376 0.099574
H32   H     H_    0.885992 0.317896 0.076040 0.177543
H33   H     H_    0.691642 0.117948 0.929135 0.105714
H34   H     H_    0.847397 0.204364 0.070354 0.159627
H35   H     H_    0.771181 0.128377 0.926454 0.175162
H36   H     H_    0.767677 0.187551 0.071925 0.115351
H37   H     H_    0.642049 0.282797 0.928074 0.115578
H38   H     H_    0.374999 0.739828 0.072726 0.121600
H39   H     H_    0.899015 0.188075 0.914976 0.349676
H40   H     H_    0.487266 0.681464 0.253682 0.337467
H41   H     H_    0.517087 0.896079 0.675250 0.135729
H42   H     H_    0.211382 0.370537 0.211916 0.338913
H43   H     H_    0.975420 0.464313 0.221830 0.330955
H44   H     H_    0.522886 0.144051 0.403737 0.126626
H45   H     H_    0.521860 0.257284 0.402816 0.127731
H46   H     H_    0.520557 0.393643 0.674905 0.146557
H47   H     H_    0.417456 0.353684 0.591481 0.138327
H48   H     H_    0.518101 0.280717 0.672613 0.138286
O1    O     O_R   0.447800 0.090170 0.500010 -0.514221
O2    O     O_R   0.555400 0.465140 0.430260 -0.513958
O3    O     O_R   0.534920 0.444720 0.569790 -0.513492
O4    O     O_R   0.552190 0.090170 0.499980 -0.514391
O5    O     O_R   0.465190 0.374940 0.430230 -0.506494
O6    O     O_R   0.444700 0.534860 0.569740 -0.525379
O7    O     O_R   0.374970 0.465080 0.430180 -0.465841
O8    O     O_R   0.534910 0.625060 0.569770 -0.505959
O9    O     O_R   0.465180 0.555280 0.430210 -0.511468
O10   O     O_R   0.508090 0.060280 0.620580 -0.518003
O11   O     O_R   0.612480 0.060280 0.620550 -0.491578
O12   O     O_R   0.909990 0.447840 0.500030 -0.514194
O13   O     O_R   0.447810 0.909830 0.500020 -0.509016
O14   O     O_R   0.552200 0.909830 0.499990 -0.488302
O15   O     O_R   0.387520 0.939720 0.379450 -0.502657
O16   O     O_R   0.491910 0.939720 0.379420 -0.488341
O17   O     O_R   0.910020 0.552220 0.500020 -0.510446
O18   O     O_2   0.823939 0.257714 0.871342 -0.504619
O19   O     O_R   0.870624 0.203505 0.942097 -0.709141
O20   O     O_2   0.451881 0.777875 0.331842 -0.519308
O21   O     O_R   0.499701 0.682190 0.304220 -0.712992
O22   O     O_2   0.189873 0.488837 0.250489 -0.495216
O23   O     O_R   0.939920 0.491910 0.379430 -0.490056
O24   O     O_R   0.222297 0.397485 0.269960 -0.647831
O25   O     O_2   0.065519 0.401936 0.255881 -0.484234
O26   O     O_R   0.023824 0.501976 0.277243 -0.682109
O27   O     O_R   0.939890 0.387530 0.379440 -0.502338
O28   O     O_R   0.090380 0.552160 0.499970 -0.507511
O29   O     O_R   0.090350 0.447780 0.499980 -0.500928
O30   O     O_R   0.060480 0.612470 0.620560 -0.505417
O31   O     O_R   0.060450 0.508090 0.620570 -0.508911
O32   O     O_R   0.625130 0.534920 0.569820 -0.511319

loop_
_geom_bond_atom_site_label_1
_geom_bond_atom_site_label_2
_ccdc_geom_bond_type
C25   C31   A    
C32   H16   S    
C12   H1    S    
C63   H31   S    
C27   C29   A    
C18   C21   S    
C34   H34   S    
Cu1   Cu2   S    
C37   O29   A    
C57   H27   S    
C19   C20   S    
C17   H13   S    
C9    C72   S    
C38   O30   A    
Cu6   O5    S    
Cu6   O2    S    
C68   O20   D    
C7    C8    S    
C54   C60   A    
Cu5   Cu6   S    
C41   O3    A    
C51   H24   S    
C13   H6    S    
C26   C27   A    
C13   C18   S    
C42   O7    A    
C69   O24   S    
C14   C21   T    
H40   O21   S    
C53   H25   S    
C18   C19   S    
C10   C15   S    
C35   O12   A    
C30   C31   A    
C36   O23   A    
C40   H37   S    
C66   O18   D    
C10   C17   S    
C61   C69   S    
C20   H9    S    
Cu4   O27   S    
C62   C70   S    
H39   O19   S    
C1    C2    S    
C66   O19   S    
C19   H14   S    
C4    O11   A    
C46   C47   A    
C11   C15   S    
Cu3   O30   S    
C15   C22   S    
C31   C32   S    
C10   H11   S    
C8    C9    S    
C65   C67   S    
C6    C41   S    
C20   H8    S    
C56   C64   T    
C27   C68   S    
Cu6   O9    S    
C67   C71   T    
C3    H44   S    
Cu5   O32   S    
C4    O10   A    
C23   C63   S    
Cu2   O16   S    
C59   C60   A    
C16   C26   S    
C16   O14   A    
C2    C72   A    
C44   C53   S    
C44   C46   A    
C36   O27   A    
C50   C51   S    
C51   H21   S    
C15   C20   S    
Cu2   O11   S    
Cu4   O31   S    
C1    O1    A    
C23   C56   S    
C70   O26   S    
C19   H10   S    
C7    C72   A    
C41   O5    A    
C8    H46   S    
Cu1   O15   S    
Cu1   O13   S    
C11   H5    S    
C25   C26   A    
Cu1   O1    S    
Cu2   O14   S    
C10   H4    S    
C60   C61   S    
C58   H28   S    
C9    H2    S    
C12   C40   S    
C43   O8    A    
Cu3   Cu4   S    
C29   C30   A    
C14   C38   S    
C47   C48   A    
C12   C23   S    
Cu1   O10   S    
C23   C34   S    
C35   O17   A    
C17   C18   S    
C34   C45   S    
Cu5   O3    S    
C43   O9    A    
C11   H38   S    
C68   O21   S    
Cu3   O17   S    
C48   C49   A    
C39   C49   S    
C1    O4    A    
C40   C65   S    
Cu2   O4    S    
C39   O32   A    
C45   C65   S    
C22   C24   T    
C30   C43   S    
C16   O13   A    
C28   O16   A    
Cu5   O8    S    
C33   H18   S    
C52   C66   S    
C44   C50   A    
C54   C55   A    
C39   O2    A    
C37   O28   A    
C70   O25   D    
C24   C28   S    
C38   O31   A    
C3    C5    A    
C52   C63   S    
C42   C59   S    
C45   H33   S    
C33   H41   S    
C6    C7    A    
Cu4   O12   S    
C34   H36   S    
C48   H20   S    
C5    H45   S    
Cu4   O29   S    
H42   O24   S    
C9    H48   S    
C47   H19   S    
H43   O26   S    
C40   H12   S    
C32   C33   S    
C63   H32   S    
C55   C57   A    
C2    C3    A    
C58   C59   A    
C12   H23   S    
C29   H15   S    
C11   C13   S    
Cu3   O28   S    
C57   C58   A    
C5    C6    A    
Cu3   O23   S    
C52   H22   S    
C17   H3    S    
C61   C62   S    
C61   H29   S    
Cu6   O7    S    
C37   C55   S    
C45   H35   S    
C8    H47   S    
C32   H17   S    
C62   H30   S    
C49   C50   A    
C13   H7    S    
C69   O22   D    
C54   C62   S    
C42   O6    A    
C28   O15   A    
C53   H26   S    
C51   C53   S    
C36   C64   S    
C35   C46   S    
Cu5   O6    S    
C4    C71   S    
C52   C65   S    
C25   C33   S    
