data_mof_unit_47038.cif
_audit_creation_date              2012-12-11T17:37:51-0500
_audit_creation_method            fapswitch 2.2
_symmetry_space_group_name_H-M    P1
_symmetry_Int_Tables_number       1
_space_group_crystal_system       triclinic
_cell_length_a                    12.999792
_cell_length_b                    13.048027
_cell_length_c                    15.398465
_cell_angle_alpha                 116.794185
_cell_angle_beta                  63.893961
_cell_angle_gamma                 97.11689
_cell_volume                      2084.56703339

loop_
_atom_site_label
_atom_site_type_symbol
_atom_type_description
_atom_site_fract_x
_atom_site_fract_y
_atom_site_fract_z
_atom_type_partial_charge
C1    C     C_R   0.998395 0.832439 0.056517 -0.119009
C2    C     C_R   0.303287 0.584579 0.785965 -0.087445
C3    C     C_R   0.259375 0.416110 0.047064 -0.173839
C4    C     C_R   0.679313 0.477719 0.218788 -0.078884
C5    C     C_R   0.053911 0.274425 0.685016 -0.079510
C6    C     C_R   0.362340 0.434706 0.975187 0.181046
C7    C     C_R   0.046421 0.165737 0.682465 0.121034
C8    C     C_R   0.303897 0.543457 0.684959 0.072638
C9    C     C_R   0.998493 0.156661 0.054072 0.036101
C10   C     C_R   0.455353 0.768124 0.149381 -0.112795
C11   C     C_R   0.356978 0.803949 0.247930 -0.119731
C12   C     C_R   0.672703 0.557734 0.319057 0.023916
C13   C     C_R   0.289848 0.906394 0.290297 0.120774
C14   C     C_R   0.321527 0.971370 0.232035 -0.206466
C15   C     C_R   0.420112 0.935601 0.133764 -0.093805
C16   C     C_R   0.756714 0.516685 0.890945 -0.166799
C17   C     C_R   0.487157 0.834157 0.092489 -0.097097
C18   C     C_R   0.177179 0.033480 0.490868 -0.124441
C19   C     C_R   0.075895 0.054230 0.587857 0.045943
C20   C     C_R   0.993032 0.972644 0.589124 0.002165
C21   C     C_R   0.999285 0.887851 0.493505 -0.260926
C22   C     C_R   0.089097 0.875436 0.396174 0.086321
C23   C     C_R   0.664300 0.454433 0.921512 0.030777
C24   C     C_R   0.183469 0.941441 0.393042 -0.092072
C25   C     C_R   0.889698 0.915214 0.741757 0.163048
C26   C     C_R   0.787565 0.919882 0.830354 -0.184162
C27   C     C_R   0.688144 0.984763 0.863493 -0.141682
C28   C     C_R   0.020751 0.695675 0.298689 -0.180367
C29   C     C_R   0.688600 0.045249 0.808306 -0.108488
C30   C     C_R   0.788403 0.040621 0.719272 -0.163867
C31   C     C_R   0.889648 0.976833 0.685562 0.054914
C32   C     C_R   0.870013 0.401344 0.380776 -0.141791
C33   C     C_R   0.752903 0.427292 0.419025 -0.063283
C34   C     C_R   0.075119 0.792620 0.301870 0.084529
C35   C     C_R   0.702982 0.540752 0.492641 0.115834
C36   C     C_R   0.766026 0.623213 0.540020 -0.201199
C37   C     C_R   0.883316 0.596872 0.500928 -0.157642
C38   C     C_R   0.936157 0.488086 0.416967 -0.108299
C39   C     C_R   0.498380 0.579429 0.595306 -0.209519
C40   C     C_R   0.678357 0.419169 0.987635 -0.115450
C41   C     C_R   0.390832 0.562270 0.594989 0.080800
C42   C     C_R   0.375694 0.553149 0.505661 0.068787
C43   C     C_R   0.465655 0.575165 0.426250 -0.187578
C44   C     C_R   0.575491 0.579131 0.421705 0.102970
C45   C     C_R   0.338716 0.518497 0.953397 -0.040070
C46   C     C_R   0.591858 0.576041 0.505819 0.017210
C47   C     C_R   0.285137 0.376969 0.418175 0.003210
C48   C     C_R   0.182631 0.325932 0.421333 -0.279897
C49   C     C_R   0.076755 0.391569 0.488960 -0.095353
C50   C     C_R   0.072279 0.510874 0.546207 -0.127192
C51   C     C_R   0.173542 0.564819 0.536534 -0.242383
C52   C     C_R   0.095403 0.800293 0.209352 -0.136763
C53   C     C_R   0.279229 0.498467 0.480994 0.086540
C54   C     C_2   0.475519 0.392966 0.948789 -0.198589
C55   C     C_2   0.573034 0.421413 0.885252 -0.085910
C56   C     C_R   0.981885 0.180830 0.786098 -0.124846
C57   C     C_2   0.827603 0.955803 0.097425 -0.238161
C58   C     C_2   0.818731 0.041363 0.191475 -0.091151
C59   C     C_R   0.783228 0.576849 0.307787 -0.112816
C60   C     C_R   0.898101 0.747601 0.959979 -0.143580
C61   C     C_R   0.908914 0.851698 0.037367 0.140773
C62   C     C_2   0.277236 0.102904 0.491593 0.505123
C63   C     C_3   0.996131 0.846285 0.711559 -0.498134
C64   C     C_3   0.045935 0.906942 0.794415 -0.231190
C65   C     C_3   0.142786 0.832581 0.775048 -0.902601
C66   C     C_2   0.392939 0.298471 0.353359 0.464873
C67   C     C_R   0.205183 0.489899 0.689907 -0.101430
C68   C     C_2   0.588040 0.426640 0.785784 0.511233
C69   C     C_R   0.048256 0.257529 0.091718 -0.111156
C70   C     C_R   0.943241 0.175779 0.002665 -0.139369
H1    H     H_    0.027027 0.894137 0.114940 0.091797
H2    H     H_    0.506741 0.689092 0.117021 0.118390
H3    H     H_    0.332805 0.751830 0.291093 0.106574
H4    H     H_    0.609275 0.441445 0.198042 0.102477
H5    H     H_    0.268840 0.048282 0.261776 0.091264
H6    H     H_    0.443868 0.986210 0.089362 0.095297
H7    H     H_    0.927762 0.834785 0.495767 0.137570
H8    H     H_    0.785072 0.873282 0.874183 0.108215
H9    H     H_    0.610504 0.988066 0.932144 0.108768
H10   H     H_    0.611328 0.095512 0.834320 0.125210
H11   H     H_    0.787328 0.087513 0.676780 0.133072
H12   H     H_    0.961146 0.117015 0.814642 0.109069
H13   H     H_    0.028649 0.471159 0.379012 0.129100
H14   H     H_    0.781022 0.544305 0.828590 0.084285
H15   H     H_    0.910275 0.315976 0.319192 0.112448
H16   H     H_    0.703700 0.362361 0.384109 0.158387
H17   H     H_    0.727677 0.710377 0.598275 0.130277
H18   H     H_    0.934622 0.663161 0.530559 0.118790
H19   H     H_    0.514254 0.576435 0.657648 0.136201
H20   H     H_    0.453916 0.570348 0.359017 0.108178
H21   H     H_    0.183556 0.233876 0.376658 0.106048
H22   H     H_    0.997963 0.349974 0.496442 0.125594
H23   H     H_    0.172658 0.451097 0.631669 0.131838
H24   H     H_    0.989987 0.560882 0.600655 0.118129
H25   H     H_    0.008908 0.654873 0.348862 0.117193
H26   H     H_    0.168746 0.656730 0.581625 0.146310
H27   H     H_    0.474102 0.369107 0.008136 0.104809
H28   H     H_    0.768762 0.961133 0.066617 0.138477
H29   H     H_    0.872582 0.040889 0.228710 0.116216
H30   H     H_    0.635377 0.353286 0.011264 0.089210
H31   H     H_    0.146213 0.860314 0.181034 0.105214
H32   H     H_    0.809036 0.639884 0.367431 0.126304
H33   H     H_    0.833436 0.730963 0.930296 0.096495
H34   H     H_    0.086174 0.278135 0.146880 0.080391
H35   H     H_    0.397910 0.561365 0.908203 0.088994
H36   H     H_    0.342604 0.103719 0.417809 0.027846
H37   H     H_    0.113448 0.748495 0.773708 0.263247
H38   H     H_    0.218495 0.818426 0.697873 0.257381
H39   H     H_    0.169629 0.877509 0.841435 0.251615
H40   H     H_    0.081055 0.987384 0.790418 0.209892
H41   H     H_    0.977109 0.928958 0.876718 0.201444
H42   H     H_    0.971492 0.760642 0.708494 0.187399
H43   H     H_    0.063912 0.831214 0.630342 0.203273
H44   H     H_    0.392763 0.209991 0.297758 0.000460
H45   H     H_    0.881998 0.121693 0.977502 0.103909
H46   H     H_    0.655120 0.473365 0.750722 -0.017509
H47   H     H_    0.358844 0.644202 0.815848 0.075334
H48   H     H_    0.248806 0.360850 0.084970 0.099801
H49   H     H_    0.094073 0.292573 0.616371 0.099554
H50   H     H_    0.563318 0.806432 0.016243 0.091119
N1    N     N_R   0.037320 0.720000 0.995830 -0.050242
N2    N     N_R   0.824900 0.517970 0.936430 -0.034466
N3    N     N_R   0.003190 0.648180 0.211390 -0.038540
N4    N     N_R   0.774330 0.457010 0.995830 -0.041604
N5    N     N_R   0.053760 0.709130 0.151980 -0.041847
N6    N     N_R   0.853840 0.498830 0.211390 -0.041348
N7    N     N_R   0.974250 0.667320 0.936430 -0.047692
N8    N     N_R   0.225670 0.542990 0.004170 -0.054545
N9    N     N_R   0.946240 0.290870 0.848020 -0.045634
N10   N     N_R   0.146160 0.501170 0.788610 -0.041459
N11   N     N_R   0.025750 0.332680 0.063570 -0.032767
N12   N     N_R   0.962680 0.280000 0.004170 -0.037006
N13   N     N_R   0.209230 0.553860 0.848010 -0.037266
N14   N     N_R   0.175100 0.482030 0.063570 -0.042182
N15   N     N_R   0.996810 0.351820 0.788610 -0.048285
N16   N     N_R   0.790770 0.446140 0.151990 -0.048201
Ni1   Ni    Ni4+2 0.130310 0.630310 0.000000 0.217573
Ni2   Ni    Ni4+2 0.869690 0.369690 0.000000 0.224971
Ni3   Ni    Ni4+2 0.985660 0.509480 0.863750 0.214483
Ni4   Ni    Ni4+2 0.014340 0.490520 0.136250 0.221930
O1    O     O_2   0.290281 0.156881 0.574056 -0.548902
O2    O     O_2   0.482045 0.329206 0.361586 -0.589733
O3    O     O_2   0.528258 0.374751 0.739502 -0.552419

loop_
_geom_bond_atom_site_label_1
_geom_bond_atom_site_label_2
_ccdc_geom_bond_type
C25   C31   A    
N13   Ni1   S    
C6    C45   A    
C38   H13   S    
C27   C29   A    
C41   C42   A    
C37   H18   S    
C35   C36   A    
C43   C44   A    
C3    C6    A    
C55   C68   S    
C28   N3    A    
C39   C41   A    
C59   N6    A    
N15   Ni3   S    
N6    Ni4   S    
C26   C27   A    
C1    H1    S    
C57   C61   S    
C5    H49   S    
C28   H25   S    
C18   C24   A    
N4    Ni2   S    
C36   C37   A    
C9    C69   A    
N2    Ni3   S    
N1    N7    A    
C27   H9    S    
C42   C53   S    
N14   Ni4   S    
C30   C31   A    
N3    N5    A    
C32   H15   S    
C10   C17   A    
N12   Ni2   S    
C23   C40   A    
C16   H14   S    
C68   O3    D    
C15   C17   A    
C18   C19   A    
C25   C63   S    
N1    Ni1   S    
C63   H42   S    
C16   N2    A    
N11   Ni4   S    
C17   H50   S    
N9    N15   A    
C12   C59   A    
N9    Ni2   S    
C19   C20   A    
C44   C46   A    
C48   H21   S    
C54   H27   S    
C32   C38   A    
C4    C12   A    
C60   H33   S    
C66   H44   S    
C47   C66   S    
C4    H4    S    
C56   N9    A    
C51   H26   S    
C4    N16   A    
C15   H6    S    
C28   C34   A    
C13   C14   A    
C50   H24   S    
N7    Ni3   S    
C7    C56   A    
C6    C54   S    
C40   N4    A    
N10   Ni3   S    
C2    H47   S    
C45   H35   S    
C36   H17   S    
C22   C34   S    
C62   O1    D    
C52   H31   S    
C43   H20   S    
C2    N13   A    
C8    C41   S    
N16   Ni2   S    
C11   H3    S    
C5    C7    A    
C18   C62   S    
C64   H41   S    
N5    Ni1   S    
C25   C26   A    
N3    Ni4   S    
C13   C24   S    
C60   C61   A    
C51   C53   A    
N8    Ni1   S    
C37   C38   A    
C3    H48   S    
N8    N14   A    
C64   H40   S    
C47   C48   A    
C69   N11   A    
C70   N12   A    
C50   C51   A    
C26   H8    S    
C9    C70   A    
C56   H12   S    
C65   H39   S    
C68   H46   S    
C39   C46   A    
C66   O2    D    
C48   C49   A    
C16   C23   A    
C7    C19   S    
C22   C24   A    
C67   N10   A    
C42   C43   A    
C49   H22   S    
N2    N4    A    
N11   N12   A    
C69   H34   S    
C5    N15   A    
C54   C55   D    
C65   H38   S    
N6    N16   A    
C59   H32   S    
C60   N7    A    
C2    C8    A    
C58   H29   S    
N10   N13   A    
C1    C61   A    
C40   H30   S    
C52   N5    A    
C23   C55   S    
C62   H36   S    
C70   H45   S    
C34   C52   A    
C47   C53   A    
C3    N14   A    
C32   C33   A    
C30   H11   S    
C12   C44   S    
C14   H5    S    
C11   C13   A    
C57   C58   D    
C29   H10   S    
C57   H28   S    
C64   C65   S    
C33   C35   A    
C39   H19   S    
C1    N1    A    
C10   C11   A    
C29   C30   A    
C63   C64   S    
C63   H43   S    
C20   C21   A    
C8    C67   A    
C49   C50   A    
C21   H7    S    
C67   H23   S    
C14   C15   A    
C45   N8    A    
C21   C22   A    
C35   C46   S    
C65   H37   S    
C33   H16   S    
C20   C31   S    
C10   H2    S    
