data_mof_unit_40644.cif
_audit_creation_date              2012-12-10T16:32:40-0500
_audit_creation_method            fapswitch 2.2
_symmetry_space_group_name_H-M    P1
_symmetry_Int_Tables_number       1
_space_group_crystal_system       triclinic
_cell_length_a                    16.957747
_cell_length_b                    16.939498
_cell_length_c                    16.940867
_cell_angle_alpha                 65.330426
_cell_angle_beta                  66.051272
_cell_angle_gamma                 64.719033
_cell_volume                      3842.11338408

loop_
_atom_site_label
_atom_site_type_symbol
_atom_type_description
_atom_site_fract_x
_atom_site_fract_y
_atom_site_fract_z
_atom_type_partial_charge
C1    C     C_R   0.596307 0.009433 0.598367 -0.172382
C2    C     C_R   0.821708 0.560504 0.041646 0.935608
C3    C     C_R   0.433436 0.973550 0.177135 0.974005
C4    C     C_R   0.563917 0.032529 0.821435 0.935678
C5    C     C_R   0.568471 0.822278 0.025860 0.972510
C6    C     C_R   0.439462 0.178643 0.957375 0.951040
C7    C     C_R   0.032397 0.564722 0.821326 0.952473
C8    C     C_R   0.965017 0.437024 0.178503 0.938202
C9    C     C_R   0.822090 0.027934 0.566128 0.952051
C10   C     C_R   0.177476 0.971932 0.433893 0.933232
C11   C     C_R   0.551203 0.990202 0.552320 0.218583
C12   C     C_R   0.416112 0.942401 0.416214 -0.161304
C13   C     C_R   0.464088 0.956165 0.464072 0.213704
C14   C     C_R   0.031267 0.543185 0.535670 0.223465
C15   C     C_R   0.996933 0.454591 0.449653 0.226735
C16   C     C_R   0.553680 0.538413 0.012276 0.165857
C17   C     C_R   0.462459 0.447322 0.984324 0.165978
C18   C     C_R   0.520380 0.913642 0.592266 -0.163482
C19   C     C_R   0.495630 0.032427 0.424259 -0.145738
C20   C     C_R   0.093839 0.522680 0.456178 -0.174689
C21   C     C_R   0.934839 0.473855 0.529502 -0.194404
C22   C     C_R   0.462708 0.579595 0.009013 -0.170856
C23   C     C_R   0.049505 0.587785 0.583308 -0.167041
C24   C     C_R   0.551100 0.403532 0.994375 -0.186085
C25   C     C_R   0.477729 0.896375 0.548292 -0.172586
C26   C     C_R   0.539206 0.048936 0.467608 -0.180510
C27   C     C_R   0.420882 0.538039 0.988442 -0.173467
C28   C     C_R   0.597864 0.450488 0.000804 -0.188353
C29   C     C_R   0.076228 0.479884 0.412886 -0.165918
C30   C     C_R   0.951258 0.518806 0.571457 -0.142556
C31   C     C_R   0.550256 0.026326 0.682266 0.369787
C32   C     C_R   0.455279 0.944816 0.325007 0.365944
C33   C     C_R   0.063071 0.673815 0.539575 0.385822
C34   C     C_R   0.978249 0.408659 0.404357 -0.172938
C35   C     C_R   0.984342 0.316060 0.442176 0.374445
C36   C     C_R   0.676326 0.538934 0.064791 0.403928
C37   C     C_R   0.317450 0.426836 0.993853 0.365171
C38   C     C_R   0.326840 0.938989 0.456032 0.385937
C39   C     C_R   0.687248 0.007278 0.560135 0.369263
C40   C     C_R   0.460342 0.325145 0.932774 0.400529
C41   C     C_R   0.573146 0.683351 0.004738 0.364965
C42   C     C_R   0.961629 0.454735 0.319541 0.377055
C43   C     C_R   0.044608 0.548039 0.675805 0.362996
C44   C     C_R   0.595845 0.043527 0.725197 -0.301258
C45   C     C_R   0.600655 0.586650 0.028514 -0.158718
C46   C     C_R   0.398266 0.966737 0.271364 -0.273424
C47   C     C_R   0.064115 0.721339 0.591428 -0.310939
C48   C     C_R   0.960240 0.274718 0.400578 -0.305013
C49   C     C_R   0.723223 0.589248 0.067303 -0.290723
C50   C     C_R   0.274093 0.394457 0.962615 -0.293378
C51   C     C_R   0.272060 0.963421 0.398903 -0.287510
C52   C     C_R   0.726953 0.034711 0.600375 -0.306735
C53   C     C_R   0.409881 0.277819 0.931304 -0.287496
C54   C     C_R   0.605970 0.725669 0.036661 -0.295528
C55   C     C_R   0.949072 0.406978 0.275512 -0.295724
C56   C     C_R   0.413657 0.400210 0.969020 -0.157985
C57   C     C_R   0.053622 0.594934 0.723103 -0.310527
C58   C     C_R   0.677136 0.061750 0.677685 0.343744
C59   C     C_R   0.305296 0.991040 0.306027 0.325277
C60   C     C_R   0.077055 0.674726 0.676459 0.357745
C61   C     C_R   0.932211 0.324743 0.323004 0.339121
C62   C     C_R   0.677176 0.675777 0.075270 0.343403
C63   C     C_R   0.322944 0.323751 0.924188 0.348008
C64   C     C_3   0.401406 0.107226 0.697239 -0.251948
C65   C     C_3   0.597693 0.844261 0.313725 -0.278490
C66   C     C_3   0.155350 0.717837 0.398539 -0.283753
C67   C     C_R   0.971137 0.178230 0.433822 0.959983
C68   C     C_3   0.108130 0.231097 0.495522 -0.205191
C69   C     C_3   0.654050 0.416052 0.184194 -0.331631
C70   C     C_3   0.250369 0.426531 0.140033 -0.251600
C71   C     C_3   0.290498 0.832639 0.588853 -0.292268
C72   C     C_3   0.773747 0.883551 0.508718 -0.202852
C73   C     C_3   0.579796 0.348809 0.811823 -0.336909
C74   C     C_3   0.568874 0.755675 0.859213 -0.254769
C75   C     C_3   0.880629 0.604209 0.309046 -0.269617
C76   C     C_3   0.111301 0.394617 0.711573 -0.248435
C77   C     C_3   0.691551 0.191156 0.671212 -0.250875
C78   C     C_R   0.038888 0.820729 0.562282 0.927210
C79   C     C_3   0.210738 0.046732 0.211935 -0.119425
C80   C     C_3   0.192114 0.662198 0.721350 -0.290569
C81   C     C_3   0.806826 0.302450 0.330263 -0.251409
C82   C     C_3   0.708154 0.670087 0.196584 -0.289056
C83   C     C_3   0.319571 0.302298 0.802131 -0.321754
C84   C     C_R   0.177638 0.431588 0.974126 0.957235
H1    H     H_    0.562429 0.108402 0.435704 0.143091
H2    H     H_    0.422362 0.644599 0.021913 0.198894
H3    H     H_    0.873037 0.455289 0.558471 0.137960
H4    H     H_    0.157038 0.538153 0.428307 0.136299
H5    H     H_    0.404781 0.126106 0.624978 0.147277
H6    H     H_    0.413370 0.160675 0.708797 0.123699
H7    H     H_    0.331636 0.105213 0.738133 0.186308
H8    H     H_    0.592235 0.820564 0.387063 0.143072
H9    H     H_    0.670154 0.837139 0.276589 0.189479
H10   H     H_    0.576841 0.799931 0.297677 0.134950
H11   H     H_    0.208034 0.650956 0.416067 0.113499
H12   H     H_    0.456754 0.835804 0.579738 0.143775
H13   H     H_    0.169673 0.771034 0.407886 0.159240
H14   H     H_    0.161579 0.736430 0.325728 0.185821
H15   H     H_    0.133411 0.187731 0.450432 0.159952
H16   H     H_    0.140242 0.286274 0.462596 0.127071
H17   H     H_    0.130126 0.187211 0.557721 0.188527
H18   H     H_    0.581485 0.436377 0.187098 0.161405
H19   H     H_    0.660078 0.443320 0.230240 0.139454
H20   H     H_    0.678506 0.340407 0.208927 0.191476
H21   H     H_    0.208692 0.471040 0.184786 0.191307
H22   H     H_    0.211961 0.380964 0.152995 0.152642
H23   H     H_    0.901473 0.534442 0.632197 0.159150
H24   H     H_    0.315389 0.385522 0.158442 0.148446
H25   H     H_    0.357702 0.783357 0.566369 0.104491
H26   H     H_    0.237649 0.822115 0.574990 0.177580
H27   H     H_    0.274439 0.817023 0.662996 0.193717
H28   H     H_    0.817583 0.859201 0.553741 0.148988
H29   H     H_    0.719884 0.849879 0.542183 0.125586
H30   H     H_    0.817011 0.861953 0.447074 0.194527
H31   H     H_    0.558809 0.422080 0.807337 0.161409
H32   H     H_    0.551633 0.341529 0.767123 0.138593
H33   H     H_    0.654857 0.325357 0.786631 0.192948
H34   H     H_    0.125220 0.464805 0.351634 0.130998
H35   H     H_    0.609807 0.691791 0.839314 0.143430
H36   H     H_    0.613647 0.794695 0.846751 0.145055
H37   H     H_    0.522704 0.798778 0.815418 0.199853
H38   H     H_    0.876809 0.610446 0.373246 0.165364
H39   H     H_    0.821963 0.584009 0.319039 0.107796
H40   H     H_    0.874368 0.672852 0.258761 0.188216
H41   H     H_    0.144988 0.394419 0.639941 0.135568
H42   H     H_    0.098484 0.327972 0.751073 0.189143
H43   H     H_    0.157263 0.400370 0.739238 0.150259
H44   H     H_    0.720929 0.218853 0.697739 0.192396
H45   H     H_    0.668772 0.415990 0.997122 0.212865
H46   H     H_    0.616816 0.225129 0.687448 0.119735
H47   H     H_    0.722063 0.208064 0.596621 0.119742
H48   H     H_    0.226055 0.972066 0.225629 0.135165
H49   H     H_    0.232303 0.079035 0.137922 0.181392
H50   H     H_    0.136097 0.078576 0.233009 0.182048
H51   H     H_    0.239735 0.664100 0.652543 0.113115
H52   H     H_    0.198942 0.589950 0.763450 0.142409
H53   H     H_    0.212467 0.692725 0.753651 0.183767
H54   H     H_    0.780958 0.272678 0.302331 0.190831
H55   H     H_    0.768633 0.376687 0.317588 0.119596
H56   H     H_    0.355259 0.578296 0.976446 0.198964
H57   H     H_    0.793739 0.267359 0.404288 0.123281
H58   H     H_    0.638240 0.668545 0.238769 0.120023
H59   H     H_    0.729371 0.707021 0.221075 0.168734
H60   H     H_    0.756282 0.599433 0.205585 0.142459
H61   H     H_    0.307441 0.376232 0.764102 0.128025
H62   H     H_    0.286363 0.274640 0.779715 0.169817
H63   H     H_    0.393509 0.264674 0.785321 0.136612
H64   H     H_    0.485569 0.079994 0.359678 0.157967
H65   H     H_    0.530500 0.866660 0.656881 0.133772
H66   H     H_    0.586233 0.332729 0.997294 0.213275
O1    O     O_R   0.982940 0.138950 0.510160 -0.593029
O2    O     O_R   0.982940 0.510160 0.138950 -0.586843
O3    O     O_R   0.861050 0.017060 0.489840 -0.589137
O4    O     O_R   0.138950 0.982940 0.510160 -0.589831
O5    O     O_R   0.867700 0.025880 0.612340 -0.577040
O6    O     O_R   0.132300 0.974120 0.387660 -0.664743
O7    O     O_R   0.025880 0.612340 0.867700 -0.584142
O8    O     O_R   0.974120 0.387660 0.132300 -0.584415
O9    O     O_R   0.612340 0.867700 0.025880 -0.579753
O10   O     O_R   0.387660 0.132300 0.974120 -0.597369
O11   O     O_R   0.387660 0.974120 0.132300 -0.665119
O12   O     O_R   0.017060 0.861050 0.489840 -0.602575
O13   O     O_R   0.612340 0.025880 0.867700 -0.580167
O14   O     O_R   0.132300 0.387660 0.974120 -0.590086
O15   O     O_R   0.867700 0.612340 0.025880 -0.590678
O16   O     O_R   0.974120 0.132300 0.387660 -0.587378
O17   O     O_R   0.025880 0.867700 0.612340 -0.577021
O18   O     O_3   0.463146 0.020193 0.724403 -0.561196
O19   O     O_3   0.546588 0.936802 0.285894 -0.557300
O20   O     O_3   0.066418 0.713826 0.448779 -0.563091
O21   O     O_3   0.012442 0.267001 0.520178 -0.568515
O22   O     O_3   0.707577 0.444729 0.095167 -0.577628
O23   O     O_R   0.138950 0.510160 0.982940 -0.595544
O24   O     O_3   0.265388 0.482466 0.049576 -0.588188
O25   O     O_3   0.290607 0.924197 0.548338 -0.563143
O26   O     O_3   0.736389 0.979721 0.482819 -0.568111
O27   O     O_3   0.553777 0.294676 0.901678 -0.579261
O28   O     O_3   0.515677 0.736931 0.949881 -0.586650
O29   O     O_3   0.965246 0.543389 0.276602 -0.555510
O30   O     O_3   0.027605 0.464954 0.720318 -0.566659
O31   O     O_3   0.712494 0.095995 0.712627 -0.535393
O32   O     O_3   0.251647 0.068257 0.255278 -0.606001
O33   O     O_3   0.101940 0.713039 0.717214 -0.540827
O34   O     O_R   0.861050 0.489840 0.017060 -0.586922
O35   O     O_3   0.900304 0.288251 0.286907 -0.540496
O36   O     O_3   0.710879 0.716776 0.104886 -0.536058
O37   O     O_3   0.281190 0.289641 0.895880 -0.540187
O38   O     O_R   0.510160 0.982940 0.138950 -0.569616
O39   O     O_R   0.489840 0.017060 0.861050 -0.588657
O40   O     O_R   0.489840 0.861050 0.017060 -0.596436
O41   O     O_R   0.510160 0.138950 0.982940 -0.589247
O42   O     O_R   0.017060 0.489840 0.861050 -0.586226
Zn1   Zn    Zn3+2 0.004880 0.004880 0.583590 1.050955
Zn2   Zn    Zn3+2 0.995120 0.995120 0.416410 0.983262
Zn3   Zn    Zn3+2 0.004880 0.583590 0.004880 1.051644
Zn4   Zn    Zn3+2 0.995120 0.416410 0.995120 1.047271
Zn5   Zn    Zn3+2 0.583590 0.004880 0.004880 1.072126
Zn6   Zn    Zn3+2 0.416410 0.995120 0.995120 0.989760

loop_
_geom_bond_atom_site_label_1
_geom_bond_atom_site_label_2
_ccdc_geom_bond_type
O39   Zn6   S    
C16   C28   A    
C65   H8    S    
C32   O19   S    
C72   H28   S    
C11   C18   A    
C76   H41   S    
C46   C59   A    
C75   H38   S    
C35   O21   S    
C34   C42   A    
C64   H6    S    
C82   H58   S    
C8    O8    A    
C3    O38   A    
C10   O4    A    
C21   H3    S    
C48   C61   A    
C50   C84   S    
C69   H18   S    
C19   H64   S    
C74   H35   S    
C9    C52   S    
C78   O17   A    
C73   H32   S    
O11   Zn6   S    
C82   O36   S    
C58   O31   S    
C75   H39   S    
O42   Zn4   S    
C66   H13   S    
C8    O2    A    
C5    O40   A    
C28   H45   S    
C17   C56   S    
C30   H23   S    
C68   O21   S    
C10   C51   S    
C80   H53   S    
C71   H26   S    
C72   H30   S    
C1    C31   A    
C76   H42   S    
C34   C35   A    
C77   H47   S    
C80   O33   S    
C19   C26   A    
C37   O24   S    
C83   H61   S    
O4    Zn1   S    
O3    Zn2   S    
C44   C58   A    
C5    O9    A    
C1    C11   S    
C6    O41   A    
O23   Zn3   S    
C77   O31   S    
C52   C58   A    
C18   H65   S    
C75   O29   S    
C15   C34   S    
C84   O14   A    
C62   O36   S    
C73   O27   S    
C60   O33   S    
C81   H57   S    
C39   C52   A    
C47   C60   A    
C9    O3    A    
C37   C56   A    
C40   C56   A    
C12   C32   A    
C50   C63   A    
O17   Zn1   S    
C13   C25   A    
C18   C25   A    
C64   H5    S    
C14   C30   A    
C35   C48   A    
O15   Zn3   S    
C8    C55   S    
C81   O35   S    
C15   C29   A    
C20   C29   A    
C69   H19   S    
C81   H54   S    
C79   H49   S    
C43   O30   S    
C36   O22   S    
C17   C24   A    
C73   H33   S    
C31   C44   A    
C13   C19   A    
C67   O1    A    
C75   H40   S    
C17   C27   A    
O41   Zn5   S    
C5    C54   S    
C33   O20   S    
C68   H17   S    
C82   H60   S    
C70   H22   S    
C10   O6    A    
C43   C57   A    
C82   H59   S    
C57   C60   A    
O10   Zn6   S    
C38   C51   A    
C4    C44   S    
C11   C26   A    
C23   C33   A    
O34   Zn4   S    
C72   H29   S    
O8    Zn4   S    
C65   O19   S    
C69   O22   S    
C14   C23   S    
C59   O32   S    
O6    Zn2   S    
C68   H16   S    
O5    Zn1   S    
C2    C49   S    
C14   C20   A    
C42   C55   A    
C83   H62   S    
C70   O24   S    
C41   O28   S    
C74   O28   S    
O9    Zn5   S    
C42   O29   S    
O12   Zn2   S    
C61   O35   S    
C20   H4    S    
C4    O13   A    
C36   C45   A    
C2    O34   A    
C47   C78   S    
C12   C13   S    
C3    O11   A    
C80   H51   S    
C2    O15   A    
O13   Zn5   S    
C77   H44   S    
C24   H66   S    
C83   H63   S    
C67   O16   A    
C65   H10   S    
C83   O37   S    
C78   O12   A    
C63   O37   S    
C22   C27   A    
C33   C47   A    
C7    O42   A    
O16   Zn2   S    
C55   C61   A    
C6    C53   S    
C84   O23   A    
C74   H36   S    
O40   Zn6   S    
C29   H34   S    
C69   H20   S    
C81   H55   S    
C79   H50   S    
C16   C22   A    
C49   C62   A    
O2    Zn3   S    
O7    Zn3   S    
C23   C43   A    
C32   C46   A    
C4    O39   A    
C66   O20   S    
C24   C28   A    
C39   O26   S    
C76   O30   S    
C70   H21   S    
C73   H31   S    
C16   C45   S    
C6    O10   A    
O14   Zn4   S    
C7    O7    A    
C54   C62   A    
C21   C30   A    
C3    C46   S    
C27   H56   S    
C80   H52   S    
C79   O32   S    
C71   H27   S    
O1    Zn1   S    
C68   H15   S    
C64   O18   S    
C70   H24   S    
C37   C50   A    
C53   C63   A    
C66   H14   S    
C38   O25   S    
O38   Zn5   S    
C26   H1    S    
C79   H48   S    
C71   H25   S    
C65   H9    S    
C71   O25   S    
C77   H46   S    
C22   H2    S    
C48   C67   S    
C12   C38   A    
C72   O26   S    
C41   C54   A    
C1    C39   A    
C40   O27   S    
C15   C21   A    
C74   H37   S    
C51   C59   A    
C31   O18   S    
C9    O5    A    
C25   H12   S    
C40   C53   A    
C76   H43   S    
C41   C45   A    
C64   H7    S    
C7    C57   S    
C36   C49   A    
C66   H11   S    
