data_mof_unit_41665.cif
_audit_creation_date              2012-12-11T14:38:24-0500
_audit_creation_method            fapswitch 2.2
_symmetry_space_group_name_H-M    P1
_symmetry_Int_Tables_number       1
_space_group_crystal_system       triclinic
_cell_length_a                    19.632649
_cell_length_b                    11.129517
_cell_length_c                    19.645869
_cell_angle_alpha                 90.204546
_cell_angle_beta                  96.564493
_cell_angle_gamma                 90.058545
_cell_volume                      4264.48460366

loop_
_atom_site_label
_atom_site_type_symbol
_atom_type_description
_atom_site_fract_x
_atom_site_fract_y
_atom_site_fract_z
_atom_type_partial_charge
C1    C     C_R   0.724111 0.956085 0.360788 0.537738
C2    C     C_3   0.177235 0.486336 0.470253 -0.232483
C3    C     C_3   0.322811 0.986213 0.530350 -0.231919
C4    C     C_3   0.680310 0.963815 0.471431 -0.235408
C5    C     C_3   0.765294 0.282893 0.555681 -0.245692
C6    C     C_3   0.235027 0.294450 0.445487 -0.261968
C7    C     C_3   0.264582 0.794062 0.553866 -0.263034
C8    C     C_3   0.742443 0.785760 0.437037 -0.248113
C9    C     C_3   0.758673 0.416928 0.569347 -0.004735
C10   C     C_3   0.236920 0.429154 0.433626 0.002735
C11   C     C_3   0.262981 0.928691 0.566488 0.001752
C12   C     C_R   0.275904 0.955477 0.639175 0.551597
C13   C     C_3   0.740533 0.921491 0.431842 0.012613
C14   C     C_3   0.743758 0.384693 0.437289 0.052040
C15   C     C_3   0.253477 0.391605 0.564749 0.053835
C16   C     C_3   0.246550 0.891984 0.435232 0.058889
C17   C     C_3   0.763914 0.864560 0.560412 0.061890
C18   C     C_3   0.800423 0.477582 0.455545 -0.250269
C19   C     C_3   0.194728 0.481522 0.548404 -0.244781
C20   C     C_3   0.305364 0.982021 0.452178 -0.248783
C21   C     C_3   0.695753 0.936067 0.547128 -0.194828
C22   C     C_3   0.765866 0.267858 0.477773 -0.268649
C23   C     C_R   0.223963 0.455980 0.360969 0.540865
C24   C     C_3   0.232971 0.275787 0.522339 -0.274795
C25   C     C_3   0.266965 0.775989 0.476984 -0.274283
C26   C     C_3   0.763393 0.754479 0.512204 -0.308587
C27   C     C_3   0.506267 0.303040 0.959624 -0.254040
C28   C     C_3   0.537925 0.302274 0.032678 -0.262826
C29   C     C_3   0.005857 0.803138 0.959723 -0.254688
C30   C     C_3   0.037696 0.802416 0.032702 -0.261081
C31   C     C_3   0.438322 0.118778 0.971449 -0.213486
C32   C     C_3   0.588248 0.101055 0.023729 -0.228452
C33   C     C_3   0.938336 0.618433 0.971437 -0.211155
C34   C     C_R   0.773297 0.448743 0.641725 0.543717
C35   C     C_3   0.088288 0.601493 0.023708 -0.234754
C36   C     C_3   0.564516 0.096341 0.944556 0.420035
C37   C     C_3   0.460755 0.113657 0.049986 0.438347
C38   C     C_3   0.064593 0.596811 0.944532 0.399759
C39   C     C_3   0.960756 0.613472 0.049982 0.437963
C40   C     C_R   0.536197 0.180416 0.338585 0.559022
C41   C     C_R   0.463895 0.180221 0.661463 0.560128
C42   C     C_R   0.036085 0.680417 0.338508 0.558838
C43   C     C_R   0.963751 0.680229 0.661368 0.555484
C44   C     C_3   0.495662 0.171762 0.931565 -0.043107
C45   C     C_3   0.675117 0.429419 0.460975 0.246743
C46   C     C_3   0.535747 0.172300 0.062936 -0.049242
C47   C     C_3   0.995583 0.671833 0.931582 -0.040040
C48   C     C_3   0.035685 0.672385 0.062936 -0.040718
C49   C     C_1   0.765639 0.437619 0.907033 0.070515
C50   C     C_1   0.241918 0.412969 0.099026 0.044206
C51   C     C_1   0.265544 0.937362 0.906967 0.086010
C52   C     C_1   0.741878 0.913090 0.098991 0.050424
C53   C     C_1   0.749718 0.416668 0.036775 0.076713
C54   C     C_1   0.265715 0.359608 0.973765 0.099162
C55   C     C_1   0.249573 0.916329 0.036687 0.063123
C56   C     C_3   0.321004 0.441485 0.541457 0.246124
C57   C     C_1   0.765657 0.859773 0.973727 0.117809
C58   C     C_1   0.757542 0.429302 0.966690 0.093007
C59   C     C_1   0.254171 0.386596 0.042021 0.096110
C60   C     C_1   0.257386 0.928924 0.966603 0.085212
C61   C     C_1   0.754109 0.886795 0.041970 0.122217
C62   C     C_1   0.744324 0.397699 0.096193 0.057931
C63   C     C_1   0.272294 0.338274 0.914551 0.067844
C64   C     C_1   0.244238 0.897472 0.096126 0.054044
C65   C     C_1   0.772272 0.838322 0.914536 0.052332
C66   C     C_R   0.737382 0.356121 0.363515 0.563001
C67   C     C_3   0.179014 0.941511 0.458687 0.245381
C68   C     C_R   0.261615 0.359005 0.637625 0.580056
C69   C     C_R   0.238488 0.859475 0.362274 0.567178
C70   C     C_R   0.773037 0.821016 0.631850 0.545357
C71   C     C_R   0.722354 0.953018 0.163636 0.518449
C72   C     C_R   0.279032 0.957371 0.837899 0.558701
C73   C     C_R   0.222359 0.453002 0.163640 0.519909
C74   C     C_R   0.779055 0.457432 0.837925 0.545174
C75   C     C_R   0.559870 0.181586 0.136690 0.560559
C76   C     C_R   0.467681 0.179233 0.859028 0.590631
C77   C     C_R   0.059833 0.681600 0.136683 0.561633
C78   C     C_3   0.823849 0.943751 0.541465 0.246572
C79   C     C_R   0.967640 0.679250 0.859043 0.591431
C80   C     C_R   0.736139 0.358995 0.164125 0.551956
C81   C     C_R   0.277563 0.310761 0.843774 0.546822
C82   C     C_R   0.236119 0.858937 0.164101 0.551433
C83   C     C_R   0.777562 0.810761 0.843773 0.541190
C84   C     C_1   0.485347 0.172513 0.594359 -0.012567
C85   C     C_1   0.514841 0.173059 0.405714 -0.022601
C86   C     C_1   0.984880 0.672515 0.594134 -0.017779
C87   C     C_1   0.014432 0.673092 0.405513 -0.023428
C88   C     C_1   0.504521 0.169728 0.464929 -0.063977
C89   C     C_3   0.816875 0.478862 0.533576 -0.229689
C90   C     C_1   0.495713 0.169457 0.535141 -0.061511
C91   C     C_1   0.003938 0.669766 0.464676 -0.064775
C92   C     C_1   0.995097 0.669466 0.534877 -0.064970
C93   C     C_3   0.684311 0.451425 0.538755 -0.179120
C94   C     C_3   0.309639 0.471106 0.464925 -0.177723
C95   C     C_3   0.190358 0.970879 0.535346 -0.179011
C96   C     C_3   0.812496 0.969156 0.463914 -0.174657
Cr1   Cr    Cr6+3 0.765780 0.160710 0.267420 1.042074
Cr2   Cr    Cr6+3 0.383970 0.323720 0.751490 1.091804
Cr3   Cr    Cr6+3 0.116030 0.823720 0.248510 1.089916
Cr4   Cr    Cr6+3 0.883970 0.823720 0.751490 1.078632
Cr5   Cr    Cr6+3 0.234220 0.160710 0.732580 1.060763
Cr6   Cr    Cr6+3 0.265780 0.660710 0.267420 1.041659
Cr7   Cr    Cr6+3 0.734220 0.660710 0.732580 1.061637
Cr8   Cr    Cr6+3 0.612200 0.009560 0.248850 1.117821
Cr9   Cr    Cr6+3 0.387800 0.009560 0.751150 1.104958
Cr10  Cr    Cr6+3 0.112200 0.509560 0.248850 1.119107
Cr11  Cr    Cr6+3 0.887800 0.509560 0.751150 1.096245
Cr12  Cr    Cr6+3 0.616030 0.323720 0.248510 1.089417
F1    F     F_    0.652946 0.533671 0.427144 -0.654997
F2    F     F_    0.343349 0.542565 0.578780 -0.653632
F3    F     F_    0.156772 0.042657 0.421890 -0.657737
F4    F     F_    0.828382 0.048612 0.578912 -0.665966
H1    H     H_    0.669063 0.543536 0.551107 0.174699
H2    H     H_    0.129930 0.431698 0.456943 0.155247
H3    H     H_    0.370033 0.931546 0.543326 0.156211
H4    H     H_    0.632560 0.914526 0.451747 0.152818
H5    H     H_    0.847594 0.454657 0.431704 0.129375
H6    H     H_    0.148328 0.454192 0.572269 0.136093
H7    H     H_    0.351754 0.955138 0.428122 0.132169
H8    H     H_    0.651568 0.884161 0.562564 0.152038
H9    H     H_    0.455866 0.349942 0.957367 0.165944
H10   H     H_    0.591874 0.334626 0.035543 0.146724
H11   H     H_    0.955320 0.849544 0.957603 0.165222
H12   H     H_    0.317903 0.566452 0.456529 0.171309
H13   H     H_    0.091615 0.834892 0.035400 0.146247
H14   H     H_    0.536824 0.360433 0.928518 0.219185
H15   H     H_    0.511811 0.372219 0.060389 0.223072
H16   H     H_    0.036101 0.861081 0.928625 0.218861
H17   H     H_    0.011622 0.872309 0.060490 0.222875
H18   H     H_    0.391625 0.175296 0.960462 0.099820
H19   H     H_    0.639211 0.145676 0.033718 0.114821
H20   H     H_    0.891499 0.674595 0.960428 0.099919
H21   H     H_    0.139117 0.646468 0.033760 0.078376
H22   H     H_    0.599590 0.011556 0.045325 0.195644
H23   H     H_    0.182351 0.066250 0.544258 0.170493
H24   H     H_    0.419987 0.031900 0.950002 0.220867
H25   H     H_    0.099764 0.511997 0.045272 0.197981
H26   H     H_    0.920219 0.531436 0.949988 0.221776
H27   H     H_    0.646983 0.394260 0.562592 0.087518
H28   H     H_    0.349689 0.425170 0.438505 0.091923
H29   H     H_    0.150159 0.924962 0.561480 0.093633
H30   H     H_    0.853197 0.922279 0.438895 0.086054
H31   H     H_    0.634849 0.359622 0.448786 0.136401
H32   H     H_    0.361856 0.371988 0.550009 0.136263
H33   H     H_    0.138126 0.871890 0.449747 0.136647
H34   H     H_    0.820524 0.063748 0.453589 0.163822
H35   H     H_    0.873622 0.896150 0.553633 0.138100
H36   H     H_    0.339892 0.075886 0.549092 0.099196
H37   H     H_    0.665298 0.058302 0.463565 0.096369
H38   H     H_    0.831791 0.565550 0.556664 0.108128
H39   H     H_    0.160155 0.576098 0.452261 0.100292
H40   H     H_    0.289558 0.069912 0.431482 0.160656
H41   H     H_    0.699130 0.020668 0.577521 0.177122
H42   H     H_    0.783187 0.564979 0.435394 0.168810
H43   H     H_    0.210597 0.569256 0.569834 0.165070
H44   H     H_    0.814246 0.250293 0.582978 0.240984
H45   H     H_    0.819663 0.248261 0.469006 0.166226
H46   H     H_    0.189481 0.251961 0.416240 0.232917
H47   H     H_    0.309884 0.751323 0.583076 0.234356
H48   H     H_    0.691694 0.745339 0.419168 0.227097
H49   H     H_    0.722574 0.231078 0.574053 0.139644
H50   H     H_    0.281781 0.254928 0.428162 0.107671
H51   H     H_    0.217542 0.754530 0.570525 0.113475
H52   H     H_    0.780138 0.750592 0.403666 0.115631
H53   H     H_    0.732924 0.193951 0.458117 0.115532
H54   H     H_    0.266287 0.202374 0.540544 0.112640
H55   H     H_    0.233863 0.702390 0.458018 0.114066
H56   H     H_    0.179231 0.252739 0.529869 0.169553
H57   H     H_    0.817125 0.725035 0.513645 0.078084
H58   H     H_    0.379641 0.237246 0.197480 0.355952
H59   H     H_    0.736615 0.123981 0.887570 0.366785
H60   H     H_    0.879533 0.736768 0.197478 0.355263
H61   H     H_    0.228952 0.619977 0.953902 0.326827
H62   H     H_    0.490346 0.785516 0.914530 0.373324
H63   H     H_    0.393991 0.799031 0.049916 0.369325
H64   H     H_    0.991069 0.285447 0.914831 0.372366
H65   H     H_    0.894241 0.298704 0.050010 0.371553
H66   H     H_    0.320795 0.753463 0.469550 0.170058
H67   H     H_    0.730242 0.683794 0.528150 0.167373
H68   H     H_    0.865474 0.427349 0.545489 0.151185
O1    O     O_R   0.783100 0.287550 0.345460 -0.534630
O2    O     O_R   0.454350 0.284910 0.836260 -0.526678
O3    O     O_R   0.045650 0.784910 0.163740 -0.465859
O4    O     O_R   0.954350 0.784910 0.836260 -0.526267
O5    O     O_R   0.677950 0.374280 0.185410 -0.522911
O6    O     O_R   0.322050 0.374280 0.814590 -0.480139
O7    O     O_R   0.177950 0.874280 0.185410 -0.521580
O8    O     O_R   0.822050 0.874280 0.814590 -0.487945
O9    O     O_3   0.664670 0.164660 0.254930 -0.322081
O10   O     O_3   0.335330 0.164660 0.745070 -0.333898
O11   O     O_3   0.164670 0.664660 0.254930 -0.321896
O12   O     O_R   0.216900 0.287550 0.654540 -0.533248
O13   O     O_3   0.835330 0.664660 0.745070 -0.339480
O14   O     O_R   0.760020 0.037400 0.337700 -0.519170
O15   O     O_R   0.239980 0.037400 0.662300 -0.515952
O16   O     O_R   0.260020 0.537400 0.337700 -0.516290
O17   O     O_R   0.739980 0.537400 0.662300 -0.524622
O18   O     O_R   0.666600 0.921990 0.332020 -0.511931
O19   O     O_R   0.333400 0.921990 0.667980 -0.505115
O20   O     O_R   0.166600 0.421990 0.332020 -0.510179
O21   O     O_R   0.833400 0.421990 0.667980 -0.509602
O22   O     O_R   0.557260 0.082670 0.312540 -0.480957
O23   O     O_R   0.283100 0.787550 0.345460 -0.535417
O24   O     O_R   0.442740 0.082670 0.687460 -0.482862
O25   O     O_R   0.057260 0.582670 0.312540 -0.481088
O26   O     O_R   0.942740 0.582670 0.687460 -0.481326
O27   O     O_R   0.548410 0.285740 0.316480 -0.483656
O28   O     O_R   0.451590 0.285740 0.683520 -0.486627
O29   O     O_R   0.048410 0.785740 0.316480 -0.484947
O30   O     O_R   0.951590 0.785740 0.683520 -0.500611
O31   O     O_R   0.680500 0.375040 0.327000 -0.450543
O32   O     O_R   0.319500 0.375040 0.673000 -0.444194
O33   O     O_R   0.180500 0.875040 0.327000 -0.449998
O34   O     O_R   0.716900 0.787550 0.654540 -0.516349
O35   O     O_R   0.819500 0.875040 0.673000 -0.431480
O36   O     O_R   0.780350 0.286720 0.192720 -0.479357
O37   O     O_R   0.219650 0.286720 0.807280 -0.435832
O38   O     O_R   0.280350 0.786720 0.192720 -0.482102
O39   O     O_R   0.719650 0.786720 0.807280 -0.432461
O40   O     O_R   0.757470 0.036630 0.196110 -0.499637
O41   O     O_R   0.242530 0.036630 0.803890 -0.512219
O42   O     O_R   0.257470 0.536630 0.196110 -0.501787
O43   O     O_R   0.742530 0.536630 0.803890 -0.509229
O44   O     O_R   0.663840 0.921160 0.179280 -0.483484
O45   O     O_R   0.554710 0.081900 0.170950 -0.408077
O46   O     O_R   0.336160 0.921160 0.820720 -0.482109
O47   O     O_R   0.163840 0.421160 0.179280 -0.481429
O48   O     O_R   0.836160 0.421160 0.820720 -0.488193
O49   O     O_2   0.396909 0.327745 0.072162 -0.366883
O50   O     O_2   0.328837 0.144749 0.074606 -0.307713
O51   O     O_3   0.417040 0.192167 0.179103 -0.443927
O52   O     O_2   0.608185 0.164217 0.822696 -0.231851
O53   O     O_2   0.646259 0.287609 0.922428 -0.385012
O54   O     O_3   0.702933 0.081391 0.912697 -0.508225
O55   O     O_2   0.896776 0.827453 0.072203 -0.368166
O56   O     O_R   0.445290 0.081900 0.829050 -0.453096
O57   O     O_2   0.828791 0.644386 0.074571 -0.312676
O58   O     O_3   0.916967 0.691800 0.179092 -0.444215
O59   O     O_2   0.108258 0.663749 0.822491 -0.199579
O60   O     O_2   0.145264 0.789547 0.920942 -0.390920
O61   O     O_3   0.203521 0.583909 0.912336 -0.474793
O62   O     O_2   0.558886 0.934225 0.838575 -0.206729
O63   O     O_2   0.617376 0.870152 0.948020 -0.279700
O64   O     O_3   0.486232 0.868058 0.932612 -0.495753
O65   O     O_2   0.520048 0.887356 0.080514 -0.262796
O66   O     O_2   0.434043 0.954568 0.151312 -0.199862
O67   O     O_R   0.054710 0.581900 0.170950 -0.408515
O68   O     O_3   0.394379 0.880392 0.029666 -0.534627
O69   O     O_2   0.058904 0.434648 0.838519 -0.205992
O70   O     O_2   0.117928 0.371034 0.947799 -0.284768
O71   O     O_3   0.986814 0.367969 0.932896 -0.494887
O72   O     O_2   0.020292 0.387425 0.080489 -0.261794
O73   O     O_2   0.934247 0.454303 0.151346 -0.200097
O74   O     O_3   0.894584 0.380033 0.029714 -0.534363
O75   O     O_R   0.945290 0.581900 0.829050 -0.450688
O76   O     O_R   0.545650 0.284910 0.163740 -0.465131
S1    S     S_3+6 0.398712 0.198380 0.093402 0.029111
S2    S     S_3+6 0.630635 0.162053 0.898462 0.030077
S3    S     S_3+6 0.898644 0.698065 0.093392 0.026199
S4    S     S_3+6 0.130535 0.662961 0.898278 0.044448
S5    S     S_3+6 0.557208 0.939712 0.914856 0.084288
S6    S     S_3+6 0.454504 0.956651 0.079855 0.090827
S7    S     S_3+6 0.057510 0.440159 0.914836 0.080171
S8    S     S_3+6 0.954664 0.456466 0.079873 0.091227

loop_
_geom_bond_atom_site_label_1
_geom_bond_atom_site_label_2
_ccdc_geom_bond_type
Cr1   O14   S    
Cr7   O34   S    
O49   S1    D    
Cr4   O35   S    
C8    C13   S    
O61   S4    S    
C87   C91   T    
C19   H43   S    
C14   C18   S    
C1    O18   A    
C34   O17   A    
C47   C79   S    
Cr2   O10   S    
Cr5   O12   S    
C45   C93   S    
C35   H21   S    
Cr10  O25   S    
Cr3   O7    S    
C27   H9    S    
Cr8   O45   S    
C80   O36   A    
Cr4   O13   S    
C25   H55   S    
C56   C94   S    
H65   O74   S    
O51   S1    S    
C28   C46   S    
C5    C9    S    
C33   C39   S    
C73   O42   A    
C63   C81   S    
Cr6   O42   S    
C70   O35   A    
C32   C36   S    
C30   C48   S    
Cr4   O8    S    
C37   S1    S    
Cr11  O21   S    
C21   H8    S    
C52   C61   T    
C27   H14   S    
C45   F1    S    
C65   C83   S    
C7    H47   S    
C54   C63   T    
C10   C94   S    
C34   O21   A    
Cr5   O41   S    
C16   C25   S    
C8    C26   S    
C79   O4    A    
C42   O25   A    
Cr7   O17   S    
C89   H68   S    
C4    C13   S    
C44   C76   S    
C43   O30   A    
C37   S6    S    
Cr11  O26   S    
C74   O48   A    
C31   C37   S    
Cr7   O43   S    
C15   C19   S    
C22   H53   S    
C27   C44   S    
O62   S5    D    
C86   C92   T    
C5    C22   S    
C6    H50   S    
C26   H57   S    
C78   C96   S    
Cr1   O36   S    
C32   H19   S    
C23   O16   A    
O57   S3    D    
Cr4   O4    S    
C80   O5    A    
C94   H28   S    
C36   S2    S    
Cr10  O67   S    
C95   H29   S    
Cr3   O3    S    
C18   H42   S    
C28   H15   S    
H62   O64   S    
Cr1   O9    S    
C30   H13   S    
O74   S8    S    
C3    H36   S    
C72   O46   A    
C55   C60   S    
H58   O51   S    
C43   O26   A    
C67   C95   S    
O66   S6    D    
C18   C89   S    
Cr2   O28   S    
C32   H22   S    
C84   C90   T    
Cr10  O11   S    
H64   O71   S    
Cr12  O27   S    
C76   O2    A    
C35   C48   S    
C56   F2    S    
C46   C75   S    
C6    H46   S    
C7    C11   S    
C14   C45   S    
O68   S6    S    
C54   C59   S    
C55   C64   T    
C68   O12   A    
C31   C44   S    
C13   C96   S    
C70   O34   A    
O59   S4    D    
C75   O45   A    
C35   C38   S    
C69   O33   A    
C19   H6    S    
C75   O76   A    
C8    H52   S    
C50   C73   S    
C9    C89   S    
C91   C92   S    
C73   O47   A    
Cr6   O38   S    
C25   H66   S    
Cr9   O24   S    
O63   S5    D    
Cr3   O33   S    
C26   H67   S    
C41   C84   S    
Cr2   O32   S    
C74   O43   A    
C23   O20   A    
C17   C21   S    
C49   C58   T    
C20   H40   S    
Cr6   O16   S    
C77   O67   A    
C5    H49   S    
C40   C85   S    
Cr2   O2    S    
C24   H54   S    
Cr6   O23   S    
C51   C60   T    
O60   S4    D    
C67   H33   S    
C29   C30   S    
C93   H27   S    
H61   O61   S    
C29   C47   S    
C83   O39   A    
C53   C62   T    
Cr12  O5    S    
C82   O38   A    
O50   S1    D    
Cr9   O19   S    
C33   H26   S    
C16   C20   S    
C6    C24   S    
Cr11  O48   S    
C48   C77   S    
C95   H23   S    
Cr6   O11   S    
C14   C66   S    
Cr1   O40   S    
Cr11  O75   S    
O58   S3    S    
C76   O56   A    
C16   C67   S    
C93   H1    S    
Cr9   O46   S    
O69   S7    D    
C41   O24   A    
C57   C61   S    
C18   H5    S    
C64   C82   S    
C38   C47   S    
O53   S2    D    
C42   O29   A    
C39   S3    S    
C78   H35   S    
C53   C58   S    
C33   H20   S    
C67   F3    S    
C89   H38   S    
C66   O1    A    
C88   C90   S    
C62   C80   S    
Cr7   O39   S    
C9    C34   S    
C33   C47   S    
C12   O15   A    
Cr12  O9    S    
C36   C44   S    
C1    C13   S    
C51   C72   S    
C17   C26   S    
C2    C10   S    
C9    C93   S    
C81   O6    A    
Cr11  O13   S    
Cr12  O31   S    
O73   S8    D    
Cr10  O20   S    
Cr3   O29   S    
C85   C88   T    
C11   C95   S    
C2    H39   S    
O54   S2    S    
H63   O68   S    
C21   H41   S    
C71   O44   A    
C24   H56   S    
C2    C19   S    
C49   C74   S    
C43   C86   S    
C32   C46   S    
Cr9   O10   S    
C4    H4    S    
C30   H17   S    
C16   C69   S    
C4    H37   S    
C31   H24   S    
C38   S4    S    
C6    C10   S    
C11   C12   S    
Cr1   O1    S    
C81   O37   A    
O64   S5    S    
C22   H45   S    
C10   C23   S    
C31   H18   S    
C5    H44   S    
C96   H34   S    
C15   C68   S    
C7    C25   S    
C68   O32   A    
C82   O7    A    
C39   S8    S    
C36   S5    S    
C14   C22   S    
C41   O28   A    
Cr8   O22   S    
C50   C59   T    
C66   O31   A    
C8    H48   S    
Cr5   O15   S    
Cr2   O6    S    
C52   C71   S    
C3    H3    S    
C38   S7    S    
C35   H25   S    
C15   C24   S    
Cr3   O11   S    
C4    C21   S    
C2    H2    S    
C3    C20   S    
C7    H51   S    
C72   O41   A    
C29   H11   S    
Cr4   O30   S    
C17   C78   S    
Cr9   O56   S    
C12   O19   A    
C1    O14   A    
C28   H10   S    
Cr5   O10   S    
O52   S2    D    
C83   O8    A    
C15   C56   S    
Cr8   O18   S    
O70   S7    D    
C40   O27   A    
C3    C11   S    
O72   S8    D    
C96   H30   S    
C56   H32   S    
Cr5   O37   S    
C17   C70   S    
C71   O40   A    
O65   S6    D    
C69   O23   A    
O55   S3    D    
C29   H16   S    
O71   S7    S    
C27   C28   S    
C45   H31   S    
C79   O75   A    
Cr10  O47   S    
C78   F4    S    
C42   C87   S    
Cr7   O13   S    
C37   C46   S    
C40   O22   A    
Cr8   O9    S    
Cr8   O44   S    
C20   H7    S    
Cr12  O76   S    
C77   O3    A    
C94   H12   S    
C39   C48   S    
C57   C65   T    
H59   O54   S    
H60   O58   S    
