data_mof_unit_24911.cif
_audit_creation_date              2012-10-26T20:33:43-0400
_audit_creation_method            fapswitch 2.2
_symmetry_space_group_name_H-M    P1
_symmetry_Int_Tables_number       1
_space_group_crystal_system       triclinic
_cell_length_a                    10.905303
_cell_length_b                    9.074185
_cell_length_c                    7.835443
_cell_angle_alpha                 90.008894
_cell_angle_beta                  89.220122
_cell_angle_gamma                 89.985547
_cell_volume                      775.298011272

loop_
_atom_site_label
_atom_site_type_symbol
_atom_type_description
_atom_site_fract_x
_atom_site_fract_y
_atom_site_fract_z
_atom_type_partial_charge
C1    C     C_R   0.500308 0.220268 0.499983 0.521640
C2    C     C_1   0.500176 0.934548 0.500018 -0.045458
C3    C     C_3   0.068564 0.645445 0.571511 0.182862
C4    C     C_3   0.922613 0.630542 0.594003 0.233687
C5    C     C_3   0.121495 0.490616 0.497926 0.100456
C6    C     C_3   0.878049 0.486535 0.491054 0.116887
C7    C     C_R   0.259553 0.496442 0.500246 0.552538
C8    C     C_R   0.740054 0.491253 0.497322 0.590574
C9    C     C_R   0.500056 0.779737 0.500009 0.569541
C10   C     C_1   0.500272 0.065469 0.499991 -0.057615
C11   C     C_3   0.071296 0.351582 0.610966 0.232172
C12   C     C_3   0.076115 0.461932 0.302618 0.257986
C13   C     C_3   0.926195 0.335233 0.577517 0.210670
C14   C     C_3   0.931950 0.490625 0.296123 0.250251
Cu1   Cu    Cu3+1 0.500000 0.500010 0.669080 1.021501
Cu2   Cu    Cu3+1 0.500000 0.500010 0.330920 0.978934
H1    H     H_    0.067698 0.278370 0.860120 0.213545
H2    H     H_    0.105404 0.126340 0.640131 0.210786
H3    H     H_    0.197983 0.286319 0.270051 0.244980
H4    H     H_    0.089378 0.282937 0.130768 0.224695
H5    H     H_    0.809931 0.206795 0.431244 0.225570
H6    H     H_    0.921496 0.110281 0.518537 0.217642
H7    H     H_    0.788500 0.406697 0.142612 0.261255
H8    H     H_    0.921852 0.377677 0.066943 0.242219
H9    H     H_    0.111276 0.622910 0.836954 0.267540
H10   H     H_    0.100047 0.794984 0.768638 0.212445
H11   H     H_    0.194757 0.775227 0.443362 0.237341
H12   H     H_    0.187593 0.375802 0.818484 0.250420
H13   H     H_    0.070954 0.866044 0.497500 0.226243
H14   H     H_    0.930242 0.533302 0.838742 0.270383
H15   H     H_    0.899499 0.713804 0.840434 0.207526
H16   H     H_    0.863862 0.850131 0.623030 0.204521
H17   H     H_    0.885206 0.811465 0.421243 0.266502
H18   H     H_    0.202374 0.496604 0.096066 0.246191
H19   H     H_    0.175877 0.651597 0.206801 0.276555
H20   H     H_    0.768433 0.271526 0.712107 0.243368
H21   H     H_    0.892670 0.202641 0.789312 0.208566
H22   H     H_    0.814705 0.655233 0.205708 0.252993
H23   H     H_    0.943172 0.640906 0.095521 0.245688
H24   H     H_    0.229519 0.222681 0.585310 0.224417
N1    N     N_1   0.500000 0.499970 0.076820 -0.098306
N2    N     N_3   0.875436 0.377861 0.183841 -0.577552
N3    N     N_3   0.128905 0.689404 0.732473 -0.610889
N4    N     N_3   0.099267 0.763858 0.449397 -0.613198
N5    N     N_3   0.884884 0.615399 0.774679 -0.575601
N6    N     N_3   0.855600 0.764255 0.534907 -0.589651
N7    N     N_1   0.500000 0.499970 0.923180 -0.086868
N8    N     N_3   0.094168 0.372774 0.794162 -0.672461
N9    N     N_3   0.136262 0.553879 0.167739 -0.632979
N10   N     N_3   0.858844 0.300720 0.738277 -0.625721
N11   N     N_3   0.908342 0.635964 0.219006 -0.618380
N12   N     N_3   0.135621 0.213405 0.562857 -0.597148
N13   N     N_3   0.104113 0.306212 0.258275 -0.534994
N14   N     N_3   0.903363 0.211036 0.459500 -0.545241
O1    O     O_R   0.500000 0.288400 0.642760 -0.519062
O2    O     O_R   0.500000 0.288400 0.357240 -0.500899
O3    O     O_R   0.317700 0.499990 0.642790 -0.498047
O4    O     O_R   0.317700 0.499990 0.357210 -0.537073
O5    O     O_R   0.682300 0.499990 0.642790 -0.454940
O6    O     O_R   0.682300 0.499990 0.357210 -0.535866
O7    O     O_R   0.500000 0.711620 0.642810 -0.476623
O8    O     O_R   0.500000 0.711620 0.357190 -0.496518

loop_
_geom_bond_atom_site_label_1
_geom_bond_atom_site_label_2
_ccdc_geom_bond_type
H19   N9    S    
H23   N11   S    
Cu2   O2    S    
Cu1   O5    S    
H21   N10   S    
C8    O5    A    
C6    C14   S    
H8    N2    S    
C7    O4    A    
C12   N13   S    
H1    N8    S    
Cu1   N7    S    
C14   N2    S    
C3    N3    S    
H9    N3    S    
C12   N9    S    
Cu1   O7    S    
H2    N12   S    
H6    N14   S    
C4    N6    S    
C3    C4    S    
C8    O6    A    
C6    C13   S    
H17   N6    S    
Cu1   O3    S    
H3    N13   S    
C11   N8    S    
H7    N2    S    
Cu2   O8    S    
C5    C12   S    
C9    O7    A    
C6    C8    S    
C1    O2    A    
C12   C14   S    
H10   N3    S    
C5    C11   S    
C4    N5    S    
H13   N4    S    
N1    N7    T    
H5    N14   S    
C3    N4    S    
C1    O1    A    
Cu1   Cu2   S    
C11   N12   S    
H15   N5    S    
C9    O8    A    
C2    C10   T    
C11   C13   S    
H20   N10   S    
C14   N11   S    
C4    C6    S    
C13   N14   S    
Cu2   O6    S    
C5    C7    S    
H12   N8    S    
H18   N9    S    
Cu2   O4    S    
H22   N11   S    
H14   N5    S    
C3    C5    S    
H24   N12   S    
C2    C9    S    
H16   N6    S    
H11   N4    S    
C7    O3    A    
C1    C10   S    
C13   N10   S    
H4    N13   S    
Cu2   N1    S    
Cu1   O1    S    
