data_mof_unit_49477.cif
_audit_creation_date              2012-12-11T15:33:36-0500
_audit_creation_method            fapswitch 2.2
_symmetry_space_group_name_H-M    P1
_symmetry_Int_Tables_number       1
_space_group_crystal_system       triclinic
_cell_length_a                    27.232252
_cell_length_b                    7.189116
_cell_length_c                    22.681268
_cell_angle_alpha                 89.999764
_cell_angle_beta                  100.959341
_cell_angle_gamma                 90.000701
_cell_volume                      4359.46050728

loop_
_atom_site_label
_atom_site_type_symbol
_atom_type_description
_atom_site_fract_x
_atom_site_fract_y
_atom_site_fract_z
_atom_type_partial_charge
O1    O     O_R   0.207310 0.594030 0.676830 -0.542869
O2    O     O_R   0.792690 0.405970 0.323170 -0.498069
O3    O     O_R   0.292690 0.094030 0.823170 -0.542877
O4    O     O_R   0.707310 0.905970 0.176830 -0.498137
O5    O     O_R   0.197320 0.262370 0.795700 -0.531866
O6    O     O_R   0.802680 0.737630 0.204300 -0.545105
O7    O     O_R   0.302680 0.762370 0.704300 -0.531870
O8    O     O_R   0.697320 0.237630 0.295700 -0.545099
C1    C     C_R   0.184611 0.432550 0.811898 0.728820
C2    C     C_R   0.815409 0.567429 0.188130 0.659989
C3    C     C_R   0.315389 0.932552 0.688101 0.728781
C4    C     C_R   0.684592 0.067428 0.311870 0.659859
O9    O     O_R   0.201410 0.264250 0.675590 -0.516648
O10   O     O_R   0.798590 0.735750 0.324410 -0.528177
O11   O     O_R   0.298590 0.764250 0.824410 -0.516634
O12   O     O_R   0.701410 0.235750 0.175590 -0.528166
O13   O     O_R   0.296810 0.094940 0.702210 -0.544905
O14   O     O_R   0.703190 0.905060 0.297790 -0.538349
O15   O     O_R   0.203190 0.594940 0.797790 -0.544902
O16   O     O_R   0.796810 0.405060 0.202210 -0.538304
C5    C     C_R   0.188847 0.432826 0.654243 0.781085
C6    C     C_R   0.810495 0.567443 0.346721 0.691279
C7    C     C_R   0.311154 0.932827 0.845756 0.781059
C8    C     C_R   0.689504 0.067441 0.153280 0.691066
O17   O     O_3   0.281300 0.427390 0.758870 -0.370327
O18   O     O_3   0.718700 0.572610 0.241130 -0.347130
O19   O     O_3   0.218700 0.927390 0.741130 -0.370330
O20   O     O_3   0.781300 0.072610 0.258870 -0.347075
V1    V     V_3+5 0.244190 0.152150 0.748350 1.536657
V2    V     V_3+5 0.755810 0.847850 0.251650 1.585989
V3    V     V_3+5 0.255810 0.652150 0.751650 1.536680
V4    V     V_3+5 0.744190 0.347850 0.248350 1.586051
C9    C     C_R   0.654622 0.068593 0.094144 -0.129151
C10   C     C_R   0.347767 0.940340 0.902928 -0.138648
C11   C     C_R   0.845376 0.568607 0.405858 -0.129160
C12   C     C_R   0.152231 0.440327 0.597072 -0.138657
C13   C     C_R   0.633359 0.222567 0.997448 -0.108751
C14   C     C_R   0.361124 0.928531 0.011457 -0.135494
C15   C     C_R   0.866652 0.722659 0.502538 -0.108668
C16   C     C_R   0.138867 0.428359 0.488546 -0.135508
C17   C     C_R   0.666644 0.190242 0.050772 -0.143184
C18   C     C_R   0.328953 0.933774 0.956043 -0.245940
C19   C     C_R   0.833362 0.690308 0.449219 -0.143150
C20   C     C_R   0.171042 0.433660 0.543957 -0.245952
C21   C     C_R   0.607626 0.974967 0.082659 0.271173
C22   C     C_R   0.400408 0.946235 0.905436 0.373239
C23   C     C_R   0.892365 0.474943 0.417349 0.271140
C24   C     C_R   0.099591 0.446261 0.594568 0.373242
C25   C     C_R   0.569841 0.036370 0.033213 -0.002917
C26   C     C_R   0.433027 0.972326 0.962678 -0.032782
C27   C     C_R   0.930156 0.536356 0.466789 -0.002977
C28   C     C_R   0.066971 0.472291 0.537324 -0.032796
C29   C     C_R   0.584952 0.149963 0.988642 0.087250
C30   C     C_R   0.412812 0.946134 0.015322 0.083305
C31   C     C_R   0.915054 0.650020 0.511348 0.087255
C32   C     C_R   0.087181 0.446001 0.484682 0.083304
C33   C     C_R   0.517401 0.998269 0.027001 0.090077
C34   C     C_R   0.484508 0.026483 0.970553 0.074290
C35   C     C_R   0.982595 0.498210 0.473003 0.090088
C36   C     C_R   0.015491 0.526477 0.529445 0.074287
C37   C     C_R   0.501977 0.134762 0.927255 -0.049506
C38   C     C_R   0.495689 0.962843 0.077390 -0.051015
C39   C     C_R   0.998031 0.634832 0.572730 -0.049536
C40   C     C_R   0.004301 0.462691 0.422618 -0.051060
C41   C     C_R   0.551046 0.197517 0.936519 -0.137442
C42   C     C_R   0.444232 0.942073 0.071787 -0.165658
C43   C     C_R   0.948965 0.697614 0.563463 -0.137427
C44   C     C_R   0.055757 0.441880 0.428221 -0.165665
H1    H     H_    0.562387 0.286249 0.902841 0.147024
H2    H     H_    0.428885 0.922605 0.112089 0.130761
H3    H     H_    0.937631 0.786402 0.597130 0.147031
H4    H     H_    0.071101 0.422335 0.387920 0.130737
H5    H     H_    0.288986 0.925136 0.954457 0.122764
H6    H     H_    0.702510 0.260564 0.058219 0.131699
H7    H     H_    0.211007 0.424982 0.545540 0.122765
H8    H     H_    0.797501 0.760657 0.441769 0.131727
H9    H     H_    0.644656 0.313556 0.964315 0.132215
H10   H     H_    0.345380 0.914439 0.051675 0.129234
H11   H     H_    0.855363 0.813697 0.535663 0.132222
H12   H     H_    0.154607 0.414188 0.448329 0.129232
H13   H     H_    0.476860 0.184088 0.887731 0.192648
H14   H     H_    0.517854 0.964906 0.122244 0.155193
H15   H     H_    0.023153 0.684195 0.612244 0.192639
H16   H     H_    0.982135 0.464704 0.377765 0.154999
C45   C     C_R   0.628882 0.881316 0.366737 -0.129708
C46   C     C_R   0.370445 0.118497 0.632319 -0.154576
C47   C     C_R   0.871118 0.381320 0.133264 -0.129751
C48   C     C_R   0.129553 0.618494 0.867677 -0.154628
H17   H     H_    0.643684 0.753533 0.351832 0.132413
H18   H     H_    0.354890 0.246268 0.646165 0.133655
H19   H     H_    0.856316 0.253537 0.148170 0.132431
H20   H     H_    0.145106 0.746266 0.853828 0.133666
C49   C     C_R   0.593046 0.868299 0.403369 -0.132877
C50   C     C_R   0.406540 0.131427 0.596048 -0.135991
C51   C     C_R   0.906953 0.368303 0.096631 -0.132917
C52   C     C_R   0.093457 0.631424 0.903947 -0.135997
H21   H     H_    0.581568 0.731382 0.415345 0.135566
H22   H     H_    0.417426 0.268265 0.583248 0.138146
H23   H     H_    0.918431 0.231386 0.084656 0.135568
H24   H     H_    0.082571 0.768262 0.916745 0.138149
C53   C     C_R   0.572530 0.029122 0.424387 0.016035
C54   C     C_R   0.428000 0.970614 0.576339 0.015598
C55   C     C_R   0.927469 0.529126 0.075611 0.016042
C56   C     C_R   0.071999 0.470611 0.923659 0.015602
C57   C     C_R   0.588695 0.203735 0.407260 -0.127035
C58   C     C_R   0.412569 0.796128 0.594498 -0.130100
C59   C     C_R   0.911304 0.703739 0.092737 -0.127042
C60   C     C_R   0.087430 0.296125 0.905503 -0.130090
H25   H     H_    0.573747 0.330827 0.422444 0.141334
H26   H     H_    0.428289 0.669061 0.580380 0.142306
H27   H     H_    0.926253 0.830831 0.077553 0.141332
H28   H     H_    0.071711 0.169058 0.919623 0.142300
C61   C     C_R   0.624642 0.216888 0.370516 -0.147955
C62   C     C_R   0.376412 0.783071 0.630962 -0.127378
C63   C     C_R   0.875358 0.716893 0.129482 -0.147996
C64   C     C_R   0.123587 0.283068 0.869039 -0.127318
H29   H     H_    0.636296 0.353671 0.358651 0.125872
H30   H     H_    0.365420 0.646384 0.643761 0.130200
H31   H     H_    0.863704 0.853675 0.141346 0.125875
H32   H     H_    0.134581 0.146380 0.856243 0.130184
C65   C     C_R   0.645451 0.055719 0.349890 -0.050364
C66   C     C_R   0.354606 0.944198 0.650192 -0.044448
C67   C     C_R   0.854549 0.555723 0.150109 -0.050384
C68   C     C_R   0.145392 0.444195 0.849807 -0.044418
N1    N     N_R   0.514478 0.168607 0.484304 -0.275722
N2    N     N_R   0.486207 0.831051 0.516629 -0.275077
N3    N     N_R   0.985520 0.668609 0.015691 -0.275725
N4    N     N_R   0.013791 0.331051 0.983372 -0.275077
N5    N     N_R   0.480826 0.154686 0.519838 -0.280721
N6    N     N_R   0.519851 0.844972 0.481080 -0.280661
N7    N     N_R   0.019172 0.654686 0.980158 -0.280723
N8    N     N_R   0.980149 0.344973 0.018920 -0.280666
C69   C     C_R   0.465899 0.985637 0.536856 0.520923
C70   C     C_R   0.534769 0.014028 0.464051 0.518590
C71   C     C_R   0.034100 0.485636 0.963141 0.520923
C72   C     C_R   0.965230 0.514031 0.035947 0.518583
S1    S     S_3+6 0.423887 0.881465 0.839763 -0.028378
O21   O     O_2   0.477451 0.818794 0.855520 -0.327407
O22   O     O_2   0.393706 0.723601 0.808054 -0.328352
O23   O     O_3   0.419219 0.064609 0.792897 -0.528544
H33   H     H_    0.436200 0.024745 0.760074 0.366131
S2    S     S_3+6 0.602123 0.758591 0.119796 0.014120
O24   O     O_2   0.557814 0.648720 0.088476 -0.314103
O25   O     O_2   0.648113 0.643920 0.118946 -0.307138
O26   O     O_3   0.596874 0.794556 0.191705 -0.488904
H34   H     H_    0.600364 0.930524 0.198188 0.284160
S3    S     S_3+6 0.076115 0.381608 0.660252 -0.028384
O27   O     O_2   0.022548 0.318968 0.644511 -0.327412
O28   O     O_2   0.106291 0.223761 0.691979 -0.328368
O29   O     O_3   0.080798 0.564815 0.707094 -0.528532
H35   H     H_    0.063809 0.525030 0.739919 0.366134
S4    S     S_3+6 0.897844 0.258519 0.380232 0.014117
O30   O     O_2   0.942162 0.148649 0.411526 -0.314170
O31   O     O_2   0.851856 0.143891 0.381141 -0.307134
O32   O     O_3   0.903039 0.294394 0.308300 -0.488893
H36   H     H_    0.899764 0.430427 0.301877 0.284137

loop_
_geom_bond_atom_site_label_1
_geom_bond_atom_site_label_2
_ccdc_geom_bond_type
N1    C70   A    
O17   V3    S    
C48   C52   A    
O1    C5    A    
C56   C71   S    
C47   H19   S    
O19   V1    S    
C9    C21   A    
O3    C7    A    
S3    O27   D    
C10   C18   A    
C48   C68   A    
O15   V3    S    
O26   H34   S    
C25   C33   A    
C33   C38   A    
C5    C12   S    
C53   C70   S    
O7    C3    A    
C6    C11   S    
S1    O22   D    
C35   C40   A    
C26   C30   A    
C58   C62   A    
C36   C39   A    
C40   C44   A    
C57   C61   A    
S3    O28   D    
C14   C18   A    
N7    C71   A    
C58   H26   S    
O4    C8    A    
C51   H23   S    
C50   H22   S    
C24   S3    S    
O1    V3    S    
C1    C68   S    
O13   V1    S    
C23   S4    S    
O2    V4    S    
O3    V1    S    
C40   H16   S    
C46   C50   A    
C17   H6    S    
C45   C49   A    
C1    O15   A    
C15   C31   A    
C4    C65   S    
C48   H20   S    
N2    C69   A    
C2    O16   A    
C16   C32   A    
C47   C51   A    
O2    C6    A    
C16   H12   S    
C45   C65   A    
C10   C22   A    
C11   C19   A    
C16   C20   A    
C43   H3    S    
N8    C72   A    
C13   C29   A    
C34   C37   A    
O11   C7    A    
C38   H14   S    
C11   C23   A    
C35   C36   A    
O12   C8    A    
S2    O26   S    
N6    C70   A    
O10   V2    S    
N4    N8    A    
C51   C55   A    
O5    V1    S    
C53   C57   A    
S1    O23   S    
C39   C43   A    
C63   C67   A    
C38   C42   A    
C26   C34   A    
S3    O29   S    
O7    V3    S    
N3    C72   A    
C2    C67   S    
C46   H18   S    
N4    C71   A    
C49   C53   A    
C45   H17   S    
O18   V4    S    
C23   C27   A    
C14   H10   S    
C32   C44   A    
C13   H9    S    
C64   H32   S    
C39   H15   S    
C44   H4    S    
O8    V4    S    
C20   H7    S    
C55   C72   S    
O5    C1    A    
C37   C41   A    
C31   C43   A    
C14   C30   A    
S4    O32   S    
C21   C25   A    
O8    C4    A    
C7    C10   S    
O9    C5    A    
O23   H33   S    
C59   C63   A    
C62   H30   S    
C22   S1    S    
C61   H29   S    
O6    V2    S    
S4    O31   D    
C63   H31   S    
C52   C56   A    
N1    N5    A    
C21   S2    S    
N5    C69   A    
C12   C20   A    
C3    C66   S    
C27   C35   A    
C49   H21   S    
C56   C60   A    
S2    O25   D    
C29   C41   A    
O16   V4    S    
O9    V1    S    
C19   H8    S    
C57   H25   S    
C3    O13   A    
C18   H5    S    
C64   C68   A    
O29   H35   S    
C59   H27   S    
O6    C2    A    
C15   C19   A    
O11   V3    S    
C30   C42   A    
O12   V4    S    
S1    O21   D    
C22   C26   A    
C8    C9    S    
C9    C17   A    
C60   C64   A    
O20   V2    S    
C54   C69   S    
C37   H13   S    
C47   C67   A    
O10   C6    A    
C33   C34   A    
C42   H2    S    
C41   H1    S    
C52   H24   S    
C12   C24   A    
C27   C31   A    
C13   C17   A    
C46   C66   A    
N3    N7    A    
C25   C29   A    
O14   V2    S    
C62   C66   A    
C60   H28   S    
C24   C28   A    
C61   C65   A    
S4    O30   D    
C50   C54   A    
C28   C36   A    
C54   C58   A    
C4    O14   A    
O32   H36   S    
N2    N6    A    
S2    O24   D    
C55   C59   A    
O4    V2    S    
C28   C32   A    
C15   H11   S    
