data_mof_unit_30936.cif
_audit_creation_date              2012-12-10T16:50:59-0500
_audit_creation_method            fapswitch 2.2
_symmetry_space_group_name_H-M    P1
_symmetry_Int_Tables_number       1
_space_group_crystal_system       triclinic
_cell_length_a                    7.88903
_cell_length_b                    8.564998
_cell_length_c                    10.442449
_cell_angle_alpha                 90.907699
_cell_angle_beta                  87.681829
_cell_angle_gamma                 93.014328
_cell_volume                      703.971933792

loop_
_atom_site_label
_atom_site_type_symbol
_atom_type_description
_atom_site_fract_x
_atom_site_fract_y
_atom_site_fract_z
_atom_type_partial_charge
C1    C     C_R   0.544867 0.793929 0.497636 0.981567
C2    C     C_R   0.897977 0.243498 0.062403 -0.146073
C3    C     C_R   0.011400 0.376512 0.061488 -0.145392
C4    C     C_R   0.900462 0.240503 0.926466 -0.152760
C5    C     C_R   0.160250 0.376797 0.130644 -0.224853
C6    C     C_R   0.754294 0.275505 0.862964 -0.221311
C7    C     C_R   0.320039 0.397633 0.067314 0.043294
C8    C     C_R   0.624749 0.351099 0.929980 0.039957
C9    C     C_R   0.328389 0.388590 0.932785 0.064737
C10   C     C_R   0.616645 0.346047 0.064981 0.082119
C11   C     C_R   0.474030 0.405070 0.131584 -0.216588
C12   C     C_R   0.455200 0.206026 0.503594 0.955178
C13   C     C_R   0.487144 0.406061 0.867815 -0.218868
C14   C     C_2   0.568441 0.957482 0.498127 -0.402055
C15   C     C_2   0.431732 0.042565 0.506058 -0.366485
C16   C     C_R   0.498415 0.471683 0.737898 0.901539
C17   C     C_R   0.491067 0.470305 0.262216 0.904779
C18   C     C_R   0.181348 0.341712 0.868095 0.115406
C19   C     C_R   0.740017 0.263315 0.126048 0.102974
C20   C     C_R   0.023113 0.364602 0.927964 -0.117632
H1    H     H_    0.944987 0.131703 0.885762 0.143118
H2    H     H_    0.990123 0.624374 0.589751 0.189892
H3    H     H_    0.082640 0.251557 0.702055 0.192914
H4    H     H_    0.212138 0.133637 0.777590 0.155984
H5    H     H_    0.798129 0.196406 0.301988 0.193329
H6    H     H_    0.687638 0.060203 0.217453 0.167401
H7    H     H_    0.951340 0.482070 0.095885 0.172344
H8    H     H_    0.984681 0.471742 0.884437 0.155013
H9    H     H_    0.955299 0.142130 0.101373 0.142472
H10   H     H_    0.148684 0.352456 0.231296 0.165030
H11   H     H_    0.745911 0.246001 0.762047 0.167825
H12   H     H_    0.698118 0.007344 0.491345 0.171809
H13   H     H_    0.302059 0.992745 0.513454 0.174803
H14   H     H_    0.008557 0.371020 0.415340 0.166761
N1    N     N_2   0.950330 0.457950 0.466250 -0.189399
N2    N     N_2   0.049670 0.542050 0.533750 -0.181659
N3    N     N_3   0.194413 0.249130 0.752416 -0.417150
N4    N     N_3   0.696661 0.179339 0.241098 -0.436995
O1    O     O_R   0.389250 0.738570 0.508280 -0.604249
O2    O     O_R   0.610750 0.261430 0.491720 -0.629178
O3    O     O_R   0.678390 0.711630 0.486650 -0.623564
O4    O     O_R   0.321610 0.288370 0.513350 -0.639324
O5    O     O_R   0.355430 0.513480 0.694040 -0.596723
O6    O     O_R   0.644570 0.486520 0.305960 -0.601545
O7    O     O_R   0.644570 0.486540 0.672410 -0.632465
O8    O     O_R   0.355430 0.513460 0.327590 -0.624151
Zn1   Zn    Zn3+2 0.306940 0.517990 0.514440 0.924674
Zn2   Zn    Zn3+2 0.693060 0.482010 0.485560 0.913499

loop_
_geom_bond_atom_site_label_1
_geom_bond_atom_site_label_2
_ccdc_geom_bond_type
C16   O7    A    
C12   O2    A    
C2    C4    A    
C5    C7    A    
C8    C13   A    
C19   N4    S    
H5    N4    S    
H2    N2    S    
N1    N2    D    
C12   C15   S    
C10   C19   A    
C3    H7    S    
C2    C3    A    
C17   O6    A    
C3    C20   A    
H3    N3    S    
C7    C11   A    
C4    H1    S    
C16   O5    A    
C2    H9    S    
N1    Zn2   S    
C4    C6    A    
C18   N3    S    
H4    N3    S    
C18   C20   A    
O4    Zn1   S    
O3    Zn2   S    
O7    Zn2   S    
C10   C11   A    
C1    O1    A    
C12   O4    A    
C4    C20   A    
C9    C18   A    
C17   O8    A    
N2    Zn1   S    
O1    Zn1   S    
H14   N1    S    
C5    H10   S    
C13   C16   S    
C1    O3    A    
C7    C9    A    
C6    H11   S    
C9    C13   A    
O8    Zn1   S    
H6    N4    S    
C6    C8    A    
C1    C14   S    
C20   H8    S    
C2    C19   A    
C14   C15   D    
O5    Zn1   S    
O2    Zn2   S    
C15   H13   S    
C8    C10   A    
C11   C17   S    
O6    Zn2   S    
C14   H12   S    
C3    C5    A    
