data_mof_unit_23217.cif
_audit_creation_date              2012-12-10T19:07:03-0500
_audit_creation_method            fapswitch 2.2
_symmetry_space_group_name_H-M    P1
_symmetry_Int_Tables_number       1
_space_group_crystal_system       triclinic
_cell_length_a                    27.794741
_cell_length_b                    10.856241
_cell_length_c                    9.528214
_cell_angle_alpha                 90.481588
_cell_angle_beta                  90.16436
_cell_angle_gamma                 90.096628
_cell_volume                      2874.98674117

loop_
_atom_site_label
_atom_site_type_symbol
_atom_type_description
_atom_site_fract_x
_atom_site_fract_y
_atom_site_fract_z
_atom_type_partial_charge
C1    C     C_R   0.501048 0.262185 0.498775 0.830581
C2    C     C_R   0.278572 0.509437 0.624496 -0.099258
C3    C     C_R   0.253401 0.498329 0.497364 0.350546
C4    C     C_R   0.101420 0.497933 0.492547 -0.046972
C5    C     C_R   0.126827 0.402901 0.559598 -0.020215
C6    C     C_R   0.101402 0.307924 0.623968 -0.140649
C7    C     C_R   0.127263 0.593317 0.427649 -0.021313
C8    C     C_R   0.354434 0.499176 0.499090 -0.036611
C9    C     C_R   0.644737 0.501893 0.499353 -0.099747
C10   C     C_R   0.973670 0.408163 0.566630 0.054284
C11   C     C_R   0.974180 0.586534 0.408508 -0.009378
C12   C     C_R   0.407427 0.499766 0.499773 0.793874
C13   C     C_R   0.948540 0.497756 0.486815 0.074216
C14   C     C_R   0.946696 0.326535 0.650282 -0.196491
C15   C     C_R   0.896853 0.329552 0.651214 -0.119724
C16   C     C_R   0.871781 0.413894 0.568931 -0.006309
C17   C     C_R   0.897304 0.498555 0.485705 -0.083714
C18   C     C_R   0.871579 0.583654 0.402063 -0.099348
C19   C     C_R   0.820651 0.580965 0.405964 0.586753
C20   C     C_R   0.821433 0.416041 0.569743 0.558360
C21   C     C_R   0.719277 0.399743 0.438091 -0.069396
C22   C     C_R   0.669152 0.401106 0.440817 -0.249201
C23   C     C_R   0.500059 0.737475 0.500322 0.851835
C24   C     C_R   0.670815 0.603182 0.552784 0.212151
C25   C     C_R   0.721027 0.601117 0.550130 -0.090116
C26   C     C_R   0.745411 0.499556 0.493115 0.275695
C27   C     C_R   0.024748 0.403779 0.561699 0.041401
C28   C     C_R   0.050274 0.497628 0.490473 0.072277
C29   C     C_R   0.025233 0.591256 0.417308 0.060899
C30   C     C_R   0.051421 0.308075 0.625089 -0.202172
C31   C     C_R   0.102282 0.688232 0.361688 -0.143410
C32   C     C_R   0.947880 0.667040 0.322014 -0.234424
C33   C     C_R   0.897830 0.666748 0.317826 0.315874
C34   C     C_R   0.592269 0.501051 0.500043 0.857999
C35   C     C_R   0.052331 0.687600 0.356712 -0.199699
C36   C     C_R   0.486776 0.064976 0.615854 0.049808
C37   C     C_R   0.499629 0.128553 0.494479 -0.155619
C38   C     C_R   0.507847 0.060179 0.368944 0.258257
C39   C     C_R   0.506338 0.932227 0.372282 -0.211322
C40   C     C_R   0.498177 0.870299 0.498491 -0.125048
C41   C     C_R   0.486242 0.938080 0.618040 0.102128
C42   C     C_3   0.506988 0.933586 0.762568 -0.413537
C43   C     C_3   0.507412 0.073339 0.760740 -0.376793
C44   C     C_R   0.523148 0.591051 0.074886 0.231357
C45   C     C_R   0.177347 0.404415 0.559451 0.536494
C46   C     C_R   0.472978 0.418043 0.073463 -0.018098
C47   C     C_R   0.473083 0.417792 0.924429 -0.060867
C48   C     C_R   0.523089 0.591238 0.927437 0.225985
C49   C     C_3   0.575375 0.622046 0.923004 -0.433942
C50   C     C_3   0.575367 0.621587 0.082163 -0.458672
C51   C     C_R   0.177758 0.592263 0.431532 0.537280
C52   C     C_R   0.278846 0.487440 0.371159 -0.099675
C53   C     C_R   0.329001 0.488121 0.371844 -0.213756
C54   C     C_R   0.328751 0.509575 0.625515 -0.217458
Cu1   Cu    Cu3+1 0.500000 0.499980 0.640670 0.964002
Cu2   Cu    Cu3+1 0.500000 0.500020 0.359330 0.979731
H1    H     H_    0.347370 0.518413 0.725112 0.159491
H2    H     H_    0.965412 0.730180 0.252140 0.169587
H3    H     H_    0.741226 0.678973 0.590990 0.184024
H4    H     H_    0.036030 0.766210 0.307521 0.148488
H5    H     H_    0.514311 0.881371 0.276819 0.188563
H6    H     H_    0.481258 0.894878 0.839708 0.197144
H7    H     H_    0.543613 0.892745 0.764767 0.226731
H8    H     H_    0.481785 0.115251 0.836612 0.206933
H9    H     H_    0.451830 0.350299 0.128646 0.156600
H10   H     H_    0.452061 0.349764 0.867638 0.138390
H11   H     H_    0.597615 0.547162 0.876647 0.239386
H12   H     H_    0.581865 0.715043 0.879464 0.226078
H13   H     H_    0.597447 0.545978 0.126551 0.235897
H14   H     H_    0.120068 0.232573 0.674203 0.189420
H15   H     H_    0.649344 0.323331 0.397929 0.177848
H16   H     H_    0.737867 0.321474 0.392720 0.169668
H17   H     H_    0.877977 0.264952 0.717505 0.196179
H18   H     H_    0.963013 0.260745 0.719607 0.146143
H19   H     H_    0.347800 0.479527 0.272842 0.157761
N1    N     N_R   0.201733 0.498391 0.496260 -0.467127
N2    N     N_R   0.797056 0.498680 0.489355 -0.469678
N3    N     N_R   0.500300 0.500930 0.147930 -0.182008
N4    N     N_R   0.500310 0.500890 0.852020 -0.186231
O1    O     O_R   0.500000 0.319640 0.618810 -0.589901
O2    O     O_2   0.796892 0.336785 0.651398 -0.515513
O3    O     O_2   0.202719 0.684783 0.371977 -0.536734
O4    O     O_2   0.794492 0.658901 0.327469 -0.457470
O5    O     O_R   0.500010 0.319680 0.381230 -0.541926
O6    O     O_R   0.430260 0.500000 0.618780 -0.590021
O7    O     O_R   0.430270 0.500040 0.381190 -0.591078
O8    O     O_R   0.499990 0.680320 0.618770 -0.574093
O9    O     O_R   0.500000 0.680360 0.381190 -0.592060
O10   O     O_R   0.569730 0.499960 0.618810 -0.565947
O11   O     O_R   0.569740 0.500000 0.381220 -0.573944
O12   O     O_2   0.201918 0.312180 0.620923 -0.537730
H20   H     H_    0.259680 0.478234 0.272501 0.146303
H21   H     H_    0.121277 0.764008 0.313358 0.190201
Br1   Br    Br    0.639469 0.749320 0.620089 -0.535735
Br2   Br    Br    0.869787 0.784542 0.191286 -0.397637
Br3   Br    Br    0.526893 0.129199 0.191822 -0.543393
H22   H     H_    0.259191 0.518414 0.722476 0.146892
H23   H     H_    0.544264 0.113403 0.762819 0.223784
H24   H     H_    0.581903 0.714051 0.129566 0.212417
H25   H     H_    0.034777 0.229829 0.674001 0.145446

loop_
_geom_bond_atom_site_label_1
_geom_bond_atom_site_label_2
_ccdc_geom_bond_type
C10   C27   A    
C21   C26   A    
C49   H12   S    
C41   C42   S    
C43   H23   S    
C32   H2    S    
Cu1   Cu2   S    
C1    O5    A    
C50   H24   S    
C12   O6    A    
C45   N1    A    
C14   H18   S    
C48   N4    A    
C28   C29   A    
C50   H13   S    
C5    C6    A    
C9    C22   A    
Cu2   O9    S    
C23   C40   S    
C30   H25   S    
Cu2   N3    S    
C18   C19   A    
C19   N2    A    
C2    H22   S    
C16   C17   A    
C47   N4    A    
C42   H6    S    
C47   H10   S    
C16   C20   A    
Cu2   O11   S    
C23   O8    A    
C21   C22   A    
C27   C30   A    
C36   C41   A    
C53   H19   S    
C4    C7    A    
C19   O4    S    
C33   Br2   S    
C4    C28   A    
C43   H8    S    
Cu2   O5    S    
C39   H5    S    
C26   N2    S    
C7    C31   A    
C21   H16   S    
C24   C25   A    
C46   H9    S    
C2    C54   A    
C8    C54   A    
C39   C40   A    
C46   N3    A    
C25   C26   A    
C31   H21   S    
C5    C45   A    
C35   H4    S    
Cu1   O6    S    
C34   O11   A    
C37   C38   A    
C24   Br1   S    
Cu1   N4    S    
Cu2   O7    S    
C8    C12   S    
C17   C18   A    
C51   N1    A    
C3    N1    S    
C51   O3    S    
C20   N2    A    
C40   C41   A    
C15   H17   S    
C11   C32   A    
C23   O9    A    
C10   C14   A    
C9    C34   S    
C31   C35   A    
C52   H20   S    
C42   C43   S    
C22   H15   S    
C52   C53   A    
C44   C50   S    
C6    H14   S    
C46   C47   A    
C36   C37   A    
C49   H11   S    
C6    C30   A    
C4    C5    A    
C10   C13   A    
C8    C53   A    
C3    C52   A    
C9    C24   A    
C1    C37   S    
C29   C35   A    
C12   O7    A    
C32   C33   A    
C44   N3    A    
C2    C3    A    
C34   O10   A    
C7    C51   A    
Cu1   O10   S    
Cu1   O1    S    
C11   C13   A    
C38   C39   A    
C48   C49   S    
Cu1   O8    S    
C45   O12   S    
C18   C33   A    
C13   C17   A    
C44   C48   A    
C11   C29   A    
C49   C50   S    
C38   Br3   S    
C27   C28   A    
C1    O1    A    
C14   C15   A    
C36   C43   S    
C25   H3    S    
C20   O2    S    
C42   H7    S    
C15   C16   A    
C54   H1    S    
