data_mof_unit_7143.cif
_audit_creation_date              2012-12-10T17:32:21-0500
_audit_creation_method            fapswitch 2.2
_symmetry_space_group_name_H-M    P1
_symmetry_Int_Tables_number       1
_space_group_crystal_system       triclinic
_cell_length_a                    12.455758
_cell_length_b                    13.088206
_cell_length_c                    15.03113
_cell_angle_alpha                 75.742461
_cell_angle_beta                  102.052945
_cell_angle_gamma                 116.795782
_cell_volume                      2106.33987971

loop_
_atom_site_label
_atom_site_type_symbol
_atom_type_description
_atom_site_fract_x
_atom_site_fract_y
_atom_site_fract_z
_atom_type_partial_charge
C1    C     C_R   0.855596 0.285654 0.505313 0.822394
C2    C     C_R   0.113211 0.555073 0.101312 0.001981
C3    C     C_R   0.780255 0.391936 0.031770 0.184139
C4    C     C_R   0.781719 0.395607 0.938086 -0.182350
C5    C     C_R   0.890933 0.447654 0.899368 0.075817
C6    C     C_R   0.001560 0.496948 0.954594 0.075903
C7    C     C_R   0.111806 0.545912 0.916061 0.069994
C8    C     C_R   0.221532 0.589823 0.971664 -0.190075
C9    C     C_R   0.223771 0.590758 0.064884 0.196751
C10   C     C_R   0.891280 0.450701 0.805927 -0.203357
C11   C     C_R   0.000901 0.499271 0.768044 -0.038793
C12   C     C_R   0.000453 0.499944 0.671074 0.832170
C13   C     C_R   0.110785 0.546447 0.822948 -0.181109
C14   C     C_R   0.279373 0.051138 0.427699 0.437078
C15   C     C_R   0.228232 0.842094 0.479170 -0.129989
C16   C     C_R   0.815564 0.071332 0.545311 0.003262
C17   C     C_R   0.731610 0.958816 0.579801 0.490782
C18   C     C_R   0.608519 0.932759 0.564624 -0.297250
C19   C     C_R   0.565139 0.011967 0.506597 0.044926
C20   C     C_R   0.649979 0.125080 0.474036 0.045358
C21   C     C_R   0.439624 0.983391 0.481719 0.056957
C22   C     C_R   0.401579 0.070611 0.432839 -0.012779
C23   C     C_R   0.144983 0.715422 0.488726 0.864174
C24   C     C_R   0.486642 0.172668 0.387033 -0.107987
C25   C     C_R   0.608842 0.199063 0.406558 -0.179705
C26   C     C_R   0.351795 0.869500 0.499170 -0.248723
C27   C     C_R   0.190808 0.934740 0.451154 0.011397
C28   C     C_R   0.774335 0.159551 0.505531 -0.186568
C29   C     C_R   0.375525 0.363610 0.667641 0.003474
C30   C     C_R   0.750799 0.643321 0.369550 0.340923
C31   C     C_R   0.656084 0.678185 0.347289 -0.201383
C32   C     C_R   0.559095 0.626218 0.397973 -0.196085
C33   C     C_R   0.552368 0.535808 0.471755 0.052795
C34   C     C_R   0.001324 0.503245 0.328691 0.889534
C35   C     C_R   0.654661 0.506173 0.497299 0.261213
C36   C     C_R   0.448991 0.476556 0.522798 -0.045444
C37   C     C_R   0.455717 0.396138 0.602751 0.134727
C38   C     C_R   0.546988 0.355438 0.619156 0.129509
C39   C     C_R   0.647544 0.415399 0.570983 -0.174033
C40   C     C_R   0.339648 0.494092 0.498788 -0.051845
C41   C     C_R   0.263543 0.371592 0.638812 0.585922
C42   C     C_R   0.108620 0.575062 0.188276 0.369925
C43   C     C_R   0.002168 0.507238 0.231187 -0.154398
C44   C     C_R   0.894338 0.443767 0.180807 -0.303791
C45   C     C_R   0.890961 0.444617 0.087001 0.122080
C46   C     C_R   0.001935 0.498312 0.047824 -0.055484
Cu1   Cu    Cu3+1 0.098270 0.475420 0.521130 1.045215
Cu2   Cu    Cu3+1 0.901730 0.524580 0.478870 0.953065
H1    H     H_    0.459563 0.229627 0.331890 0.203459
H2    H     H_    0.378984 0.799265 0.523324 0.181621
H3    H     H_    0.548338 0.848649 0.597346 0.183327
H4    H     H_    0.670589 0.277029 0.366976 0.155839
H5    H     H_    0.813040 0.396574 0.215265 0.161616
H6    H     H_    0.326685 0.550305 0.436494 0.189865
H7    H     H_    0.490089 0.658044 0.377293 0.188625
H8    H     H_    0.654718 0.743897 0.287413 0.161945
H9    H     H_    0.717608 0.386184 0.592416 0.204336
H10   H     H_    0.697331 0.356982 0.895145 0.139800
H11   H     H_    0.806584 0.413561 0.762937 0.140352
H12   H     H_    0.195314 0.584253 0.792844 0.168467
H13   H     H_    0.306041 0.619958 0.943197 0.160425
N1    N     N_R   0.246280 0.438190 0.553160 -0.250357
N2    N     N_R   0.754320 0.561190 0.447410 -0.198412
O1    O     O_R   0.972510 0.318130 0.526570 -0.526534
O2    O     O_R   0.806530 0.359650 0.490890 -0.616579
O3    O     O_R   0.082980 0.479210 0.647590 -0.514020
O4    O     O_R   0.917000 0.520730 0.611900 -0.603638
O5    O     O_R   0.193470 0.640350 0.509110 -0.578963
O6    O     O_R   0.027490 0.681870 0.473430 -0.587187
O7    O     O_R   0.083000 0.479270 0.388100 -0.565585
O8    O     O_R   0.917020 0.520790 0.352410 -0.601042
S1    S     S_3+6 0.209562 0.709924 0.224802 -0.019796
O9    O     O_2   0.302898 0.693511 0.300572 -0.361444
O10   O     O_2   0.271400 0.798012 0.145164 -0.275349
O11   O     O_3   0.130932 0.761680 0.264760 -0.566327
H14   H     H_    0.189979 0.840351 0.276052 0.374215
S2    S     S_3+6 0.241043 0.172451 0.406854 -0.042362
O12   O     O_2   0.147377 0.163222 0.324155 -0.317150
O13   O     O_2   0.189228 0.166700 0.490493 -0.322892
O14   O     O_3   0.358308 0.303632 0.389708 -0.567532
H15   H     H_    0.321696 0.357874 0.356796 0.371047
C47   C     C_3   0.942961 0.091786 0.539494 -0.540034
H16   H     H_    0.944737 0.012121 0.528867 0.231916
H17   H     H_    0.979279 0.158218 0.478378 0.236177
H18   H     H_    0.001993 0.116668 0.603547 0.305682
S3    S     S_3+6 0.776503 0.847321 0.641653 -0.011181
O15   O     O_2   0.681421 0.757782 0.701544 -0.287764
O16   O     O_2   0.792555 0.789721 0.573484 -0.333735
O17   O     O_3   0.907944 0.903865 0.708698 -0.495230
H19   H     H_    0.935185 0.840542 0.729738 0.380196
S4    S     S_3+6 0.155267 0.291986 0.722447 0.012740
O18   O     O_2   0.024877 0.263223 0.689491 -0.277482
O19   O     O_2   0.163574 0.178287 0.762780 -0.292639
O20   O     O_3   0.195042 0.368327 0.808182 -0.575560
H20   H     H_    0.145582 0.314172 0.858056 0.383302
C48   C     C_3   0.534730 0.240930 0.680388 -0.819104
H21   H     H_    0.557222 0.190306 0.643588 0.241972
H22   H     H_    0.597705 0.256220 0.744849 0.213817
H23   H     H_    0.440654 0.185734 0.697220 0.265919
C49   C     C_3   0.421943 0.346306 0.770006 -0.731587
H24   H     H_    0.521996 0.379597 0.781346 0.211807
H25   H     H_    0.402435 0.398547 0.806818 0.269113
H26   H     H_    0.382624 0.253568 0.802848 0.268538
C50   C     C_3   0.836514 0.690093 0.297157 -0.734435
H27   H     H_    0.839006 0.773756 0.255161 0.194555
H28   H     H_    0.930121 0.708737 0.326045 0.286178
H29   H     H_    0.805024 0.627509 0.249009 0.231851
C51   C     C_3   0.659919 0.333774 0.070331 -0.841172
H30   H     H_    0.657881 0.259624 0.126198 0.236293
H31   H     H_    0.645717 0.397295 0.098206 0.233186
H32   H     H_    0.583191 0.299465 0.016699 0.241261
C52   C     C_3   0.343258 0.614275 0.124557 -0.731481
H33   H     H_    0.331308 0.581444 0.198771 0.244186
H34   H     H_    0.388889 0.567402 0.106455 0.203626
H35   H     H_    0.403593 0.708566 0.113067 0.266350
C53   C     C_3   0.058779 0.908668 0.446605 -0.658553
H36   H     H_    0.023626 0.856943 0.513148 0.249919
H37   H     H_    0.039586 0.985434 0.432253 0.267904
H38   H     H_    0.007057 0.862080 0.389165 0.223383

loop_
_geom_bond_atom_site_label_1
_geom_bond_atom_site_label_2
_ccdc_geom_bond_type
C16   C28   A    
C21   C26   A    
C23   O6    A    
C19   C20   A    
Cu2   O6    S    
O11   H14   S    
Cu1   N1    S    
C50   H28   S    
C7    C8    A    
C13   H12   S    
S2    O12   D    
C53   H36   S    
C36   C37   A    
C19   C21   A    
C26   H2    S    
C30   C31   A    
S3    O16   D    
C29   C37   A    
C20   C25   A    
C39   H9    S    
C48   H23   S    
C33   C36   A    
C40   N1    A    
C51   H30   S    
C18   C19   A    
C14   S2    S    
C52   H33   S    
C44   H5    S    
Cu1   Cu2   S    
C53   H37   S    
C8    C9    A    
C48   H22   S    
C1    C28   S    
C1    O2    A    
C14   C27   A    
C6    C46   A    
C34   O7    A    
Cu1   O3    S    
C8    H13   S    
S1    O9    D    
C27   C53   S    
C9    C52   S    
C15   C23   S    
C21   C22   A    
C41   N1    A    
S1    O11   S    
C52   H34   S    
C50   H27   S    
C18   H3    S    
S2    O13   D    
C38   C39   A    
C12   O4    A    
C17   S3    S    
C36   C40   A    
C24   C25   A    
S1    O10   D    
S4    O18   D    
S3    O15   D    
C16   C17   A    
C15   C26   A    
C20   C28   A    
C45   C46   A    
Cu2   O2    S    
C12   O3    A    
C3    C45   A    
C49   H26   S    
C2    C46   A    
C23   O5    A    
C35   C39   A    
C43   C44   A    
Cu1   O7    S    
C37   C38   A    
S4    O19   D    
C15   C27   A    
C31   C32   A    
C7    C13   A    
C48   H21   S    
C49   H25   S    
C17   C18   A    
C41   S4    S    
C47   H16   S    
C47   H17   S    
C31   H8    S    
C22   C24   A    
C42   C43   A    
Cu2   O8    S    
C30   C50   S    
C3    C4    A    
C1    O1    A    
Cu1   O5    S    
Cu1   O1    S    
C44   C45   A    
S2    O14   S    
C24   H1    S    
C32   H7    S    
C29   C49   S    
C29   C41   A    
C34   C43   S    
O14   H15   S    
Cu2   N2    S    
S3    O17   S    
C11   C12   S    
C53   H38   S    
C6    C7    A    
C3    C51   S    
C47   H18   S    
C40   H6    S    
C51   H32   S    
C32   C33   A    
C14   C22   A    
C10   H11   S    
O17   H19   S    
C25   H4    S    
C5    C10   A    
S4    O20   S    
C11   C13   A    
C5    C6    A    
C2    C42   A    
C49   H24   S    
C33   C35   A    
C51   H31   S    
C52   H35   S    
Cu2   O4    S    
O20   H20   S    
C38   C48   S    
C10   C11   A    
C4    C5    A    
C16   C47   S    
C4    H10   S    
C35   N2    A    
C42   S1    S    
C30   N2    A    
C2    C9    A    
C34   O8    A    
C50   H29   S    
