data_mof_unit_15016.cif
_audit_creation_date              2012-12-10T17:21:39-0500
_audit_creation_method            fapswitch 2.2
_symmetry_space_group_name_H-M    P1
_symmetry_Int_Tables_number       1
_space_group_crystal_system       triclinic
_cell_length_a                    10.779061
_cell_length_b                    10.880003
_cell_length_c                    9.583095
_cell_angle_alpha                 90.171127
_cell_angle_beta                  89.314564
_cell_angle_gamma                 92.881971
_cell_volume                      1122.36416009

loop_
_atom_site_label
_atom_site_type_symbol
_atom_type_description
_atom_site_fract_x
_atom_site_fract_y
_atom_site_fract_z
_atom_type_partial_charge
C1    C     C_R   0.494365 0.261793 0.499318 0.846983
C2    C     C_3   0.877800 0.496297 0.499971 -0.056809
C3    C     C_3   0.932408 0.601236 0.594911 -0.333884
C4    C     C_3   0.931281 0.517375 0.350111 -0.448217
C5    C     C_R   0.337008 0.118205 0.701726 -0.153404
C6    C     C_R   0.268219 0.050550 0.802255 0.469383
C7    C     C_R   0.264103 0.923155 0.798280 -0.154129
C8    C     C_R   0.331091 0.862906 0.696761 -0.248380
C9    C     C_R   0.409383 0.929296 0.600508 0.103548
C10   C     C_R   0.411600 0.059654 0.600689 0.020623
C11   C     C_R   0.483387 0.126350 0.496301 -0.075800
C12   C     C_R   0.259997 0.500622 0.500568 0.840578
C13   C     C_R   0.542614 0.060845 0.386752 0.139612
C14   C     C_R   0.543564 0.933948 0.394486 -0.209880
C15   C     C_R   0.481705 0.868706 0.500593 -0.091896
C16   C     C_R   0.665938 0.663332 0.142861 -0.240356
C17   C     C_R   0.746103 0.744541 0.070197 -0.258278
C18   C     C_R   0.745575 0.745789 0.926282 0.385106
C19   C     C_R   0.664963 0.665123 0.854446 -0.199198
C20   C     C_R   0.581373 0.580854 0.924429 0.170326
C21   C     C_R   0.581590 0.580424 0.074092 0.227175
C22   C     C_R   0.422254 0.423618 0.074850 -0.045401
C23   C     C_R   0.493263 0.736459 0.500446 0.773969
C24   C     C_R   0.422275 0.423807 0.926983 0.004291
C25   C     C_R   0.739957 0.498888 0.499476 0.804092
C26   C     C_3   0.065497 0.376194 0.571409 0.605893
C27   C     C_3   0.921684 0.369260 0.551460 0.192430
C28   C     C_3   0.075378 0.610853 0.582560 -0.405014
C29   C     C_3   0.072677 0.506891 0.349481 -0.409144
C30   C     C_3   0.121697 0.497643 0.501621 -0.049631
Cu1   Cu    Cu3+1 0.499990 0.499990 0.640660 0.986477
Cu2   Cu    Cu3+1 0.500010 0.500010 0.359340 0.948500
H1    H     H_    0.908568 0.610211 0.312389 0.205180
H2    H     H_    0.105297 0.696975 0.526425 0.188395
H3    H     H_    0.894695 0.690764 0.565263 0.192524
H4    H     H_    0.326059 0.215694 0.701824 0.203516
H5    H     H_    0.206991 0.870277 0.872569 0.189165
H6    H     H_    0.317578 0.764081 0.693760 0.176091
H7    H     H_    0.595342 0.884546 0.316542 0.152837
H8    H     H_    0.358480 0.360996 0.130806 0.175825
H9    H     H_    0.674022 0.670079 0.252793 0.212861
H10   H     H_    0.808858 0.807049 0.126718 0.190885
H11   H     H_    0.672024 0.672829 0.744368 0.211253
H12   H     H_    0.358225 0.361812 0.872843 0.186119
H13   H     H_    0.900710 0.302018 0.467146 0.122772
H14   H     H_    0.116017 0.618539 0.688492 0.219897
H15   H     H_    0.905089 0.582836 0.705499 0.239989
H16   H     H_    0.116499 0.589083 0.295954 0.207609
H17   H     H_    0.097219 0.424781 0.287481 0.235830
H18   H     H_    0.889690 0.448459 0.275887 0.211280
N1    N     N_R   0.501200 0.501210 0.147910 -0.203660
N2    N     N_R   0.501250 0.501290 0.852040 -0.198885
O1    O     O_R   0.499990 0.319640 0.618810 -0.567714
O2    O     O_R   0.500000 0.319660 0.381240 -0.582045
O3    O     O_R   0.317680 0.499970 0.618790 -0.566134
O4    O     O_R   0.317700 0.499990 0.381210 -0.579604
O5    O     O_R   0.500000 0.680340 0.618760 -0.611192
O6    O     O_R   0.500010 0.680360 0.381190 -0.600821
O7    O     O_R   0.682300 0.500010 0.618790 -0.550797
O8    O     O_R   0.682320 0.500030 0.381210 -0.614939
Cl1   Cl    Cl    0.105498 0.372487 0.753592 -0.511814
C31   C     C_3   0.606583 0.118764 0.258350 -0.370812
C32   C     C_3   0.732034 0.181127 0.292724 -0.724916
H19   H     H_    0.719991 0.257744 0.366476 0.242626
H20   H     H_    0.776942 0.218775 0.195958 0.262585
H21   H     H_    0.793514 0.113869 0.339674 0.267111
H22   H     H_    0.624201 0.047672 0.177766 0.209857
H23   H     H_    0.545820 0.182225 0.204528 0.232018
Cl2   Cl    Cl    0.183832 0.124854 0.932426 -0.513714
Cl3   Cl    Cl    0.128981 0.242568 0.492265 -0.627067
Cl4   Cl    Cl    0.846567 0.849560 0.834882 -0.578723
Cl5   Cl    Cl    0.835817 0.305072 0.699286 -0.472954

loop_
_geom_bond_atom_site_label_1
_geom_bond_atom_site_label_2
_ccdc_geom_bond_type
C24   N2    A    
C6    Cl2   S    
C2    C4    S    
C1    O2    A    
C32   H20   S    
Cu2   N1    S    
C16   C21   A    
C25   O8    A    
C3    H3    S    
C23   O6    A    
C9    C10   A    
C19   C20   A    
C4    H18   S    
C4    C29   S    
C1    C11   S    
Cu2   O6    S    
Cu1   N2    S    
C2    C27   S    
C22   H8    S    
Cu1   O5    S    
C31   C32   S    
C15   C23   S    
C17   C18   A    
C9    C15   A    
C32   H21   S    
C28   H2    S    
C5    C10   A    
C20   N2    A    
C29   H17   S    
C13   C14   A    
Cu1   O1    S    
C11   C13   A    
C28   H14   S    
C26   C27   S    
C29   C30   S    
C8    H6    S    
C31   H22   S    
C26   Cl3   S    
Cu2   O2    S    
C3    C28   S    
C12   O4    A    
C26   Cl1   S    
C28   C30   S    
C26   C30   S    
C6    C7    A    
C2    C3    S    
C31   H23   S    
C21   N1    A    
C7    H5    S    
C5    C6    A    
C24   H12   S    
C22   C24   A    
C12   O3    A    
C16   C17   A    
C27   H13   S    
Cu2   O8    S    
C29   H16   S    
Cu1   O7    S    
C32   H19   S    
C5    H4    S    
C2    C25   S    
C7    C8    A    
C20   C21   A    
C18   C19   A    
C10   C11   A    
C3    H15   S    
C18   Cl4   S    
C23   O5    A    
C4    H1    S    
C1    O1    A    
C17   H10   S    
C22   N1    A    
C25   O7    A    
Cu1   O3    S    
C14   H7    S    
C14   C15   A    
C12   C30   S    
C16   H9    S    
Cu2   O4    S    
C13   C31   S    
Cu1   Cu2   S    
C19   H11   S    
C8    C9    A    
C27   Cl5   S    
