data_mof_unit_15800.cif
_audit_creation_date              2012-12-11T17:08:29-0500
_audit_creation_method            fapswitch 2.2
_symmetry_space_group_name_H-M    P1
_symmetry_Int_Tables_number       1
_space_group_crystal_system       triclinic
_cell_length_a                    6.948263
_cell_length_b                    14.49812
_cell_length_c                    16.095435
_cell_angle_alpha                 90.055902
_cell_angle_beta                  89.994193
_cell_angle_gamma                 90.010658
_cell_volume                      1621.40101597

loop_
_atom_site_label
_atom_site_type_symbol
_atom_type_description
_atom_site_fract_x
_atom_site_fract_y
_atom_site_fract_z
_atom_type_partial_charge
O1    O     O_R   0.505700 0.583890 0.413310 -0.544367
O2    O     O_R   0.175960 0.594920 0.586080 -0.523468
O3    O     O_R   0.005660 0.416110 0.586690 -0.548614
C1    C     C_R   0.344682 0.617304 0.614603 0.716342
O4    O     O_R   0.175980 0.594920 0.413930 -0.532794
O5    O     O_R   0.005680 0.416110 0.413310 -0.514134
C2    C     C_R   0.344746 0.616749 0.384979 0.724258
O6    O     O_R   0.505680 0.583890 0.586690 -0.561541
O7    O     O_3   0.339200 0.441330 0.500000 -0.339373
V1    V     V_3+5 0.064350 0.510880 0.500000 1.589208
O8    O     O_R   0.675960 0.405080 0.413920 -0.506862
C3    C     C_R   0.844977 0.382786 0.385409 0.834107
O9    O     O_R   0.675940 0.405080 0.586070 -0.524206
C4    C     C_R   0.844669 0.382610 0.614349 0.764121
V2    V     V_3+5 0.564340 0.489120 0.500000 1.607264
O10   O     O_3   0.839360 0.558670 0.500000 -0.386942
C5    C     C_R   0.982546 0.324270 0.748397 -0.049866
C6    C     C_R   0.851615 0.314892 0.682999 -0.256624
C7    C     C_R   0.718853 0.241419 0.687455 0.590685
C8    C     C_R   0.730177 0.174701 0.751350 0.169007
C9    C     C_R   0.873888 0.182393 0.814550 -0.268461
C10   C     C_R   0.992290 0.260618 0.812693 0.013823
C11   C     C_3   0.206538 0.269371 0.818407 0.162219
C12   C     C_3   0.194855 0.339428 0.747779 -0.338871
H1    H     H_    0.283583 0.204421 0.803027 0.126549
H2    H     H_    0.263604 0.314764 0.689502 0.203050
H3    H     H_    0.232756 0.411206 0.765943 0.168256
C13   C     C_R   0.752233 0.260083 0.180783 -0.127298
C14   C     C_R   0.882714 0.186488 0.182039 -0.127874
C15   C     C_R   0.014630 0.183442 0.248571 -0.161808
H4    H     H_    0.120977 0.128947 0.251359 0.196061
C16   C     C_R   0.001430 0.246504 0.315331 0.692682
C17   C     C_R   0.858094 0.315676 0.316218 -0.163688
C18   C     C_R   0.741646 0.323468 0.245506 -0.139897
C19   C     C_3   0.529096 0.333657 0.236182 0.515140
C20   C     C_3   0.540554 0.263722 0.165521 0.509343
H5    H     H_    0.484718 0.403952 0.216486 0.005043
H6    H     H_    0.502413 0.292100 0.103614 -0.038928
C21   C     C_R   0.494735 0.677260 0.746062 -0.072085
C22   C     C_R   0.351872 0.683492 0.684803 -0.196297
C23   C     C_R   0.209960 0.752408 0.694984 0.604924
C24   C     C_R   0.220888 0.815914 0.761188 -0.235717
H7    H     H_    0.113656 0.869918 0.765311 0.139830
C25   C     C_R   0.375756 0.813979 0.817789 -0.211635
C26   C     C_R   0.506900 0.741213 0.810598 0.081101
C27   C     C_3   0.722375 0.741858 0.806660 0.143633
C28   C     C_3   0.708140 0.670640 0.737093 -0.334847
H8    H     H_    0.781920 0.808998 0.785310 0.101084
H9    H     H_    0.763873 0.601029 0.752977 0.162103
H10   H     H_    0.756929 0.697064 0.675956 0.212329
C29   C     C_R   0.503803 0.680156 0.256556 -0.017251
C30   C     C_R   0.352463 0.681965 0.314146 -0.146609
C31   C     C_R   0.202668 0.745463 0.299779 -0.093440
H11   H     H_    0.081713 0.748922 0.341888 0.121900
C32   C     C_R   0.214047 0.809746 0.234337 -0.088656
H12   H     H_    0.101140 0.860591 0.227988 0.122653
C33   C     C_R   0.375617 0.812561 0.181341 -0.158011
C34   C     C_R   0.515333 0.743949 0.191901 -0.022684
C35   C     C_3   0.727963 0.752776 0.200870 0.486284
C36   C     C_3   0.715507 0.682792 0.271032 0.466105
H13   H     H_    0.773739 0.822824 0.220639 -0.043425
H14   H     H_    0.754644 0.710191 0.333254 -0.030122
O11   O     O_R   0.229000 0.916070 0.913330 -0.545572
O12   O     O_R   0.558770 0.905070 0.086080 -0.530485
O13   O     O_R   0.729000 0.083900 0.086690 -0.509020
C37   C     C_R   0.389689 0.882939 0.114822 0.758198
O14   O     O_R   0.558720 0.905070 0.913930 -0.548534
O15   O     O_R   0.728960 0.083900 0.913310 -0.551685
C38   C     C_R   0.389726 0.883326 0.884995 0.716514
O16   O     O_R   0.229050 0.916070 0.086710 -0.531710
O17   O     O_3   0.395460 0.058650 0.000020 -0.362419
V3    V     V_3+5 0.670340 0.989120 0.000000 1.478648
O18   O     O_R   0.058670 0.094960 0.913900 -0.553026
C39   C     C_R   0.889407 0.115100 0.883701 0.709873
O19   O     O_R   0.058720 0.094960 0.086050 -0.531851
C40   C     C_R   0.889978 0.117070 0.114685 0.744682
V4    V     V_3+5 0.170330 0.010930 0.999970 1.468292
O20   O     O_3   0.895340 0.941350 0.999980 -0.371061
F1    F     F_    0.585879 0.230140 0.626393 -0.650731
F2    F     F_    0.431549 0.300653 0.304827 -0.584596
F3    F     F_    0.451128 0.180978 0.184264 -0.637395
F4    F     F_    0.070000 0.763635 0.637163 -0.712715
N1    N     N_2   0.817739 0.707590 0.881332 -0.507155
H15   H     H_    0.876418 0.759554 0.917051 0.282072
C41   C     C_3   0.724717 0.636883 0.930916 -0.396899
H16   H     H_    0.827835 0.610596 0.977946 0.233405
H17   H     H_    0.678409 0.577900 0.891748 0.172120
H18   H     H_    0.598235 0.666239 0.963892 0.198577
N2    N     N_2   0.604546 0.097295 0.746167 -0.482482
H19   H     H_    0.520163 0.085664 0.797636 0.251147
C42   C     C_3   0.690520 0.014625 0.712180 -0.414868
H20   H     H_    0.578031 0.960934 0.704214 0.180307
H21   H     H_    0.803052 0.987608 0.754680 0.144722
H22   H     H_    0.755171 0.029240 0.650432 0.229961
F5    F     F_    0.823511 0.719427 0.131590 -0.637520
F6    F     F_    0.801049 0.599238 0.251626 -0.642199
N3    N     N_2   0.265678 0.310780 0.896417 -0.492718
H23   H     H_    0.207553 0.278845 0.947913 0.266288
C43   C     C_3   0.470676 0.325728 0.904444 -0.541308
H24   H     H_    0.499414 0.368160 0.960499 0.197178
H25   H     H_    0.528242 0.363011 0.849493 0.196096
H26   H     H_    0.546026 0.258613 0.911102 0.191732
F7    F     F_    0.119473 0.235518 0.381764 -0.606569

loop_
_geom_bond_atom_site_label_1
_geom_bond_atom_site_label_2
_ccdc_geom_bond_type
C32   H12   S    
O18   C39   A    
C4    C6    S    
C7    C8    A    
C12   H3    S    
C33   C37   S    
C1    O6    A    
O12   V3    S    
N3    H23   S    
C28   H9    S    
C14   C40   S    
C31   H11   S    
C25   C26   A    
O13   C40   A    
C35   F5    S    
C13   C14   A    
C19   H5    S    
C12   H2    S    
C2    C30   S    
O14   V3    S    
C41   H16   S    
C15   H4    S    
O15   C39   A    
V2    O10   S    
C19   F2    S    
C36   H14   S    
C18   C19   S    
C23   C24   A    
V3    O20   S    
O8    V2    S    
O11   C38   A    
C11   C12   S    
O1    V2    S    
N2    C42   S    
O7    V1    S    
C42   H20   S    
C21   C26   A    
C41   H17   S    
C13   C18   A    
C35   C36   S    
O9    C4    A    
O16   V4    S    
C24   C25   A    
O5    C3    A    
N3    C43   S    
C17   C18   A    
C28   H10   S    
C31   C32   A    
C27   H8    S    
C35   H13   S    
C5    C12   S    
C29   C30   A    
C1    C22   S    
C21   C22   A    
O4    C2    A    
C6    C7    A    
C34   C35   S    
V4    O20   S    
C9    C39   S    
O14   C38   A    
C19   C20   S    
O12   C37   A    
O2    C1    A    
O19   C40   A    
C14   C15   A    
C42   H21   S    
N1    H15   S    
C20   F3    S    
O15   V3    S    
C5    C6    A    
C16   F7    S    
C25   C38   S    
C29   C34   A    
C7    F1    S    
O19   V4    S    
O3    C4    A    
C36   F6    S    
C22   C23   A    
N1    C41   S    
O6    V2    S    
C32   C33   A    
C24   H7    S    
O2    V1    S    
O17   V4    S    
C30   C31   A    
C21   C28   S    
O11   V4    S    
C41   H18   S    
C27   C28   S    
C11   N3    S    
O1    C2    A    
O5    V1    S    
O8    C3    A    
O13   V3    S    
C8    N2    S    
C5    C10   A    
C43   H24   S    
C16   C17   A    
O9    V2    S    
O7    V2    S    
O4    V1    S    
O3    V1    S    
V1    O10   S    
C42   H22   S    
C15   C16   A    
C33   C34   A    
C37   O16   A    
C3    C17   S    
C23   F4    S    
C20   H6    S    
C11   H1    S    
C27   N1    S    
C26   C27   S    
O17   V3    S    
C43   H26   S    
C8    C9    A    
C13   C20   S    
O18   V4    S    
C10   C11   S    
C29   C36   S    
N2    H19   S    
C9    C10   A    
C43   H25   S    
