data_mof_unit_29703.cif
_audit_creation_date              2012-12-10T17:48:47-0500
_audit_creation_method            fapswitch 2.2
_symmetry_space_group_name_H-M    P1
_symmetry_Int_Tables_number       1
_space_group_crystal_system       triclinic
_cell_length_a                    10.746078
_cell_length_b                    14.715082
_cell_length_c                    14.808193
_cell_angle_alpha                 64.963447
_cell_angle_beta                  103.990936
_cell_angle_gamma                 102.576914
_cell_volume                      2040.82674432

loop_
_atom_site_label
_atom_site_type_symbol
_atom_type_description
_atom_site_fract_x
_atom_site_fract_y
_atom_site_fract_z
_atom_type_partial_charge
C1    C     C_R   0.477616 0.119495 0.312658 0.833196
C2    C     C_3   0.878284 0.001174 0.499363 -0.027120
C3    C     C_3   0.928232 0.902610 0.583797 0.172548
C4    C     C_3   0.960871 0.094277 0.519038 -0.373199
C5    C     C_R   0.456044 0.186700 0.205565 -0.077623
C6    C     C_R   0.537273 0.812233 0.794747 -0.119697
C7    C     C_R   0.347698 0.217879 0.034017 -0.168008
C8    C     C_R   0.371872 0.152325 0.134889 -0.274227
C9    C     C_R   0.516858 0.286985 0.174527 0.344452
C10   C     C_R   0.473658 0.358134 0.076738 -0.021265
C11   C     C_R   0.398016 0.320447 0.004621 0.091574
C12   C     C_R   0.260211 0.001221 0.499254 0.818814
C13   C     C_R   0.502966 0.464612 0.048655 0.017711
C14   C     C_R   0.482457 0.531085 0.944498 0.098481
C15   C     C_R   0.430747 0.486355 0.871730 0.136557
C16   C     C_R   0.378939 0.384398 0.903203 -0.238427
C17   C     C_R   0.545768 0.505903 0.122890 -0.234494
C18   C     C_R   0.588309 0.607910 0.097289 -0.164678
C19   C     C_R   0.578201 0.674715 0.996166 0.107829
C20   C     C_R   0.516524 0.637989 0.919208 0.024301
C21   C     C_R   0.623728 0.778631 0.971448 0.415181
C22   C     C_R   0.606219 0.846326 0.869798 -0.278488
C23   C     C_R   0.521293 0.880336 0.687487 0.817667
C24   C     C_R   0.486549 0.710434 0.820913 -0.207333
C25   C     C_R   0.750113 0.302845 0.633137 -0.250825
C26   C     C_R   0.699913 0.212237 0.621902 0.044322
C27   C     C_R   0.513007 0.282586 0.513210 0.090813
C28   C     C_R   0.557695 0.377057 0.522462 -0.082106
C29   C     C_R   0.681511 0.386722 0.581525 0.125105
C30   C     C_R   0.486141 0.462146 0.474018 -0.010868
C31   C     C_R   0.537807 0.553685 0.488876 0.026083
C32   C     C_R   0.668648 0.563675 0.533782 -0.326176
C33   C     C_R   0.738504 0.480992 0.584000 0.416146
C34   C     C_R   0.739856 0.999973 0.499744 0.789225
C35   C     C_R   0.367724 0.460391 0.407943 -0.212150
C36   C     C_R   0.301968 0.544736 0.357320 0.413361
C37   C     C_R   0.344044 0.630973 0.381761 0.027847
C38   C     C_R   0.460025 0.634679 0.451854 -0.081295
C39   C     C_R   0.269618 0.711637 0.340654 -0.297997
C40   C     C_R   0.308930 0.794220 0.367906 0.037006
C41   C     C_R   0.488048 0.717536 0.484453 0.338857
C42   C     C_3   0.039843 0.006718 0.396218 -0.440854
C43   C     C_3   0.895865 0.008290 0.394891 0.178553
C44   C     C_3   0.071787 0.903376 0.582232 -0.417058
C45   C     C_3   0.105922 0.097075 0.519135 0.557141
C46   C     C_3   0.122812 0.003221 0.499291 -0.025645
Cu1   Cu    Cu3+1 0.465900 0.918260 0.475680 0.940300
Cu2   Cu    Cu3+1 0.534100 0.081740 0.524320 0.995355
H1    H     H_    0.047909 0.938712 0.383989 0.154310
H2    H     H_    0.947620 0.091927 0.592314 0.191180
H3    H     H_    0.132204 0.892090 0.657662 0.203319
H4    H     H_    0.331632 0.353605 0.846753 0.152667
H5    H     H_    0.419209 0.691059 0.763324 0.204288
H6    H     H_    0.645083 0.925467 0.849585 0.155575
H7    H     H_    0.626232 0.634559 0.157801 0.201570
H8    H     H_    0.287382 0.188924 0.979354 0.152718
H9    H     H_    0.326364 0.074507 0.157324 0.171004
H10   H     H_    0.077049 0.072612 0.332173 0.204045
H11   H     H_    0.546255 0.459873 0.202354 0.203105
H12   H     H_    0.252479 0.856707 0.334146 0.132132
H13   H     H_    0.844097 0.307699 0.679631 0.193656
H14   H     H_    0.755359 0.149117 0.658346 0.130971
H15   H     H_    0.423299 0.269782 0.466323 0.141827
H16   H     H_    0.721035 0.636658 0.526235 0.130252
H17   H     H_    0.326549 0.396015 0.388755 0.160237
H18   H     H_    0.179629 0.711666 0.288651 0.162560
H19   H     H_    0.838518 0.941148 0.380665 0.107734
H20   H     H_    0.080216 0.837482 0.566566 0.153751
H21   H     H_    0.872378 0.835794 0.568729 0.085357
H22   H     H_    0.924217 0.165144 0.460752 0.198187
N1    N     N_R   0.585360 0.204570 0.560800 -0.179019
N2    N     N_R   0.414550 0.795430 0.439160 -0.171688
O1    O     O_R   0.455060 0.022100 0.338110 -0.608318
O2    O     O_R   0.512640 0.160150 0.379180 -0.530626
O3    O     O_R   0.288900 0.930980 0.479450 -0.610257
O4    O     O_R   0.346480 0.069030 0.520520 -0.529542
O5    O     O_R   0.487360 0.839850 0.620820 -0.551099
O6    O     O_R   0.544940 0.977900 0.661890 -0.583055
O7    O     O_R   0.653520 0.930970 0.479480 -0.607758
O8    O     O_R   0.711100 0.069020 0.520550 -0.575849
O9    O     O_3   0.915180 0.893156 0.679806 -0.728359
H23   H     H_    0.825260 0.861558 0.689586 0.323486
O10   O     O_3   0.626020 0.309605 0.237057 -0.723920
H24   H     H_    0.686759 0.360905 0.193882 0.337297
N3    N     N_3   0.439033 0.539355 0.766701 -0.613974
H25   H     H_    0.345432 0.538069 0.725018 0.226569
H26   H     H_    0.490955 0.499680 0.747388 0.226032
O11   O     O_3   0.686481 0.811946 0.047295 -0.746560
H27   H     H_    0.711549 0.886225 0.017042 0.326007
O12   O     O_3   0.864429 0.491732 0.633207 -0.742070
H28   H     H_    0.889316 0.562083 0.629396 0.322090
N4    N     N_3   0.580381 0.716477 0.572488 -0.535189
H29   H     H_    0.584379 0.643468 0.627708 0.219063
H30   H     H_    0.670585 0.750712 0.552553 0.195175
O13   O     O_3   0.193833 0.537787 0.286801 -0.723193
H31   H     H_    0.191059 0.604336 0.229320 0.323268
O14   O     O_3   0.854574 0.097370 0.316348 -0.711529
H32   H     H_    0.759394 0.083498 0.297343 0.330183
O15   O     O_3   0.180277 0.094730 0.612929 -0.711733
H33   H     H_    0.140386 0.039476 0.668944 0.338385
N5    N     N_3   0.152131 0.192353 0.440081 -0.571262
H34   H     H_    0.152767 0.252213 0.460790 0.238085
H35   H     H_    0.088973 0.206421 0.371193 0.230025

loop_
_geom_bond_atom_site_label_1
_geom_bond_atom_site_label_2
_ccdc_geom_bond_type
N5    H34   S    
C40   H12   S    
Cu2   O4    S    
O13   H31   S    
Cu1   O7    S    
C42   H10   S    
C4    H22   S    
O14   H32   S    
C7    C8    A    
C22   H6    S    
C45   C46   S    
C7    C11   A    
C30   C35   A    
O10   H24   S    
C1    C5    S    
C1    O2    A    
C36   C37   A    
C3    H21   S    
C30   C31   A    
C34   O7    A    
C35   H17   S    
C15   C16   A    
C6    C22   A    
C29   C33   A    
C18   C19   A    
C42   C46   S    
Cu2   O6    S    
C20   C24   A    
C34   O8    A    
C19   C20   A    
C3    O9    S    
C13   C14   A    
C9    C10   A    
C15   N3    S    
C2    C34   S    
C21   O11   S    
N5    H35   S    
C21   C22   A    
C26   N1    A    
C7    H8    S    
C44   C46   S    
O9    H23   S    
C4    C45   S    
N3    H26   S    
C25   C29   A    
C3    C44   S    
Cu2   O2    S    
C32   H16   S    
C38   C41   A    
C12   C46   S    
C45   O15   S    
C39   C40   A    
C24   H5    S    
N3    H25   S    
C4    H2    S    
C35   C36   A    
C2    C4    S    
C5    C9    A    
C37   C38   A    
C14   C20   A    
C8    H9    S    
C11   C16   A    
Cu1   Cu2   S    
C2    C43   S    
C6    C24   A    
N4    H30   S    
C17   C18   A    
C25   H13   S    
C23   O5    A    
Cu1   O1    S    
C45   N5    S    
C18   H7    S    
C17   H11   S    
C41   N2    A    
C44   H3    S    
C9    O10   S    
C12   O4    A    
C39   H18   S    
C44   H20   S    
C42   C43   S    
Cu1   O5    S    
Cu2   N1    S    
C27   N1    A    
C28   C29   A    
C40   N2    A    
C19   C21   A    
C31   C32   A    
C16   H4    S    
C10   C13   A    
C5    C8    A    
C31   C38   A    
C13   C17   A    
C1    O1    A    
C32   C33   A    
Cu2   O8    S    
C28   C30   A    
C2    C3    S    
C25   C26   A    
Cu1   O3    S    
C37   C39   A    
O15   H33   S    
C36   O13   S    
O12   H28   S    
C6    C23   S    
N4    H29   S    
C23   O6    A    
C26   H14   S    
Cu1   N2    S    
C10   C11   A    
C42   H1    S    
C41   N4    S    
O11   H27   S    
C43   H19   S    
C43   O14   S    
C12   O3    A    
C27   C28   A    
C14   C15   A    
C27   H15   S    
C33   O12   S    
