data_mof_unit_30718.cif
_audit_creation_date              2012-12-11T15:22:41-0500
_audit_creation_method            fapswitch 2.2
_symmetry_space_group_name_H-M    P1
_symmetry_Int_Tables_number       1
_space_group_crystal_system       triclinic
_cell_length_a                    22.852077
_cell_length_b                    7.221703
_cell_length_c                    20.824457
_cell_angle_alpha                 89.908877
_cell_angle_beta                  93.169796
_cell_angle_gamma                 90.098534
_cell_volume                      3431.41229032

loop_
_atom_site_label
_atom_site_type_symbol
_atom_type_description
_atom_site_fract_x
_atom_site_fract_y
_atom_site_fract_z
_atom_type_partial_charge
O1    O     O_R   0.438030 0.494310 0.439340 -0.543284
O2    O     O_R   0.561970 0.994310 0.560660 -0.541557
O3    O     O_R   0.556900 0.822900 0.435960 -0.537789
O4    O     O_R   0.443100 0.322900 0.564040 -0.540251
C1    C     C_R   0.575735 0.655693 0.420974 0.701512
C2    C     C_R   0.424272 0.155310 0.579005 0.701128
O5    O     O_R   0.438170 0.823950 0.431660 -0.510061
O6    O     O_R   0.561830 0.323950 0.568340 -0.509289
O7    O     O_R   0.442390 0.995390 0.556340 -0.533767
O8    O     O_R   0.557610 0.495390 0.443660 -0.531687
C3    C     C_R   0.418856 0.655384 0.415015 0.716083
C4    C     C_R   0.581130 0.155374 0.584989 0.725622
O9    O     O_3   0.501520 0.661170 0.540910 -0.370700
O10   O     O_3   0.498480 0.161170 0.459090 -0.370634
V1    V     V_3+5 0.499720 0.935580 0.492410 1.465913
V2    V     V_3+5 0.500280 0.435580 0.507590 1.462992
C5    C     C_R   0.832814 0.242535 0.863057 -0.239305
C6    C     C_R   0.167155 0.742946 0.136987 -0.229149
C7    C     C_R   0.868544 0.083762 0.866358 -0.222181
C8    C     C_R   0.131441 0.583802 0.133645 -0.222803
C9    C     C_R   0.855870 0.936965 0.823070 0.600495
C10   C     C_R   0.144130 0.436625 0.176880 0.607110
C11   C     C_R   0.808258 0.949243 0.777326 0.029437
C12   C     C_R   0.191748 0.448906 0.222614 0.026828
C13   C     C_R   0.772393 0.108800 0.775036 -0.072010
C14   C     C_R   0.227588 0.608879 0.224961 -0.071282
C15   C     C_R   0.784722 0.256211 0.818167 0.002011
C16   C     C_R   0.215239 0.756664 0.181883 0.005451
C17   C     C_R   0.795849 0.804610 0.733594 -0.082613
C18   C     C_R   0.204186 0.303863 0.266278 -0.078612
C19   C     C_R   0.748447 0.816848 0.688492 -0.196581
C20   C     C_R   0.251620 0.316054 0.311340 -0.200004
C21   C     C_R   0.712490 0.974109 0.685920 0.115386
C22   C     C_R   0.287552 0.473736 0.313971 0.115257
C23   C     C_R   0.724306 0.120970 0.729287 0.023095
C24   C     C_R   0.275671 0.621085 0.270712 0.023852
C25   C     C_R   0.688422 0.280113 0.726682 -0.063501
C26   C     C_R   0.311463 0.780791 0.273452 -0.062845
C27   C     C_R   0.701434 0.426047 0.769779 -0.267934
C28   C     C_R   0.298427 0.927089 0.230403 -0.266068
C29   C     C_R   0.748443 0.414106 0.815990 0.469089
C30   C     C_R   0.251488 0.914983 0.184112 0.456997
C31   C     C_R   0.665503 0.987192 0.639976 -0.258579
C32   C     C_R   0.334577 0.486735 0.359871 -0.265587
C33   C     C_R   0.629484 0.145219 0.636112 -0.180539
C34   C     C_R   0.370488 0.645340 0.363898 -0.181603
C35   C     C_R   0.640189 0.290736 0.681083 0.433450
C36   C     C_R   0.359623 0.791634 0.319138 0.433839
H1    H     H_    0.842005 0.355023 0.896485 0.205259
H2    H     H_    0.157950 0.855723 0.103596 0.207491
H3    H     H_    0.822644 0.680961 0.734235 0.180455
H4    H     H_    0.177403 0.179900 0.265596 0.182300
H5    H     H_    0.739901 0.702763 0.655523 0.137045
H6    H     H_    0.260206 0.201612 0.344236 0.135576
H7    H     H_    0.657645 0.874445 0.606256 0.163351
H8    H     H_    0.342523 0.373489 0.393458 0.162673
H9    H     H_    0.675472 0.551454 0.767655 0.183919
H10   H     H_    0.324332 0.052867 0.232603 0.182973
C37   C     C_3   0.232106 0.303753 0.788462 -0.363887
C38   C     C_3   0.732714 0.643996 0.172451 -0.414429
C39   C     C_3   0.261015 0.974538 0.815789 1.055792
C40   C     C_3   0.785741 0.410106 0.244364 1.048710
C41   C     C_3   0.309373 0.980056 0.765201 0.266696
C42   C     C_3   0.738299 0.429005 0.295597 0.273701
H11   H     H_    0.318629 0.392577 0.758436 0.159173
H12   H     H_    0.644946 0.580413 0.204851 0.134590
H13   H     H_    0.250922 0.350321 0.836142 0.215290
H14   H     H_    0.720539 0.533127 0.137151 0.180496
H15   H     H_    0.305955 0.843500 0.740441 0.095156
H16   H     H_    0.763764 0.433965 0.342744 0.105025
C43   C     C_1   0.378986 0.145874 0.625075 -0.183847
C44   C     C_1   0.621113 0.647104 0.374988 -0.177198
C45   C     C_3   0.208860 0.102140 0.793078 0.039738
C46   C     C_3   0.792274 0.598186 0.208422 0.048761
C47   C     C_3   0.279450 0.319072 0.737878 -0.358333
C48   C     C_3   0.683399 0.665541 0.220412 -0.364419
C49   C     C_3   0.293902 0.125047 0.710187 0.065281
C50   C     C_3   0.706728 0.622819 0.290621 0.057973
C51   C     C_3   0.235654 0.056463 0.675736 -0.426163
C52   C     C_3   0.755129 0.770400 0.306312 -0.402089
C53   C     C_3   0.186294 0.041421 0.724357 -0.420769
C54   C     C_3   0.805444 0.753598 0.259007 -0.383212
C55   C     C_1   0.340815 0.137002 0.663365 -0.003170
C56   C     C_1   0.659445 0.637737 0.336908 0.003459
C57   C     C_1   0.160741 0.092003 0.838556 0.071889
C58   C     C_1   0.839834 0.588973 0.162230 0.077492
C59   C     C_1   0.121788 0.083831 0.875943 -0.138262
C60   C     C_1   0.878466 0.582141 0.124423 -0.133659
H17   H     H_    0.148713 0.130095 0.707512 0.180957
H18   H     H_    0.810875 0.888582 0.234138 0.242269
H19   H     H_    0.169905 0.896350 0.725458 0.194471
H20   H     H_    0.847437 0.724151 0.286690 0.200651
H21   H     H_    0.221623 0.153307 0.636205 0.184628
H22   H     H_    0.736101 0.911866 0.302900 0.245779
H23   H     H_    0.195248 0.399088 0.774807 0.195092
H24   H     H_    0.736643 0.774775 0.144634 0.186395
H25   H     H_    0.262425 0.410193 0.697926 0.173748
H26   H     H_    0.667076 0.810418 0.217775 0.172890
H27   H     H_    0.242110 0.919183 0.652977 0.156780
H28   H     H_    0.773423 0.753742 0.356632 0.163639
O11   O     O_R   0.942420 0.735670 0.056390 -0.539195
O12   O     O_R   0.057580 0.235670 0.943610 -0.539338
O13   O     O_R   0.061840 0.404850 0.068350 -0.497701
O14   O     O_R   0.938160 0.904850 0.931650 -0.499800
C61   C     C_R   0.081610 0.573496 0.084413 0.750409
C62   C     C_R   0.918385 0.073474 0.915592 0.737173
O15   O     O_R   0.943100 0.406010 0.064050 -0.530124
O16   O     O_R   0.056900 0.906010 0.935950 -0.532909
O17   O     O_R   0.938020 0.234710 0.939330 -0.548456
O18   O     O_R   0.061980 0.734710 0.060670 -0.546095
C63   C     C_R   0.924208 0.574214 0.078812 0.699913
C64   C     C_R   0.075814 0.074626 0.921242 0.700294
O19   O     O_3   0.998500 0.567790 0.959120 -0.371331
O20   O     O_3   0.001500 0.067790 0.040880 -0.366184
V3    V     V_3+5 0.000280 0.293330 0.007580 1.549083
V4    V     V_3+5 0.999720 0.793330 0.992420 1.541201
F1    F     F_    0.240997 0.793987 0.821633 -0.714824
F2    F     F_    0.839024 0.362715 0.275216 -0.691806
F3    F     F_    0.283230 0.028995 0.876106 -0.689561
F4    F     F_    0.771406 0.270679 0.200606 -0.706088
O21   O     O_3   0.367906 0.977424 0.792801 -0.539606
C65   C     C_3   0.389259 0.150386 0.815004 -0.131421
H29   H     H_    0.357436 0.228086 0.842768 0.173806
H30   H     H_    0.404739 0.233866 0.774504 0.107419
H31   H     H_    0.428100 0.125374 0.848171 0.150182
O22   O     O_3   0.702900 0.267957 0.302207 -0.544368
C66   C     C_3   0.655861 0.250843 0.255893 -0.179694
H32   H     H_    0.668786 0.275496 0.206100 0.171955
H33   H     H_    0.618831 0.340667 0.268212 0.121198
H34   H     H_    0.639253 0.106804 0.257589 0.135180
F5    F     F_    0.890310 0.783519 0.824438 -0.679802
F6    F     F_    0.109710 0.282773 0.175462 -0.671894
O23   O     O_3   0.604734 0.446105 0.679434 -0.547987
C67   C     C_3   0.557205 0.412633 0.718362 -0.222986
H35   H     H_    0.528834 0.537207 0.717195 0.165626
H36   H     H_    0.572427 0.387837 0.769347 0.118000
H37   H     H_    0.529917 0.294204 0.700016 0.114375
O24   O     O_3   0.394738 0.948151 0.321192 -0.546921
C68   C     C_3   0.442401 0.917474 0.282285 -0.230563
H38   H     H_    0.470534 0.042901 0.283883 0.156281
H39   H     H_    0.427311 0.893980 0.231201 0.118112
H40   H     H_    0.469862 0.799257 0.300351 0.111518
O25   O     O_3   0.761666 0.563280 0.855844 -0.542421
C69   C     C_3   0.721089 0.568632 0.904370 -0.270902
H41   H     H_    0.721170 0.436681 0.932152 0.131080
H42   H     H_    0.676169 0.600477 0.884116 0.134150
H43   H     H_    0.734138 0.681068 0.938487 0.166856
O26   O     O_3   0.238286 0.064334 0.144225 -0.549572
C70   C     C_3   0.279047 0.071034 0.095891 -0.218416
H44   H     H_    0.279335 0.939187 0.068215 0.153358
H45   H     H_    0.323832 0.104157 0.116325 0.125372
H46   H     H_    0.265911 0.183201 0.061628 0.183966

loop_
_geom_bond_atom_site_label_1
_geom_bond_atom_site_label_2
_ccdc_geom_bond_type
C18   C20   A    
C61   O18   A    
O22   C66   S    
O18   V4    S    
C39   F3    S    
O12   C64   A    
O1    C3    A    
C30   O26   S    
C67   H37   S    
O14   C62   A    
O20   V3    S    
C27   C29   A    
O5    C3    A    
C11   C17   A    
C51   H27   S    
C23   C25   A    
C12   C14   A    
C51   H21   S    
C1    C44   S    
C70   H45   S    
C41   C49   S    
C68   H40   S    
C58   C60   T    
C49   C55   S    
C48   H26   S    
O25   C69   S    
C27   H9    S    
C47   H25   S    
C54   H20   S    
C33   C35   A    
C45   C53   S    
C39   C41   S    
C15   C29   A    
C7    C62   S    
C9    F5    S    
C40   C42   S    
O12   V3    S    
C37   H13   S    
O14   V4    S    
C60   C63   S    
C41   H15   S    
C35   O23   S    
C19   C21   A    
C42   H16   S    
C25   C35   A    
C37   C45   S    
C5    C15   A    
C40   F4    S    
C26   C36   A    
O19   V4    S    
C53   H17   S    
C57   C59   T    
O2    C4    A    
O6    V2    S    
C52   H28   S    
C37   H23   S    
C2    O7    A    
C69   H43   S    
C20   H6    S    
C41   O21   S    
C32   C34   A    
C43   C55   T    
C49   C51   S    
C2    C43   S    
C34   C36   A    
C28   H10   S    
C39   F1    S    
C21   C31   A    
C6    C16   A    
O26   C70   S    
C69   H42   S    
C70   H46   S    
C5    H1    S    
C51   C53   S    
C4    C33   S    
C67   H36   S    
C59   C64   S    
C39   C45   S    
C38   C48   S    
C19   H5    S    
O16   C64   A    
C20   C22   A    
O4    V2    S    
O13   V3    S    
C66   H33   S    
C47   C49   S    
O15   C63   A    
C32   H8    S    
C28   C30   A    
O6    C4    A    
H12   C48   S    
C50   C52   S    
C22   C32   A    
O13   C61   A    
O1    V2    S    
C46   C58   S    
O2    V1    S    
C31   C33   A    
C45   C57   S    
O21   C65   S    
C44   C56   T    
C13   C23   A    
C38   H24   S    
C14   C24   A    
C8    C10   A    
C42   O22   S    
C9    C11   A    
O23   C67   S    
C10   C12   A    
O4    C2    A    
O11   C63   A    
C65   H30   S    
C66   H32   S    
C37   C47   S    
O3    V1    S    
C6    H2    S    
C8    C61   S    
C17   H3    S    
C31   H7    S    
C18   H4    S    
C16   C30   A    
C10   F6    S    
C42   C50   S    
C48   C50   S    
C69   H41   S    
O3    C1    A    
C54   H18   S    
C68   H38   S    
C29   O25   S    
C67   H35   S    
C13   C15   A    
C14   C16   A    
H11   C47   S    
C36   O24   S    
C38   H14   S    
O16   V4    S    
C65   H31   S    
C24   C26   A    
O7    V1    S    
C66   H34   S    
C1    O8    A    
C17   C19   A    
O8    V2    S    
C70   H44   S    
C26   C28   A    
C68   H39   S    
O5    V1    S    
C38   C46   S    
C21   C23   A    
C52   C54   S    
O15   V3    S    
C6    C8    A    
C11   C13   A    
C12   C18   A    
C40   F2    S    
O24   C68   S    
O17   V3    S    
C53   H19   S    
C5    C7    A    
C50   C56   S    
C22   C24   A    
C25   C27   A    
O9    V2    S    
O11   V4    S    
O10   V1    S    
C40   C46   S    
C3    C34   S    
C65   H29   S    
C52   H22   S    
C46   C54   S    
C7    C9    A    
C62   O17   A    
