data_mof_unit_31120.cif
_audit_creation_date              2012-10-26T20:38:21-0400
_audit_creation_method            fapswitch 2.2
_symmetry_space_group_name_H-M    P1
_symmetry_Int_Tables_number       1
_space_group_crystal_system       triclinic
_cell_length_a                    15.880836
_cell_length_b                    11.003032
_cell_length_c                    9.966715
_cell_angle_alpha                 110.135389
_cell_angle_beta                  98.545218
_cell_angle_gamma                 92.434594
_cell_volume                      1608.72205293

loop_
_atom_site_label
_atom_site_type_symbol
_atom_type_description
_atom_site_fract_x
_atom_site_fract_y
_atom_site_fract_z
_atom_type_partial_charge
C1    C     C_R   0.497242 0.254581 0.442807 0.539893
C2    C     C_3   0.031976 0.610006 0.491564 0.044076
C3    C     C_3   0.013910 0.399480 0.385628 -0.019792
C4    C     C_3   0.986092 0.602002 0.614614 -0.018028
C5    C     C_1   0.251043 0.499402 0.501042 0.093928
C6    C     C_1   0.748959 0.501148 0.499030 0.095098
C7    C     C_3   0.038188 0.488458 0.624041 -0.001003
C8    C     C_3   0.961827 0.513029 0.376212 0.007533
C9    C     C_3   0.084164 0.497790 0.500866 0.051261
C10   C     C_3   0.915854 0.503681 0.499368 0.052615
C11   C     C_1   0.175703 0.498772 0.501203 0.094700
C12   C     C_R   0.511466 0.744247 0.557461 0.656863
C13   C     C_1   0.824309 0.502309 0.498951 0.091230
C14   C     C_2   0.494975 0.115176 0.420910 -0.000413
C15   C     C_2   0.547084 0.874561 0.579775 0.022964
C16   C     C_2   0.025991 0.284168 0.258177 0.229309
C17   C     C_2   0.973895 0.717359 0.741925 0.234861
C18   C     C_2   0.922669 0.529547 0.238025 0.250078
C19   C     C_2   0.077365 0.471986 0.762255 0.259350
C20   C     C_2   0.400999 0.951289 0.556522 0.277361
C21   C     C_2   0.602493 0.161833 0.649502 0.209310
C22   C     C_2   0.641417 0.887273 0.583722 0.239987
C23   C     C_2   0.531332 0.079181 0.533469 -0.050005
C24   C     C_2   0.440449 0.022832 0.286631 0.229415
C25   C     C_2   0.455660 0.348344 0.822541 0.294081
C26   C     C_2   0.602409 0.556916 0.155362 0.302481
C27   C     C_2   0.564241 0.687301 0.949029 0.415894
C28   C     C_2   0.374305 0.417154 0.076061 0.426528
C29   C     C_2   0.495217 0.962268 0.555188 -0.055831
C30   C     C_2   0.516097 0.496921 0.076646 0.130228
C31   C     C_2   0.500920 0.476206 0.917311 0.143049
C32   C     C_R   0.340369 0.499792 0.500304 0.576341
C33   C     C_R   0.659629 0.500168 0.499680 0.597482
C34   C     C_3   0.968049 0.391479 0.508686 0.038823
Cu1   Cu    Cu3+1 0.514700 0.521810 0.644910 1.108708
Cu2   Cu    Cu3+1 0.485300 0.478190 0.355090 1.062312
H1    H     H_    0.970502 0.222429 0.186556 0.124344
H2    H     H_    0.610190 0.155911 0.757065 0.096378
H3    H     H_    0.670862 0.951115 0.538147 0.159911
H4    H     H_    0.401906 0.059961 0.212769 0.128482
H5    H     H_    0.478010 0.260563 0.835410 0.027918
H6    H     H_    0.658160 0.512707 0.116778 0.105472
H7    H     H_    0.618277 0.735870 0.926263 0.125829
H8    H     H_    0.337669 0.337982 0.089503 0.111701
H9    H     H_    0.029341 0.778990 0.813825 0.125015
H10   H     H_    0.981758 0.212018 0.518619 0.255879
H11   H     H_    0.887734 0.224626 0.424677 0.240016
H12   H     H_    0.018282 0.789502 0.481734 0.256450
H13   H     H_    0.112325 0.776821 0.575574 0.248910
H14   H     H_    0.963017 0.535715 0.161380 0.135993
H15   H     H_    0.037014 0.465714 0.838856 0.129653
H16   H     H_    0.362410 0.022482 0.531867 0.137389
N1    N     N_2   0.463210 0.445420 0.137360 -0.305766
N2    N     N_2   0.536790 0.554580 0.862640 -0.293234
N3    N     N_3   0.932241 0.271692 0.519323 -0.596852
N4    N     N_3   0.067790 0.729798 0.480951 -0.594859
O1    O     O_R   0.507840 0.332340 0.577400 -0.468885
O2    O     O_2   0.902224 0.742534 0.765371 -0.449633
O3    O     O_2   0.845882 0.536089 0.210993 -0.502894
O4    O     O_2   0.154172 0.465609 0.789361 -0.430853
O5    O     O_2   0.365894 0.866899 0.588773 -0.490169
O6    O     O_2   0.655497 0.230461 0.623412 -0.482551
O7    O     O_2   0.687516 0.822805 0.635691 -0.471730
O8    O     O_2   0.439052 0.905252 0.255408 -0.401938
O9    O     O_2   0.388829 0.340163 0.740460 -0.440406
O10   O     O_2   0.612145 0.660761 0.256269 -0.423334
O11   O     O_2   0.524053 0.750079 0.040371 -0.411371
O12   O     O_R   0.492160 0.667660 0.422600 -0.418527
O13   O     O_2   0.337332 0.486209 0.018110 -0.399037
O14   O     O_R   0.483020 0.295500 0.332650 -0.544586
O15   O     O_R   0.516980 0.704500 0.667350 -0.503269
O16   O     O_R   0.391490 0.518400 0.622350 -0.426862
O17   O     O_R   0.608510 0.481600 0.377650 -0.504347
O18   O     O_R   0.366660 0.481570 0.377600 -0.518659
O19   O     O_R   0.633340 0.518430 0.622400 -0.478461
O20   O     O_2   0.097610 0.259183 0.234262 -0.481805

loop_
_geom_bond_atom_site_label_1
_geom_bond_atom_site_label_2
_ccdc_geom_bond_type
C25   C31   S    
C28   O13   D    
C27   N2    S    
C32   O16   A    
C12   O12   A    
Cu1   O19   S    
C23   C29   S    
C17   H9    S    
C5    C11   T    
C32   O18   A    
C30   C31   S    
H12   N4    S    
C14   C24   S    
C20   O5    D    
Cu2   N1    S    
C22   O7    D    
C33   O19   A    
C15   C22   S    
C21   H2    S    
Cu1   Cu2   S    
H10   N3    S    
C16   H1    S    
C5    C32   S    
Cu1   O15   S    
C34   N3    S    
C24   O8    D    
Cu1   N2    S    
C4    C7    S    
Cu2   O14   S    
C15   C29   D    
C20   C29   S    
C30   N1    D    
C26   H6    S    
C26   O10   D    
C25   O9    D    
C3    C8    S    
C25   H5    S    
C3    C34   S    
C28   H8    S    
C8    C18   S    
C14   C23   D    
C2    C4    S    
C3    C9    S    
C1    O1    A    
C12   C15   S    
C10   C34   S    
C9    C11   S    
C21   O6    D    
Cu2   O18   S    
C4    C17   S    
C33   O17   A    
C12   O15   A    
Cu1   O16   S    
C26   C30   S    
C7    C19   S    
C21   C23   S    
C7    C34   S    
C4    C10   S    
C18   H14   S    
H11   N3    S    
C7    C9    S    
C27   H7    S    
C16   O20   D    
C2    C8    S    
C10   C13   S    
C28   N1    S    
Cu2   O12   S    
C19   O4    D    
H13   N4    S    
C17   O2    D    
C1    O14   A    
C6    C33   S    
Cu1   O1    S    
C20   H16   S    
C2    N4    S    
C6    C13   T    
C22   H3    S    
C24   H4    S    
C31   N2    D    
C27   O11   D    
Cu2   O17   S    
C19   H15   S    
C18   O3    D    
C8    C10   S    
C1    C14   S    
C2    C9    S    
C3    C16   S    
