data_mof_unit_31347.cif
_audit_creation_date              2013-03-05T16:48:11-0500
_audit_creation_method            fapswitch 2.2
_symmetry_space_group_name_H-M    P1
_symmetry_Int_Tables_number       1
_space_group_crystal_system       triclinic
_cell_length_a                    10.853322
_cell_length_b                    12.305219
_cell_length_c                    13.297784
_cell_angle_alpha                 116.92692
_cell_angle_beta                  77.89383
_cell_angle_gamma                 101.048887
_cell_volume                      1538.64932467

loop_
_atom_site_label
_atom_site_type_symbol
_atom_site_description
_atom_site_fract_x
_atom_site_fract_y
_atom_site_fract_z
_atom_type_partial_charge
O1    O     O_R   0.536940 0.972510 0.318130 -0.576352
O2    O     O_R   0.487330 0.806530 0.359650 -0.614379
C1    C     C_R   0.515813 0.854429 0.286946 0.771775
O3    O     O_R   0.705160 0.082990 0.479250 -0.578444
O4    O     O_R   0.655550 0.917010 0.520760 -0.610270
C2    C     C_R   0.736911 0.000486 0.501830 0.812641
Cu1   Cu    Cu3+1 0.529370 0.098270 0.475420 0.997665
Cu2   Cu    Cu3+1 0.470630 0.901730 0.524580 0.968764
O5    O     O_R   0.512670 0.193470 0.640350 -0.555777
O6    O     O_R   0.463060 0.027490 0.681870 -0.594883
O7    O     O_R   0.344450 0.082990 0.479240 -0.590558
O8    O     O_R   0.294840 0.917010 0.520750 -0.550630
C3    C     C_R   0.481848 0.145241 0.713071 0.836254
C4    C     C_R   0.262578 0.001864 0.501290 0.836469
H1    H     H_    0.521205 0.858425 0.855469 0.235990
C5    C     C_R   0.649837 0.002647 0.830096 -0.123623
H2    H     H_    0.600401 0.073506 0.901700 0.219109
C6    C     C_R   0.756655 0.033639 0.763876 0.278261
C7    C     C_R   0.814139 0.937668 0.665713 -0.070104
C8    C     C_R   0.770590 0.812918 0.642865 0.380693
C9    C     C_R   0.665843 0.787144 0.713762 -0.202117
H3    H     H_    0.628205 0.693445 0.696036 0.233658
C10   C     C_R   0.604431 0.880790 0.804535 -0.206106
C11   C     C_R   0.038459 0.971398 0.581923 0.398330
C12   C     C_R   0.128194 0.006752 0.505314 -0.193734
C13   C     C_R   0.087850 0.047703 0.434833 -0.014859
C14   C     C_R   0.959418 0.043998 0.435636 -0.186226
C15   C     C_R   0.870130 0.002005 0.505718 -0.079936
C16   C     C_R   0.908876 0.967566 0.581128 0.024889
C17   C     C_R   0.184761 0.223948 0.389247 -0.129288
H4    H     H_    0.124667 0.283138 0.462226 0.168911
C18   C     C_R   0.272981 0.274118 0.324392 -0.234318
H5    H     H_    0.279957 0.371081 0.346537 0.168482
C19   C     C_R   0.354140 0.199844 0.232473 -0.211870
C20   C     C_R   0.344602 0.073715 0.202439 0.420308
C21   C     C_R   0.254137 0.023112 0.266410 -0.176128
H6    H     H_    0.247586 0.926275 0.245056 0.150139
C22   C     C_R   0.176271 0.098483 0.361590 0.077550
C23   C     C_R   0.312619 0.282906 0.011110 -0.163203
H7    H     H_    0.237180 0.255582 0.065608 0.156421
C24   C     C_R   0.453911 0.228012 0.833504 -0.088751
C25   C     C_R   0.630331 0.809105 0.095008 -0.127680
C26   C     C_R   0.656785 0.732821 0.980295 -0.140145
C27   C     C_R   0.594133 0.614432 0.933832 0.342099
C28   C     C_R   0.508215 0.568005 0.006548 -0.001147
C29   C     C_R   0.468800 0.652448 0.120033 0.052577
C30   C     C_R   0.460227 0.441792 0.972320 0.103340
C31   C     C_R   0.361023 0.406589 0.044060 0.143925
C32   C     C_R   0.310913 0.494960 0.147721 -0.194865
C33   C     C_R   0.363474 0.616133 0.185091 -0.149423
C34   C     C_R   0.511135 0.348293 0.871321 -0.072561
C35   C     C_R   0.358077 0.193964 0.905570 -0.125625
C36   C     C_R   0.534779 0.771677 0.165125 -0.056765
H8    H     H_    0.596147 0.365430 0.819739 0.210823
H9    H     H_    0.683178 0.899270 0.128611 0.179905
H10   H     H_    0.724142 0.767654 0.926249 0.190491
H11   H     H_    0.318858 0.680980 0.265138 0.174948
C37   C     C_R   0.691210 0.337216 0.318562 -0.163452
H12   H     H_    0.721338 0.164840 0.307565 0.128042
H13   H     H_    0.768487 0.332342 0.250992 0.198547
N1    N     N_R   0.573890 0.246290 0.438210 -0.200457
C38   C     C_R   0.332116 0.762049 0.648069 0.121289
C39   C     C_R   0.292777 0.663742 0.676388 -0.194191
C40   C     C_R   0.352130 0.556784 0.616426 -0.121909
C41   C     C_R   0.453763 0.547647 0.528183 -0.027679
C42   C     C_R   0.488961 0.649918 0.501034 0.186984
C43   C     C_R   0.523017 0.442439 0.467528 -0.057409
C44   C     C_R   0.619015 0.437386 0.374833 0.034720
C45   C     C_R   0.645366 0.535058 0.343481 0.306311
C46   C     C_R   0.587701 0.641800 0.411688 -0.222787
C47   C     C_R   0.501965 0.341550 0.495519 0.156998
C48   C     C_R   0.666885 0.242532 0.351706 0.100036
N2    N     N_R   0.426890 0.754320 0.561170 -0.212088
H14   H     H_    0.428875 0.336127 0.562184 0.144382
H15   H     H_    0.286291 0.844994 0.695310 0.187739
H16   H     H_    0.316320 0.482896 0.640793 0.169657
H17   H     H_    0.215901 0.670354 0.744845 0.188837
H18   H     H_    0.623540 0.716981 0.391397 0.235376
H19   H     H_    0.423576 0.240412 0.184145 0.185734
N3    N     N_R   0.428237 0.997604 0.108760 0.091745
O9    O     O_R   0.393187 0.881310 0.052405 -0.405397
O10   O     O_R   0.542572 0.042824 0.083529 -0.414820
H20   H     H_    0.315220 0.099936 0.878710 0.192016
H21   H     H_    0.232219 0.469961 0.201371 0.161454
N4    N     N_R   0.606573 0.551007 0.812202 0.075251
O11   O     O_R   0.717878 0.546328 0.751260 -0.319707
O12   O     O_R   0.505779 0.507509 0.761817 -0.414515
N5    N     N_R   0.729564 0.527340 0.241660 0.129811
O13   O     O_R   0.802009 0.624063 0.239921 -0.316851
O14   O     O_R   0.714612 0.432204 0.145334 -0.324483
N6    N     N_R   0.804010 0.161826 0.797673 0.123047
O15   O     O_R   0.916532 0.195257 0.756435 -0.323404
O16   O     O_R   0.741422 0.246411 0.881756 -0.334127
N7    N     N_R   0.830010 0.711506 0.549093 0.133309
O17   O     O_R   0.893511 0.721437 0.458599 -0.344095
O18   O     O_R   0.817800 0.605928 0.552608 -0.308822
N8    N     N_R   0.078690 0.953040 0.668874 0.114945
O19   O     O_R   0.145393 0.041627 0.741962 -0.381834
O20   O     O_R   0.044301 0.850688 0.678678 -0.351837
H22   H     H_    0.928937 0.073134 0.379829 0.158986

loop_
_geom_bond_atom_site_label_1
_geom_bond_atom_site_label_2
_geom_bond_distance
_ccdc_geom_bond_type
C46   H18   1.060229 S    
C7    C8    1.425445 A    
C3    C24   1.459943 S    
N8    O19   1.300032 A    
Cu1   Cu2   2.710887 S    
C42   C46   1.403388 A    
N4    O11   1.301211 A    
Cu1   O7    1.971602 S    
C13   C14   1.383844 A    
C6    N6    1.448551 S    
C32   H21   1.084239 S    
C21   H6    1.084039 S    
C6    C7    1.425633 A    
C25   C36   1.399010 A    
O4    C2    1.300591 A    
C19   H19   1.083206 S    
O7    C4    1.299211 A    
C37   H13   1.081088 S    
C20   N3    1.431011 S    
C17   C22   1.404531 A    
C19   C20   1.404787 A    
O5    C3    1.306612 A    
C11   C16   1.400238 A    
Cu1   N1    2.043166 S    
C47   H14   1.076066 S    
C44   C45   1.404345 A    
C2    C15   1.453852 S    
C20   C21   1.403735 A    
C5    H2    1.080682 S    
C41   C43   1.436820 A    
C38   N2    1.357132 A    
C24   C35   1.397956 A    
H12   C48   1.081933 S    
N1    C47   1.362461 A    
N4    O12   1.300129 A    
C23   C35   1.391501 A    
C9    H3    1.079595 S    
N7    O17   1.300412 A    
O3    Cu1   1.965956 S    
N8    O20   1.300259 A    
C28   C30   1.428165 A    
C14   H22   1.085421 S    
C11   N8    1.436916 S    
C11   C12   1.413661 A    
O3    C2    1.301224 A    
N6    O15   1.300859 A    
C13   C22   1.479634 S    
C30   C34   1.402024 A    
C12   C13   1.417231 A    
C28   C29   1.421071 A    
C42   N2    1.385292 A    
C43   C44   1.423217 A    
O1    C1    1.304702 A    
C18   C19   1.396579 A    
C35   H20   1.082484 S    
C26   C27   1.395601 A    
C38   C39   1.390912 A    
C25   H9    1.083610 S    
N6    O16   1.301276 A    
C30   C31   1.421854 A    
Cu2   O8    1.965955 S    
C40   H16   1.077621 S    
C5    C6    1.404067 A    
N5    O13   1.301508 A    
N7    O18   1.301517 A    
C45   N5    1.440554 S    
N1    C48   1.351582 A    
N3    O10   1.300718 A    
C31   C32   1.390334 A    
O8    C4    1.304860 A    
C41   C42   1.424572 A    
C5    C10   1.390048 A    
C9    C10   1.387905 A    
C38   H15   1.080069 S    
C25   C26   1.383190 A    
C27   N4    1.431383 S    
C7    C16   1.484057 S    
C23   H7    1.083930 S    
C27   C28   1.431391 A    
C39   H17   1.082508 S    
C37   C44   1.407868 A    
Cu1   O5    1.950119 S    
C8    N7    1.445633 S    
C15   C16   1.411410 A    
O1    Cu1   1.954848 S    
C33   H11   1.080215 S    
O2    Cu2   1.950120 S    
N5    O14   1.301462 A    
N3    O9    1.301449 A    
O6    C3    1.300366 A    
O4    Cu2   1.971603 S    
C29   C33   1.412246 A    
C34   H8    1.075760 S    
C18   H5    1.082850 S    
C21   C22   1.401760 A    
O2    C1    1.303294 A    
C40   C41   1.411191 A    
C17   C18   1.396770 A    
C1    C36   1.466280 S    
C37   C48   1.385591 A    
C17   H4    1.083548 S    
C29   C36   1.416139 A    
H1    C10   1.080422 S    
Cu2   N2    2.030964 S    
C43   C47   1.416382 A    
C4    C12   1.460037 S    
C45   C46   1.391963 A    
C39   C40   1.393556 A    
C26   H10   1.083142 S    
C8    C9    1.401753 A    
Cu2   O6    1.954846 S    
C32   C33   1.384707 A    
C14   C15   1.392846 A    
C24   C34   1.390616 A    
C23   C31   1.403707 A    
