data_mof_unit_59359.cif
_audit_creation_date              2012-12-11T14:46:16-0500
_audit_creation_method            fapswitch 2.2
_symmetry_space_group_name_H-M    P1
_symmetry_Int_Tables_number       1
_space_group_crystal_system       triclinic
_cell_length_a                    10.848218
_cell_length_b                    10.997736
_cell_length_c                    18.758139
_cell_angle_alpha                 89.985073
_cell_angle_beta                  89.889065
_cell_angle_gamma                 119.616603
_cell_volume                      1945.56498612

loop_
_atom_site_label
_atom_site_type_symbol
_atom_type_description
_atom_site_fract_x
_atom_site_fract_y
_atom_site_fract_z
_atom_type_partial_charge
C1    C     C_R   0.861794 0.637578 0.603140 0.523272
C2    C     C_R   0.972334 0.192301 0.714087 0.031435
C3    C     C_R   0.964332 0.197074 0.789179 -0.029853
C4    C     C_R   0.267881 0.629990 0.604403 0.534739
C5    C     C_R   0.716312 0.104979 0.705470 -0.001914
C6    C     C_R   0.712673 0.130822 0.778070 0.008012
C7    C     C_R   0.588470 0.040558 0.665887 -0.088041
C8    C     C_R   0.462086 0.020159 0.695657 -0.118072
C9    C     C_R   0.462390 0.067504 0.764137 -0.140229
C10   C     C_R   0.587086 0.127044 0.803974 -0.076852
C11   C     C_R   0.848597 0.157788 0.672302 -0.018283
C12   C     C_R   0.467909 0.739043 0.773459 -0.133962
C13   C     C_R   0.707565 0.548693 0.713479 -0.056261
C14   C     C_R   0.695679 0.574174 0.785257 -0.127029
C15   C     C_R   0.775309 0.708468 0.813470 -0.044328
C16   C     C_R   0.862680 0.224338 0.602228 0.508914
C17   C     C_R   0.851200 0.821654 0.767341 -0.133636
C18   C     C_R   0.857477 0.799435 0.694371 0.122792
C19   C     C_R   0.801325 0.661547 0.668902 0.039781
C20   C     C_R   0.403869 0.703731 0.298756 0.004120
C21   C     C_R   0.442254 0.729254 0.227389 -0.103017
C22   C     C_R   0.339306 0.688523 0.174091 0.038087
C23   C     C_R   0.437557 0.715020 0.701789 -0.157820
C24   C     C_R   0.194121 0.618985 0.191274 -0.019795
C25   C     C_R   0.155045 0.593991 0.263057 -0.132740
C26   C     C_R   0.258547 0.634076 0.316218 0.041178
C27   C     C_R   0.698555 0.100274 0.300964 -0.095446
C28   C     C_R   0.863896 0.639829 0.398539 0.529217
C29   C     C_R   0.677130 0.074453 0.229063 0.118404
C30   C     C_R   0.786869 0.075549 0.186773 0.019770
C31   C     C_R   0.916988 0.109178 0.219047 -0.168330
C32   C     C_R   0.940610 0.148172 0.290485 -0.160801
C33   C     C_R   0.832013 0.148017 0.330817 -0.014843
C34   C     C_R   0.297382 0.651921 0.679606 0.031214
C35   C     C_R   0.912031 0.786292 0.293919 -0.136960
C36   C     C_R   0.908083 0.792478 0.221243 -0.137995
C37   C     C_R   0.804587 0.679067 0.182451 0.014894
C38   C     C_R   0.701544 0.560198 0.218133 -0.146698
C39   C     C_R   0.710839 0.550440 0.291665 -0.141274
C40   C     C_R   0.210917 0.598147 0.389133 0.559408
C41   C     C_R   0.820420 0.661908 0.329138 0.017625
C42   C     C_R   0.806444 0.104913 0.895204 0.536934
C43   C     C_R   0.397041 0.702083 0.896779 0.568117
C44   C     C_R   0.772139 0.731865 0.890257 0.554124
C45   C     C_R   0.833136 0.158279 0.821435 -0.048235
C46   C     C_R   0.766709 0.043326 0.110403 0.557912
C47   C     C_R   0.391339 0.703209 0.102027 0.527530
C48   C     C_R   0.794800 0.699988 0.106985 0.536372
C49   C     C_R   0.860211 0.224062 0.397531 0.535180
C50   C     C_R   0.184276 0.603357 0.729869 0.006319
C51   C     C_R   0.216269 0.622795 0.802993 0.135221
C52   C     C_R   0.358079 0.692206 0.823407 0.063103
C53   C     C_3   0.031290 0.535686 0.707363 -0.351036
C54   C     C_3   0.626246 0.399633 0.688567 -0.367611
C55   C     C_3   0.848301 0.916316 0.585022 -0.284056
C56   C     C_R   0.089041 0.245935 0.830405 -0.090824
C57   C     C_3   0.518159 0.748940 0.354646 -0.373926
C58   C     C_3   0.079582 0.566682 0.135506 -0.386765
C59   C     C_3   0.078466 0.675686 0.885633 -0.280231
C60   C     C_3   0.537424 0.181322 0.194183 -0.291985
C61   C     C_R   0.218374 0.281842 0.798394 -0.113113
C62   C     C_R   0.225104 0.267344 0.725306 -0.127571
C63   C     C_R   0.104337 0.222277 0.683669 -0.054298
Cr1   Cr    Cr6+3 0.791660 0.390250 0.499930 0.982180
Cr2   Cr    Cr6+3 0.098520 0.708290 0.500540 0.990042
Cr3   Cr    Cr6+3 0.109770 0.401430 0.499480 0.982276
Cr4   Cr    Cr6+3 0.874790 0.925890 0.000070 0.990432
Cr5   Cr    Cr6+3 0.574120 0.948670 0.999300 0.984572
Cr6   Cr    Cr6+3 0.551420 0.625320 0.000920 0.998856
H1    H     H_    0.365522 0.973068 0.664573 0.126101
H2    H     H_    0.045113 0.185184 0.312865 0.135237
H3    H     H_    0.995508 0.875414 0.321571 0.139828
H4    H     H_    0.986840 0.887740 0.195711 0.137642
H5    H     H_    0.616599 0.475019 0.189201 0.121409
H6    H     H_    0.637572 0.454136 0.318457 0.127433
H7    H     H_    0.577403 0.792053 0.790427 0.121018
H8    H     H_    0.523202 0.748146 0.663578 0.111147
H9    H     H_    0.313194 0.319473 0.830427 0.119620
H10   H     H_    0.323986 0.290533 0.700332 0.105081
H11   H     H_    0.088381 0.261037 0.887365 0.140767
H12   H     H_    0.586816 0.008264 0.611190 0.117683
H13   H     H_    0.116148 0.204624 0.628179 0.141990
H14   H     H_    0.583995 0.174870 0.853731 0.141404
H15   H     H_    0.968430 0.431492 0.731753 0.112932
H16   H     H_    0.987940 0.602270 0.725912 0.128236
H17   H     H_    0.015893 0.520153 0.649315 0.178743
H18   H     H_    0.547499 0.332276 0.728900 0.106959
H19   H     H_    0.566921 0.391995 0.639072 0.150529
H20   H     H_    0.700139 0.358869 0.680285 0.185558
H21   H     H_    0.032323 0.950363 0.639618 0.263036
H22   H     H_    0.910147 0.015748 0.555500 0.141503
H23   H     H_    0.366884 0.061202 0.785909 0.109423
H24   H     H_    0.744230 0.904284 0.600518 0.129864
H25   H     H_    0.829658 0.831539 0.547453 0.154768
H26   H     H_    0.625935 0.807079 0.330827 0.124428
H27   H     H_    0.507535 0.818644 0.393966 0.145006
H28   H     H_    0.510073 0.656187 0.382409 0.157555
H29   H     H_    0.122436 0.591827 0.080454 0.139523
H30   H     H_    0.012276 0.451354 0.140145 0.148139
H31   H     H_    0.012596 0.615429 0.143950 0.140857
H32   H     H_    0.018164 0.478474 0.845400 0.253176
H33   H     H_    0.039590 0.718056 0.842932 0.163507
H34   H     H_    0.629842 0.487096 0.820024 0.139117
H35   H     H_    0.174973 0.762841 0.909897 0.162570
H36   H     H_    0.996163 0.627320 0.927802 0.172993
H37   H     H_    0.501631 0.986843 0.160566 0.296201
H38   H     H_    0.430278 0.154632 0.174845 0.133206
H39   H     H_    0.617792 0.253180 0.155241 0.167320
H40   H     H_    0.554636 0.234660 0.246415 0.141783
H41   H     H_    0.904961 0.926897 0.788145 0.150159
H42   H     H_    0.553378 0.777480 0.212668 0.110096
H43   H     H_    0.043539 0.539786 0.277514 0.112616
H44   H     H_    0.612159 0.095958 0.332141 0.155344
H45   H     H_    0.003458 0.113324 0.188254 0.133740
N1    N     N_2   0.926375 0.916784 0.648043 -0.518161
N2    N     N_2   0.108371 0.571511 0.856475 -0.539984
N3    N     N_2   0.546294 0.055017 0.201671 -0.518174
O1    O     O_R   0.766500 0.250040 0.579790 -0.527937
O2    O     O_R   0.413330 0.603360 0.920440 -0.519655
O3    O     O_R   0.676110 0.626250 0.926750 -0.505754
O4    O     O_R   0.798570 0.516780 0.574780 -0.516183
O5    O     O_R   0.895350 0.809870 0.080950 -0.533862
O6    O     O_R   0.872490 0.049760 0.073800 -0.504917
O7    O     O_R   0.691680 0.088070 0.079070 -0.515795
O8    O     O_R   0.451720 0.825250 0.074050 -0.543215
O9    O     O_R   0.413580 0.606370 0.080960 -0.505616
O10   O     O_R   0.676340 0.629040 0.075550 -0.498483
O11   O     O_3   0.666780 0.833290 0.000090 -0.282098
O12   O     O_R   0.218690 0.701900 0.425960 -0.495625
O13   O     O_R   0.984000 0.732950 0.581090 -0.521031
O14   O     O_R   0.218600 0.700890 0.574760 -0.507915
O15   O     O_R   0.249390 0.515350 0.579940 -0.515551
O16   O     O_R   0.982790 0.280900 0.573700 -0.522027
O17   O     O_R   0.766600 0.251130 0.419260 -0.527540
O18   O     O_R   0.798660 0.517790 0.425980 -0.504128
O19   O     O_R   0.984100 0.734040 0.420570 -0.530432
O20   O     O_R   0.249490 0.516440 0.419420 -0.523079
O21   O     O_R   0.982880 0.281910 0.424890 -0.515996
O22   O     O_3   0.999980 0.499990 0.499980 -0.260523
O23   O     O_R   0.895110 0.806860 0.920430 -0.530951
O24   O     O_R   0.872260 0.046970 0.925000 -0.512268
O25   O     O_R   0.691430 0.085060 0.918550 -0.524158
O26   O     O_R   0.451490 0.822460 0.925250 -0.512395

loop_
_geom_bond_atom_site_label_1
_geom_bond_atom_site_label_2
_ccdc_geom_bond_type
C49   O17   A    
C6    C45   A    
C27   C29   A    
C28   O18   A    
C28   C41   S    
C43   O26   A    
C35   C36   A    
C58   H29   S    
C55   H24   S    
C17   H41   S    
Cr5   O7    S    
Cr2   O13   S    
C7    C8    A    
C39   C41   A    
C27   C33   A    
C12   C23   A    
C37   C38   A    
C20   C26   A    
C53   H15   S    
C5    C6    A    
C59   H35   S    
C21   C22   A    
C36   C37   A    
C15   C44   S    
C5    C11   A    
C48   O5    A    
C54   H18   S    
C43   C52   S    
C2    C11   A    
C33   C49   S    
Cr1   O4    S    
C10   H14   S    
Cr1   O1    S    
Cr5   O26   S    
C18   C19   A    
C3    C56   A    
C55   H22   S    
C60   H40   S    
C25   H43   S    
Cr2   O14   S    
Cr3   O22   S    
Cr6   O11   S    
C59   N2    S    
C57   H27   S    
C42   O25   A    
Cr5   O25   S    
C53   H17   S    
C39   H6    S    
C4    O14   A    
C29   C30   A    
C9    C10   A    
Cr5   O11   S    
C31   H45   S    
C60   H39   S    
C22   C47   S    
Cr1   O18   S    
C44   O23   A    
C49   O21   A    
C46   O7    A    
C55   H25   S    
C16   O16   A    
C9    H23   S    
C12   C52   A    
C47   O8    A    
C32   H2    S    
Cr3   O15   S    
Cr1   O17   S    
C34   C50   A    
C50   C53   S    
C1    C19   S    
C13   C19   A    
C63   H13   S    
C51   C52   A    
C62   H10   S    
C58   H31   S    
C24   C25   A    
C54   H20   S    
C4    O15   A    
C1    O13   A    
C5    C7    A    
C8    C9    A    
C50   C51   A    
C25   C26   A    
C29   N3    S    
C3    C45   A    
C42   C45   S    
C6    C10   A    
C62   C63   A    
C16   O1    A    
Cr3   O16   S    
C11   C16   S    
C21   H42   S    
C31   C32   A    
Cr3   O21   S    
C61   H9    S    
C23   C34   A    
C57   H28   S    
C40   O20   A    
C42   O24   A    
C14   C15   A    
C17   C18   A    
C60   N3    S    
C59   H36   S    
H21   N1    S    
C23   H8    S    
C37   C48   S    
Cr4   O23   S    
C60   H38   S    
C27   H44   S    
C7    H12   S    
Cr6   O9    S    
C12   H7    S    
H37   N3    S    
C22   C24   A    
C46   O6    A    
Cr4   O24   S    
Cr4   O5    S    
C2    C63   A    
C47   O9    A    
C13   C54   S    
C38   H5    S    
C15   C17   A    
C28   O19   A    
C59   H33   S    
C30   C46   S    
C58   H30   S    
Cr4   O6    S    
C18   N1    S    
C35   H3    S    
Cr2   O12   S    
C40   O12   A    
Cr6   O3    S    
C8    H1    S    
C51   N2    S    
C56   H11   S    
C32   C33   A    
C2    C3    A    
Cr4   O11   S    
C48   O10   A    
C54   H19   S    
C30   C31   A    
C26   C40   S    
C14   H34   S    
C38   C39   A    
Cr3   O20   S    
C55   N1    S    
Cr6   O2    S    
C4    C34   S    
C61   C62   A    
C35   C41   A    
C1    O4    A    
Cr2   O19   S    
C36   H4    S    
Cr2   O22   S    
C20   C21   A    
Cr6   O10   S    
C24   C58   S    
C57   H26   S    
H32   N2    S    
C44   O3    A    
C56   C61   A    
C53   H16   S    
C20   C57   S    
C13   C14   A    
Cr5   O8    S    
C43   O2    A    
Cr1   O22   S    
