data_mof_unit_21795.cif
_audit_creation_date              2013-03-05T15:52:43-0500
_audit_creation_method            fapswitch 2.2
_symmetry_space_group_name_H-M    P1
_symmetry_Int_Tables_number       1
_space_group_crystal_system       triclinic
_cell_length_a                    10.708147
_cell_length_b                    10.798723
_cell_length_c                    17.040247
_cell_angle_alpha                 100.237318
_cell_angle_beta                  99.840512
_cell_angle_gamma                 61.381304
_cell_volume                      1693.75305539

loop_
_atom_site_label
_atom_site_type_symbol
_atom_site_description
_atom_site_fract_x
_atom_site_fract_y
_atom_site_fract_z
_atom_type_partial_charge
O1    O     O_R   0.749250 0.499990 0.439200 -0.482488
O2    O     O_R   0.477870 0.725740 0.440280 -0.459164
C1    C     C_R   0.354972 0.775145 0.401519 0.572699
O3    O     O_R   0.260770 0.742210 0.412610 -0.457842
O4    O     O_R   0.297990 0.466320 0.394220 -0.490101
C2    C     C_R   0.369988 0.346660 0.357013 0.553099
O5    O     O_R   0.487720 0.253870 0.385870 -0.484549
O6    O     O_R   0.721940 0.304340 0.422320 -0.470352
C3    C     C_R   0.774444 0.376205 0.403409 0.552748
O7    O     O_R   0.750770 0.502570 0.614050 -0.486190
O8    O     O_R   0.479280 0.728140 0.602370 -0.478402
C4    C     C_R   0.381925 0.713074 0.631146 0.548784
O9    O     O_R   0.262290 0.744790 0.587460 -0.474757
O10   O     O_R   0.299400 0.468710 0.556310 -0.478546
C5    C     C_R   0.363306 0.346157 0.579119 0.529548
O11   O     O_R   0.489240 0.256450 0.560730 -0.477185
O12   O     O_R   0.723350 0.306730 0.584410 -0.505898
C6    C     C_R   0.771603 0.382271 0.630082 0.577418
Cr1   Cr    Cr6+3 0.608020 0.610770 0.522990 1.096540
Cr2   Cr    Cr6+3 0.289390 0.599570 0.488050 1.104994
Cr3   Cr    Cr6+3 0.602610 0.289690 0.489020 1.092975
O13   O     O_3   0.500010 0.500010 0.500020 -0.316807
C7    C     C_1   0.343826 0.337497 0.273673 0.025153
C8    C     C_1   0.331961 0.328419 0.202835 0.061688
C9    C     C_2   0.836934 0.326112 0.327054 -0.070114
C10   C     C_2   0.807934 0.338725 0.153249 0.196486
C11   C     C_2   0.819864 0.227034 0.185830 0.265793
C12   C     C_2   0.804906 0.235385 0.271013 0.098763
H1    H     H_    0.885661 0.384716 0.310778 0.165934
C13   C     C_2   0.327024 0.857804 0.335394 0.035023
C14   C     C_2   0.353238 0.825618 0.158545 0.284154
C15   C     C_2   0.411718 0.888395 0.219079 0.268924
C16   C     C_2   0.436595 0.851221 0.301285 0.014461
C17   C     C_2   0.289901 0.319074 0.634333 -0.016669
C18   C     C_2   0.325760 0.309522 0.814897 0.306336
C19   C     C_2   0.317422 0.211909 0.753801 0.246542
C20   C     C_2   0.356917 0.202480 0.673564 -0.043843
C21   C     C_1   0.815795 0.343332 0.709071 0.024354
C22   C     C_1   0.843283 0.313421 0.776338 0.005571
C23   C     C_1   0.359803 0.761240 0.713687 -0.004534
C24   C     C_1   0.326924 0.808378 0.780714 0.026217
O14   O     O_R   0.170650 0.915100 0.051290 -0.494578
O15   O     O_R   0.941960 0.184500 0.049060 -0.483684
C25   C     C_R   0.889154 0.310054 0.084930 0.547165
O16   O     O_R   0.922640 0.402670 0.071640 -0.511050
O17   O     O_R   0.196880 0.368740 0.083740 -0.505230
C26   C     C_R   0.319349 0.300467 0.119571 0.566761
O18   O     O_R   0.411120 0.181190 0.091480 -0.457059
O19   O     O_R   0.364220 0.944920 0.062310 -0.462729
C27   C     C_R   0.295583 0.891196 0.083708 0.570517
O20   O     O_R   0.158740 0.906940 0.874970 -0.494649
O21   O     O_R   0.930920 0.176940 0.885610 -0.491477
C28   C     C_R   0.885638 0.296580 0.858553 0.561286
O22   O     O_R   0.910730 0.394510 0.895320 -0.500604
O23   O     O_R   0.185840 0.361180 0.920280 -0.491015
C29   C     C_R   0.307837 0.290985 0.893186 0.648154
O24   O     O_R   0.399210 0.173040 0.915160 -0.497658
O25   O     O_R   0.353170 0.937370 0.898860 -0.474209
C30   C     C_R   0.281068 0.879642 0.857441 0.581678
Cr4   Cr    Cr6+3 0.053780 0.052210 0.965970 1.088362
Cr5   Cr    Cr6+3 0.060060 0.372530 0.992430 1.083334
Cr6   Cr    Cr6+3 0.372600 0.061970 0.991430 1.113728
O26   O     O_3   0.162150 0.162240 0.983280 -0.275226
O27   O     O_3   0.851244 0.096995 0.141375 -0.661183
H2    H     H_    0.786804 0.115843 0.090764 0.333377
C31   C     C_2   0.470924 0.064003 0.641776 0.588400
O28   O     O_2   0.467390 0.024576 0.569944 -0.451184
O29   O     O_R   0.577742 0.975013 0.694979 -0.676063
H3    H     H_    0.647837 0.882560 0.666618 0.344526
O30   O     O_3   0.374349 0.405837 0.810400 -0.737092
H4    H     H_    0.425430 0.378711 0.762116 0.307288
C32   C     C_2   0.147089 0.435703 0.656938 0.576593
O31   O     O_2   0.057592 0.405820 0.671721 -0.513565
O32   O     O_R   0.115852 0.578305 0.662250 -0.654128
H5    H     H_    0.016267 0.645819 0.678366 0.344618
C33   C     C_2   0.765096 0.130098 0.290628 0.635180
O33   O     O_2   0.671907 0.108673 0.247793 -0.488090
O34   O     O_R   0.840035 0.049416 0.354583 -0.651276
H6    H     H_    0.804383 0.980172 0.360465 0.347987
O35   O     O_3   0.735341 0.475304 0.190338 -0.705186
H7    H     H_    0.731563 0.543185 0.156670 0.365026
O36   O     O_3   0.436071 0.997723 0.206281 -0.658111
H8    H     H_    0.468758 0.036228 0.258219 0.349247
C34   C     C_2   0.581638 0.815988 0.342871 0.587438
O37   O     O_2   0.687220 0.737337 0.307467 -0.471463
O38   O     O_R   0.596933 0.880417 0.420140 -0.638415
H9    H     H_    0.700706 0.850023 0.441250 0.333110
O39   O     O_3   0.337469 0.710540 0.170342 -0.712344
H10   H     H_    0.293320 0.680488 0.119628 0.333629
C35   C     C_2   0.177992 0.925011 0.296324 0.605974
O40   O     O_2   0.125985 0.045173 0.277367 -0.532198
O41   O     O_R   0.101601 0.847062 0.277024 -0.610573
H11   H     H_    0.009803 0.896080 0.241578 0.383264
O42   O     O_3   0.268741 0.120247 0.767145 -0.683959
H12   H     H_    0.257280 0.066399 0.715264 0.330594

loop_
_geom_bond_atom_site_label_1
_geom_bond_atom_site_label_2
_geom_bond_distance
_ccdc_geom_bond_type
O25   Cr6   1.934819 S    
C31   O29   1.398550 S    
O23   C29   1.275722 A    
O11   Cr3   2.043569 S    
C17   C20   1.347881 D    
C18   C19   1.367946 D    
C13   C35   1.488557 S    
C10   C25   1.472257 S    
O24   Cr6   2.053526 S    
O4    Cr2   1.934178 S    
C22   C28   1.412733 S    
C28   O22   1.249888 A    
C25   O16   1.277481 A    
C9    C12   1.366314 D    
O8    Cr1   1.921128 S    
C10   C11   1.358475 D    
Cr4   O26   1.981081 S    
C19   C20   1.471576 S    
C34   O38   1.397996 S    
O4    C2    1.259999 A    
C5    O11   1.280720 A    
C29   O24   1.253089 A    
Cr5   O26   1.982546 S    
O21   Cr4   1.939703 S    
O29   H3    1.014056 S    
O18   Cr6   2.054840 S    
C26   O18   1.258162 A    
C18   O30   1.385179 S    
O6    C3    1.261342 A    
C7    C8    1.183343 T    
O30   H4    0.988233 S    
C14   O39   1.383699 S    
C5    C17   1.469500 S    
C13   C16   1.363096 D    
O39   H10   0.991596 S    
C31   O28   1.222840 D    
C18   C29   1.440791 S    
Cr3   O13   1.982219 S    
O6    Cr3   1.924479 S    
C9    H1    1.085293 S    
O1    Cr1   2.038297 S    
O32   H5    1.014034 S    
O17   Cr5   1.937815 S    
C3    C9    1.460790 S    
O10   Cr2   1.938528 S    
Cr1   O13   1.981293 S    
O1    C3    1.285520 A    
C33   O33   1.222397 D    
C24   C30   1.429194 S    
C32   O32   1.399565 S    
O14   Cr4   2.059206 S    
O34   H6    1.013948 S    
C32   O31   1.222174 D    
O25   C30   1.265407 A    
O5    Cr3   2.056146 S    
C10   O35   1.384657 S    
C4    C23   1.428552 S    
C1    C13   1.463653 S    
O15   C25   1.273084 A    
Cr6   O26   1.969539 S    
C35   O41   1.398243 S    
C14   C15   1.361268 D    
O7    Cr1   2.057248 S    
C20   C31   1.486346 S    
O12   C6    1.256495 A    
C34   O37   1.222579 D    
O15   Cr4   1.923834 S    
O14   C27   1.276234 A    
C23   C24   1.202780 T    
Cr2   O13   1.970272 S    
O36   H8    0.990668 S    
O20   C30   1.274566 A    
C14   C27   1.463538 S    
C1    O3    1.269838 A    
C12   C33   1.494725 S    
C17   C32   1.502349 S    
O21   C28   1.285326 A    
O17   C26   1.263441 A    
O19   Cr6   1.937238 S    
O9    Cr2   2.049587 S    
O2    Cr1   1.939883 S    
O38   H9    1.013839 S    
C8    C26   1.394180 S    
C33   O34   1.399839 S    
O35   H7    0.990585 S    
O8    C4    1.311211 A    
C2    O5    1.260276 A    
O22   Cr5   2.055028 S    
C15   O36   1.383935 S    
C15   C16   1.471140 S    
O2    C1    1.268197 A    
C6    C21   1.416087 S    
O27   H2    0.992865 S    
C35   O40   1.222087 D    
C21   C22   1.195848 T    
O7    C6    1.280498 A    
C2    C7    1.394883 S    
O23   Cr5   1.922225 S    
O16   Cr5   2.038892 S    
O41   H11   1.011704 S    
O42   H12   0.991619 S    
C16   C34   1.487525 S    
O12   Cr3   1.936709 S    
C11   O27   1.384036 S    
O3    Cr2   2.058167 S    
C19   O42   1.384913 S    
C4    O9    1.287222 A    
O19   C27   1.258962 A    
C11   C12   1.469655 S    
O10   C5    1.262989 A    
O20   Cr4   2.042236 S    
