data_mof_unit_41157.cif
_audit_creation_date              2013-03-05T15:52:20-0500
_audit_creation_method            fapswitch 2.2
_symmetry_space_group_name_H-M    P1
_symmetry_Int_Tables_number       1
_space_group_crystal_system       triclinic
_cell_length_a                    14.915463
_cell_length_b                    15.193643
_cell_length_c                    9.93563
_cell_angle_alpha                 89.560847
_cell_angle_beta                  90.055501
_cell_angle_gamma                 89.923428
_cell_volume                      2251.5454293

loop_
_atom_site_label
_atom_site_type_symbol
_atom_site_description
_atom_site_fract_x
_atom_site_fract_y
_atom_site_fract_z
_atom_type_partial_charge
O1    O     O_R   0.408390 0.908380 0.614690 -0.644485
O2    O     O_R   0.408390 0.091620 0.614690 -0.630825
O3    O     O_R   0.908390 0.408380 0.614690 -0.644382
O4    O     O_R   0.908390 0.591620 0.614690 -0.630791
O5    O     O_R   0.408370 0.908380 0.385360 -0.624715
O6    O     O_R   0.408370 0.091620 0.385360 -0.631077
O7    O     O_R   0.908370 0.408380 0.385360 -0.624689
O8    O     O_R   0.908370 0.591620 0.385360 -0.630769
C1    C     C_R   0.383093 0.877643 0.500509 0.869498
C2    C     C_R   0.382152 0.121421 0.499587 0.872769
C3    C     C_R   0.883067 0.377669 0.500502 0.869342
C4    C     C_R   0.882094 0.621364 0.499594 0.872550
Zn1   Zn    Zn3+2 0.500010 0.000000 0.653130 0.936858
Zn2   Zn    Zn3+2 0.000010 0.500000 0.653130 0.936893
Zn3   Zn    Zn3+2 0.499980 0.000000 0.346870 0.948023
Zn4   Zn    Zn3+2 0.999980 0.500000 0.346870 0.948107
O9    O     O_R   0.591620 0.091610 0.614640 -0.609853
O10   O     O_R   0.591620 0.908390 0.614640 -0.633677
O11   O     O_R   0.091620 0.591610 0.614640 -0.609850
O12   O     O_R   0.091620 0.408390 0.614640 -0.633732
O13   O     O_R   0.591610 0.091610 0.385310 -0.630590
O14   O     O_R   0.591610 0.908390 0.385310 -0.605038
O15   O     O_R   0.091610 0.591610 0.385310 -0.630559
O16   O     O_R   0.091610 0.408390 0.385310 -0.605173
C5    C     C_R   0.622368 0.116995 0.499597 0.840772
C6    C     C_R   0.621445 0.882072 0.500386 0.846103
C7    C     C_R   0.122397 0.616964 0.499590 0.840707
C8    C     C_R   0.121507 0.382136 0.500393 0.846094
H1    H     H_    0.228363 0.116267 0.622462 0.143808
H2    H     H_    0.238724 0.873011 0.353876 0.190636
H3    H     H_    0.727677 0.615582 0.620659 0.143647
H4    H     H_    0.738392 0.373343 0.354526 0.190688
C9    C     C_R   0.421832 0.288490 0.367658 -0.202700
C10   C     C_R   0.415444 0.716883 0.657840 -0.184455
C11   C     C_R   0.922304 0.788895 0.369664 -0.202400
C12   C     C_R   0.915679 0.216701 0.657063 -0.184037
H5    H     H_    0.474155 0.239531 0.365179 0.150452
H6    H     H_    0.467675 0.765690 0.662290 0.156921
H7    H     H_    0.974630 0.739934 0.367334 0.149909
H8    H     H_    0.967930 0.265493 0.661364 0.156620
C13   C     C_R   0.438918 0.369744 0.306731 -0.099374
C14   C     C_R   0.428870 0.638932 0.730106 -0.120787
C15   C     C_R   0.939655 0.870385 0.309643 -0.099245
C16   C     C_R   0.929216 0.138664 0.729063 -0.120595
H9    H     H_    0.502750 0.381660 0.258178 0.189248
H10   H     H_    0.489473 0.629772 0.788663 0.156590
H11   H     H_    0.003726 0.882514 0.261907 0.189502
H12   H     H_    0.989939 0.129409 0.787304 0.156283
C17   C     C_R   0.875029 0.936466 0.312503 -0.095114
C18   C     C_R   0.865445 0.072090 0.724325 -0.114218
C19   C     C_R   0.374355 0.435877 0.309781 -0.095548
C20   C     C_R   0.365160 0.572309 0.725207 -0.114550
H13   H     H_    0.888903 0.000013 0.267135 0.169054
H14   H     H_    0.876669 0.010987 0.778560 0.150820
H15   H     H_    0.388045 0.499258 0.263753 0.168853
H16   H     H_    0.376314 0.511263 0.779627 0.150661
C21   C     C_R   0.792753 0.921103 0.374912 -0.213091
C22   C     C_R   0.787601 0.083634 0.648493 -0.196366
C23   C     C_R   0.292394 0.420790 0.373248 -0.212804
C24   C     C_R   0.287472 0.583729 0.648975 -0.195936
H17   H     H_    0.745227 0.974839 0.377368 0.142893
H18   H     H_    0.741325 0.029050 0.644406 0.145750
H19   H     H_    0.244961 0.474599 0.375900 0.143131
H20   H     H_    0.241260 0.529097 0.644742 0.145660
C25   C     C_R   0.773895 0.838479 0.435290 0.096000
C26   C     C_R   0.772021 0.163113 0.576773 0.098306
C27   C     C_R   0.273755 0.338364 0.434423 0.096364
C28   C     C_R   0.271976 0.663141 0.577039 0.098672
C29   C     C_R   0.339109 0.271963 0.432314 0.103103
C30   C     C_R   0.336958 0.729849 0.580046 0.107315
C31   C     C_R   0.839282 0.772112 0.433281 0.102936
C32   C     C_R   0.837035 0.229791 0.579692 0.107247
C33   C     C_R   0.320210 0.191733 0.499010 -0.081635
C34   C     C_R   0.322114 0.806304 0.500983 -0.106954
C35   C     C_R   0.820103 0.691622 0.499019 -0.081598
C36   C     C_R   0.822060 0.306361 0.500966 -0.106899
C37   C     C_R   0.241270 0.177903 0.570176 -0.162355
C38   C     C_R   0.248287 0.815053 0.416458 -0.191731
C39   C     C_R   0.740808 0.677452 0.569144 -0.161805
C40   C     C_R   0.748059 0.315274 0.416829 -0.191991
H21   H     H_    0.614760 0.729699 0.623067 0.141546
H22   H     H_    0.626406 0.259641 0.351244 0.154660
H23   H     H_    0.115524 0.230400 0.624991 0.141824
H24   H     H_    0.126799 0.759289 0.350497 0.154901
C41   C     C_R   0.676991 0.741938 0.570499 -0.180629
C42   C     C_R   0.684525 0.250886 0.415183 -0.196171
C43   C     C_R   0.177480 0.242400 0.571578 -0.181218
C44   C     C_R   0.184774 0.750654 0.414772 -0.196759
C45   C     C_R   0.692338 0.820487 0.501573 -0.094147
C46   C     C_R   0.694498 0.177326 0.498006 -0.104090
C47   C     C_R   0.192475 0.320626 0.501631 -0.094354
C48   C     C_R   0.194575 0.677246 0.497960 -0.104196
H25   H     H_    0.640365 0.997661 0.125201 0.145548
H26   H     H_    0.140365 0.497628 0.125201 0.145318
C49   C     C_R   0.336060 0.003730 0.139228 -0.251091
C50   C     C_R   0.836058 0.503766 0.139224 -0.250949
H27   H     H_    0.332110 0.002414 0.245796 0.233840
H28   H     H_    0.832104 0.502427 0.245793 0.233722
C51   C     C_R   0.254394 0.007055 0.069570 0.334476
C52   C     C_R   0.754396 0.507142 0.069561 0.334382
C53   C     C_R   0.255512 0.005117 0.929453 -0.275027
C54   C     C_R   0.755514 0.505196 0.929445 -0.274931
H29   H     H_    0.193524 0.006782 0.872634 0.189553
H30   H     H_    0.693528 0.506888 0.872622 0.189569
C55   C     C_R   0.336301 0.001626 0.860135 -0.216273
C56   C     C_R   0.836302 0.501661 0.860130 -0.216040
H31   H     H_    0.330774 0.999636 0.753538 0.221037
H32   H     H_    0.830773 0.499655 0.753533 0.220992
C57   C     C_R   0.419296 0.001045 0.927689 0.182339
C58   C     C_R   0.919296 0.501062 0.927687 0.182291
C59   C     C_R   0.419254 0.001501 0.071935 0.121214
C60   C     C_R   0.919254 0.501517 0.071934 0.121272
N1    N     N_R   0.498810 0.000000 0.142780 -0.111853
N2    N     N_R   0.998810 0.500000 0.142780 -0.111787
C61   C     C_R   0.577201 0.998710 0.071567 -0.088439
C62   C     C_R   0.077201 0.498692 0.071567 -0.088395
H33   H     H_    0.640309 0.997938 0.875127 0.144414
H34   H     H_    0.140309 0.497904 0.875128 0.144297
C63   C     C_R   0.577164 0.998843 0.928591 -0.099704
C64   C     C_R   0.077164 0.498825 0.928591 -0.099679
N3    N     N_R   0.498740 0.000000 0.857170 -0.116418
N4    N     N_R   0.998740 0.500000 0.857170 -0.116379
N5    N     N_R   0.170598 0.012680 0.141150 0.201576
O17   O     O_R   0.169275 0.027367 0.270042 -0.441425
O18   O     O_R   0.094697 0.006638 0.077129 -0.430731
N6    N     N_R   0.670601 0.512834 0.141132 0.201730
O19   O     O_R   0.669286 0.527573 0.270010 -0.441081
O20   O     O_R   0.594699 0.506845 0.077105 -0.431123

loop_
_geom_bond_atom_site_label_1
_geom_bond_atom_site_label_2
_geom_bond_distance
_ccdc_geom_bond_type
C22   H18   1.080667 S    
H23   C43   1.081088 S    
N6    O19   1.301762 A    
Zn2   N4    2.027373 S    
C43   C47   1.390676 A    
O10   C6    1.286036 A    
C32   C36   1.414274 A    
C60   N2    1.379174 A    
N5    O17   1.301764 A    
C26   C46   1.411062 A    
C6    C45   1.411009 S    
C25   C45   1.409926 A    
C55   H31   1.062899 S    
C5    C46   1.414357 S    
C18   H14   1.082594 S    
C35   C39   1.389450 A    
O13   C5    1.286385 A    
Zn1   O10   1.988657 S    
C52   N6    1.441393 S    
C41   C45   1.390754 A    
C3    C36   1.415776 S    
H33   C63   1.081879 S    
C14   H10   1.082753 S    
C2    C33   1.411427 S    
C49   C51   1.401043 A    
N5    O18   1.301705 A    
C38   C44   1.363001 A    
C17   C21   1.394622 A    
H25   C61   1.081984 S    
C21   H17   1.080950 S    
O2    Zn1   1.984156 S    
C40   C42   1.363087 A    
C20   C24   1.393641 A    
C23   C27   1.415872 A    
O6    Zn3   1.988763 S    
C22   C26   1.416245 A    
Zn3   O14   1.984153 S    
C26   C32   1.403751 A    
C12   C32   1.414835 A    
C44   C48   1.390568 A    
C10   C14   1.394417 A    
C50   H28   1.060562 S    
C30   C34   1.414390 A    
Zn3   N1    2.027821 S    
C29   C33   1.411883 A    
O15   C7    1.286339 A    
O4    C4    1.287054 A    
O11   C7    1.288618 A    
C10   C30   1.414906 A    
C9    C29   1.413512 A    
C11   C31   1.413448 A    
O8    Zn4   1.988763 S    
C52   C54   1.392800 A    
C64   N4    1.367584 A    
O7    C3    1.289204 A    
H34   C64   1.081875 S    
C63   N3    1.367583 A    
C53   C55   1.389677 A    
C18   C22   1.393659 A    
Zn2   O12   1.988657 S    
C12   H8    1.077380 S    
O1    C1    1.286557 A    
C42   C46   1.390557 A    
H26   C62   1.081982 S    
C15   C17   1.391373 A    
C28   C48   1.411041 A    
O12   C8    1.285992 A    
C25   C31   1.402169 A    
C9    H5    1.077849 S    
C62   C64   1.420541 A    
C27   C29   1.402219 A    
H24   C44   1.081723 S    
C11   H7    1.077867 S    
O5    C1    1.289287 A    
H4    C40   1.083281 S    
Zn1   N3    2.027373 S    
O8    C4    1.286188 A    
C27   C47   1.409940 A    
H1    C37   1.084951 S    
C7    C48   1.414422 S    
C59   N1    1.379160 A    
C13   H9    1.082578 S    
C54   H30   1.083001 S    
C37   C43   1.365097 A    
O3    Zn2   1.990816 S    
C28   C30   1.403785 A    
O7    Zn4   1.987217 S    
C51   C53   1.392803 A    
Zn4   O15   1.990810 S    
C61   C63   1.420545 A    
C34   C38   1.389825 A    
C12   C16   1.394414 A    
O1    Zn1   1.990816 S    
C1    C34   1.415860 S    
O2    C2    1.287151 A    
C39   C41   1.365254 A    
C11   C15   1.394779 A    
O16   C8    1.287216 A    
C51   N5    1.441400 S    
C56   C58   1.407572 A    
C16   C18   1.390436 A    
C55   C57   1.407566 A    
N6    O20   1.301705 A    
C10   H6    1.077377 S    
Zn2   O11   1.987108 S    
C36   C40   1.389790 A    
C21   C25   1.415850 A    
Zn4   N2    2.027821 S    
O6    C2    1.286171 A    
N2    C62   1.367434 A    
C49   H27   1.060551 S    
H3    C39   1.085036 S    
C23   H19   1.080955 S    
C53   H29   1.083001 S    
Zn1   O9    1.987108 S    
C24   H20   1.080677 S    
C9    C13   1.394695 A    
C57   C59   1.433246 A    
O9    C5    1.288539 A    
H22   C42   1.081705 S    
C58   N4    1.377305 A    
C31   C35   1.411753 A    
C57   N3    1.377311 A    
C56   H32   1.062905 S    
C17   H13   1.082716 S    
C50   C52   1.401054 A    
C50   C60   1.410620 A    
C54   C56   1.389666 A    
C8    C47   1.411094 S    
C19   H15   1.082662 S    
O4    Zn2   1.984156 S    
C58   C60   1.433252 A    
O5    Zn3   1.987217 S    
O3    C3    1.286583 A    
H2    C38   1.083293 S    
C20   H16   1.082598 S    
Zn3   O13   1.990810 S    
C19   C23   1.394515 A    
C24   C28   1.416246 A    
Zn4   O16   1.984153 S    
O14   C6    1.287132 A    
C4    C35   1.411292 S    
C33   C37   1.389419 A    
C49   C59   1.410611 A    
C15   H11   1.082659 S    
C13   C19   1.391333 A    
H21   C41   1.081139 S    
C16   H12   1.082747 S    
C14   C20   1.390413 A    
N1    C61   1.367433 A    
