data_mof_unit_10771.cif
_audit_creation_date              2012-12-11T15:42:42-0500
_audit_creation_method            fapswitch 2.2
_symmetry_space_group_name_H-M    P1
_symmetry_Int_Tables_number       1
_space_group_crystal_system       triclinic
_cell_length_a                    6.923767
_cell_length_b                    14.565528
_cell_length_c                    16.201313
_cell_angle_alpha                 90.366075
_cell_angle_beta                  89.863442
_cell_angle_gamma                 90.182048
_cell_volume                      1633.82907374

loop_
_atom_site_label
_atom_site_type_symbol
_atom_type_description
_atom_site_fract_x
_atom_site_fract_y
_atom_site_fract_z
_atom_type_partial_charge
O1    O     O_R   0.505810 0.583360 0.413880 -0.543447
O2    O     O_R   0.175870 0.595480 0.585520 -0.545162
O3    O     O_R   0.005540 0.416640 0.586120 -0.544903
C1    C     C_R   0.344878 0.617264 0.614693 0.734792
O4    O     O_R   0.176100 0.594390 0.414490 -0.546193
O5    O     O_R   0.005770 0.415540 0.413870 -0.542286
C2    C     C_R   0.345406 0.616433 0.385680 0.675701
O6    O     O_R   0.505580 0.584460 0.586130 -0.539893
O7    O     O_3   0.339190 0.441320 0.500000 -0.362803
V1    V     V_3+5 0.064350 0.510890 0.500000 1.401881
O8    O     O_R   0.676050 0.404520 0.414480 -0.546957
C3    C     C_R   0.844972 0.382539 0.385415 0.702467
O9    O     O_R   0.675830 0.405610 0.585510 -0.510990
C4    C     C_R   0.844037 0.384158 0.614397 0.777089
V2    V     V_3+5 0.564340 0.489110 0.500000 1.432306
O10   O     O_3   0.839370 0.558680 0.500000 -0.377300
C5    C     C_2   0.719802 0.212728 0.790729 -0.197452
C6    C     C_2   0.886351 0.184309 0.824811 -0.352974
H1    H     H_    0.584668 0.183707 0.812909 0.145546
H2    H     H_    0.023565 0.213819 0.806440 0.133975
C7    C     C_2   0.703039 0.284922 0.725962 0.225041
C8    C     C_2   0.856101 0.314641 0.680775 -0.300135
H3    H     H_    0.998687 0.286899 0.691584 0.098038
C9    C     C_R   0.043419 0.240786 0.205947 0.434387
C10   C     C_R   0.030886 0.301966 0.273347 -0.242340
H4    H     H_    0.159088 0.339784 0.291495 0.128368
C11   C     C_R   0.856094 0.315314 0.316015 -0.100971
C12   C     C_R   0.693167 0.264761 0.291063 -0.160035
H5    H     H_    0.555931 0.273443 0.322327 0.142808
C13   C     C_R   0.706012 0.200760 0.226504 -0.220210
H6    H     H_    0.578381 0.161355 0.210688 0.182330
C14   C     C_R   0.880948 0.186654 0.183748 -0.138569
C15   C     C_R   0.200744 0.742043 0.703055 -0.265269
H7    H     H_    0.068666 0.736575 0.667671 0.136337
C16   C     C_R   0.213831 0.808159 0.766711 0.403956
C17   C     C_R   0.380074 0.811639 0.818024 -0.164839
C18   C     C_R   0.536273 0.751711 0.799815 0.161683
C19   C     C_R   0.523989 0.690699 0.732283 -0.198227
H8    H     H_    0.644406 0.645590 0.719002 0.129915
C20   C     C_R   0.356515 0.684571 0.683997 -0.133484
C21   C     C_R   0.188380 0.723090 0.284069 -0.159996
H9    H     H_    0.047462 0.704753 0.308059 0.116266
C22   C     C_R   0.199396 0.786216 0.219320 -0.151670
H10   H     H_    0.066502 0.814696 0.195619 0.117494
C23   C     C_R   0.379122 0.812298 0.185832 -0.044541
C24   C     C_R   0.547515 0.773398 0.218968 -0.158689
H11   H     H_    0.688425 0.791728 0.194963 0.115709
C25   C     C_R   0.536498 0.710271 0.283722 -0.154583
H12   H     H_    0.669383 0.681777 0.307418 0.117362
C26   C     C_R   0.356778 0.684254 0.317258 -0.045261
O11   O     O_R   0.230120 0.912300 0.917180 -0.511648
O12   O     O_R   0.559740 0.902430 0.088770 -0.547300
O13   O     O_R   0.729930 0.081310 0.089370 -0.546448
C27   C     C_R   0.390456 0.880262 0.117526 0.677850
O14   O     O_R   0.559840 0.901330 0.917750 -0.518923
O15   O     O_R   0.730030 0.080210 0.917120 -0.539776
C28   C     C_R   0.390890 0.879182 0.888370 0.735035
O16   O     O_R   0.230020 0.913400 0.089430 -0.543164
O17   O     O_3   0.396460 0.055470 0.003290 -0.379883
V3    V     V_3+5 0.671360 0.985960 0.003250 1.449485
O18   O     O_R   0.059740 0.091300 0.917690 -0.557236
C29   C     C_R   0.891361 0.113865 0.889994 0.761269
O19   O     O_R   0.059640 0.092400 0.088720 -0.518108
C30   C     C_R   0.890855 0.115905 0.116729 0.700541
V4    V     V_3+5 0.171350 0.007820 0.003190 1.451957
O20   O     O_3   0.896380 0.938200 0.003220 -0.357060
O21   O     O_3   0.059335 0.866235 0.782460 -0.551748
C31   C     C_3   0.029754 0.927234 0.715879 0.109620
H13   H     H_    0.888708 0.961563 0.726588 0.142230
H14   H     H_    0.016907 0.890987 0.655497 0.098337
C32   C     C_3   0.187679 0.001493 0.711872 -0.348531
H15   H     H_    0.200150 0.036478 0.772670 0.202427
H16   H     H_    0.329172 0.969528 0.697022 0.176540
C33   C     C_3   0.142203 0.072567 0.645987 -0.841935
H17   H     H_    0.134904 0.039279 0.584195 0.235566
H18   H     H_    0.257567 0.125614 0.644973 0.226432
H19   H     H_    0.002205 0.106543 0.659490 0.237697
N1    N     N_3   0.705806 0.751139 0.850897 -0.594745
H20   H     H_    0.666917 0.721668 0.907242 0.209015
H21   H     H_    0.812808 0.709173 0.825229 0.231045
N2    N     N_3   0.514574 0.322461 0.711869 -0.638540
H22   H     H_    0.464766 0.350416 0.767550 0.216214
H23   H     H_    0.421916 0.268579 0.695576 0.212496
O22   O     O_3   0.219074 0.228979 0.166154 -0.574408
C34   C     C_3   0.264757 0.307092 0.118043 0.050523
H24   H     H_    0.424619 0.313832 0.116599 0.145580
H25   H     H_    0.208770 0.372896 0.144197 0.100358
C35   C     C_3   0.192614 0.293991 0.029371 -0.280334
H26   H     H_    0.254324 0.229866 0.003138 0.221340
H27   H     H_    0.032584 0.287892 0.029347 0.165991
C36   C     C_3   0.251704 0.374157 0.974575 -0.868196
H28   H     H_    0.189587 0.439263 0.998685 0.235878
H29   H     H_    0.197006 0.362262 0.910991 0.229344
H30   H     H_    0.411577 0.380320 0.972011 0.230943

loop_
_geom_bond_atom_site_label_1
_geom_bond_atom_site_label_2
_ccdc_geom_bond_type
C19   C20   A    
O19   V4    S    
C21   H9    S    
C16   C17   A    
C1    O6    A    
N2    H22   S    
C23   C24   A    
C33   H18   S    
C17   C18   A    
O5    C3    A    
C13   H6    S    
O13   C30   A    
N1    H21   S    
V2    O10   S    
O11   V4    S    
O12   V3    S    
C5    H1    S    
O8    V2    S    
C1    C20   S    
C31   H13   S    
C33   H19   S    
O11   C28   A    
O9    C4    A    
O7    V1    S    
C25   C26   A    
V3    O20   S    
O17   V3    S    
O14   V3    S    
C21   C22   A    
N2    H23   S    
O13   V3    S    
O12   C27   A    
C15   H7    S    
C34   H25   S    
C24   C25   A    
C15   C20   A    
C33   H17   S    
C3    C11   S    
O21   C31   S    
C9    C10   A    
C14   C30   S    
C17   C28   S    
C36   H28   S    
O4    C2    A    
N1    H20   S    
C6    C29   S    
C10   H4    S    
C34   H24   S    
C5    C7    S    
O15   V3    S    
O2    C1    A    
C22   H10   S    
C9    C14   A    
C18   C19   A    
C36   H29   S    
O16   V4    S    
C35   C36   S    
C16   O21   S    
C5    C6    D    
O22   C34   S    
C22   C23   A    
O3    C4    A    
O1    V2    S    
C25   H12   S    
C7    N2    S    
C23   C27   S    
O6    V2    S    
O9    V2    S    
O15   C29   A    
O2    V1    S    
C21   C26   A    
C32   H16   S    
C27   O16   A    
C34   C35   S    
C24   H11   S    
C12   H5    S    
O1    C2    A    
C2    C26   S    
C35   H27   S    
O5    V1    S    
C32   C33   S    
O8    C3    A    
C10   C11   A    
C18   N1    S    
C4    C8    S    
O14   C28   A    
O7    V2    S    
O4    V1    S    
O3    V1    S    
V1    O10   S    
O17   V4    S    
C36   H30   S    
C13   C14   A    
C19   H8    S    
C31   C32   S    
C12   C13   A    
C15   C16   A    
C6    H2    S    
C9    O22   S    
O18   C29   A    
O19   C30   A    
O18   V4    S    
C32   H15   S    
C35   H26   S    
C31   H14   S    
V4    O20   S    
C11   C12   A    
C8    H3    S    
C7    C8    D    
