data_mof_unit_6895.cif
_audit_creation_date              2012-12-10T17:29:18-0500
_audit_creation_method            fapswitch 2.2
_symmetry_space_group_name_H-M    P1
_symmetry_Int_Tables_number       1
_space_group_crystal_system       triclinic
_cell_length_a                    12.003584
_cell_length_b                    12.897238
_cell_length_c                    13.100447
_cell_angle_alpha                 87.382167
_cell_angle_beta                  113.396406
_cell_angle_gamma                 93.268815
_cell_volume                      1857.7519387

loop_
_atom_site_label
_atom_site_type_symbol
_atom_type_description
_atom_site_fract_x
_atom_site_fract_y
_atom_site_fract_z
_atom_type_partial_charge
C1    C     C_R   0.477684 0.299472 0.498822 0.881298
C2    C     C_R   0.551179 0.456746 0.986778 0.051522
C3    C     C_R   0.518763 0.438218 0.873849 0.090420
C4    C     C_R   0.457266 0.462487 0.024996 0.090943
C5    C     C_R   0.336240 0.430358 0.956901 0.185188
C6    C     C_R   0.310581 0.392927 0.851593 -0.256791
C7    C     C_R   0.401197 0.396322 0.810635 -0.185764
C8    C     C_R   0.480543 0.502089 0.128405 -0.256562
C9    C     C_R   0.271733 0.467227 0.104152 -0.213923
C10   C     C_R   0.605186 0.462630 0.827723 -0.156272
C11   C     C_R   0.535300 0.811847 0.501537 -0.057173
C12   C     C_R   0.565169 0.486417 0.708245 0.880961
C13   C     C_R   0.464256 0.188234 0.497484 -0.050600
C14   C     C_R   0.340228 0.030658 0.471406 -0.221185
C15   C     C_R   0.351059 0.137907 0.476156 -0.209889
C16   C     C_R   0.566749 0.132029 0.515389 -0.280075
C17   C     C_R   0.556715 0.025571 0.510292 0.187502
C18   C     C_R   0.442581 0.974548 0.488031 0.188296
C19   C     C_R   0.432666 0.868040 0.483259 -0.278513
C20   C     C_R   0.648350 0.862263 0.522435 -0.206743
C21   C     C_R   0.659058 0.969512 0.526850 -0.222178
C22   C     C_R   0.016718 0.613393 0.414839 -0.337536
C23   C     C_R   0.522202 0.700546 0.500934 0.894804
C24   C     C_R   0.135485 0.601319 0.421959 0.006673
C25   C     C_R   0.151912 0.447166 0.531264 -0.044133
C26   C     C_R   0.033415 0.457057 0.527963 0.104113
C27   C     C_R   0.964945 0.541424 0.468946 0.095201
C28   C     C_R   0.846311 0.551192 0.465583 -0.062550
C29   C     C_R   0.864390 0.398505 0.577622 0.016785
C30   C     C_R   0.981926 0.385165 0.582360 -0.346666
C31   C     C_R   0.433560 0.505468 0.291126 0.879368
C32   C     C_R   0.243610 0.434869 0.996253 -0.201515
C33   C     C_R   0.391799 0.496647 0.171492 -0.058034
C34   C     C_R   0.729194 0.470783 0.898104 -0.237110
C35   C     C_R   0.765285 0.465395 0.013746 0.171454
C36   C     C_R   0.676039 0.466156 0.057255 -0.226713
H1    H     H_    0.201312 0.466409 0.135896 0.160214
H2    H     H_    0.728141 0.819022 0.536528 0.160740
H3    H     H_    0.252435 0.991796 0.454446 0.136857
H4    H     H_    0.746809 0.008408 0.543677 0.136806
H5    H     H_    0.271312 0.181208 0.462114 0.156601
H6    H     H_    0.654745 0.170848 0.532757 0.155401
H7    H     H_    0.792102 0.615046 0.419217 0.121905
H8    H     H_    0.825565 0.342544 0.619623 0.124582
H9    H     H_    0.966271 0.678950 0.368094 0.141300
H10   H     H_    0.031966 0.319088 0.628193 0.135551
H11   H     H_    0.174756 0.657696 0.380743 0.127471
H12   H     H_    0.220302 0.362977 0.800256 0.140965
H13   H     H_    0.204134 0.381537 0.574625 0.109991
H14   H     H_    0.150772 0.410768 0.944992 0.133852
H15   H     H_    0.569020 0.535648 0.178446 0.150236
H16   H     H_    0.797322 0.481531 0.863272 0.155234
H17   H     H_    0.706167 0.467653 0.146543 0.135510
H18   H     H_    0.379632 0.363642 0.730262 0.158046
H19   H     H_    0.344730 0.829168 0.466047 0.156139
N1    N     N_R   0.798200 0.480260 0.519790 -0.094703
N2    N     N_R   0.201820 0.519740 0.480210 -0.098726
O1    O     O_R   0.579910 0.341070 0.505280 -0.627223
O2    O     O_R   0.388440 0.353740 0.492580 -0.636118
O3    O     O_R   0.643280 0.490550 0.663120 -0.615147
O4    O     O_R   0.451810 0.503220 0.650420 -0.604613
O5    O     O_R   0.611560 0.646260 0.507420 -0.625892
O6    O     O_R   0.420090 0.658930 0.494720 -0.622985
O7    O     O_R   0.548190 0.496780 0.349580 -0.614723
O8    O     O_R   0.356720 0.509450 0.336880 -0.622724
Zn1   Zn    Zn3+2 0.627850 0.491540 0.508480 0.936489
Zn2   Zn    Zn3+2 0.372150 0.508460 0.491520 0.930994
C37   C     C_3   0.897902 0.460487 0.090944 -0.438745
C38   C     C_3   0.920472 0.361438 0.165341 -0.341331
C39   C     C_3   0.055543 0.345340 0.230942 -0.855137
H20   H     H_    0.097710 0.322526 0.174201 0.252450
H21   H     H_    0.102076 0.417249 0.274281 0.276762
H22   H     H_    0.067452 0.281879 0.294145 0.242538
H23   H     H_    0.877106 0.366653 0.225642 0.222503
H24   H     H_    0.879622 0.292374 0.113429 0.228101
H25   H     H_    0.955470 0.461503 0.042056 0.197369
H26   H     H_    0.924963 0.530005 0.143961 0.198856

loop_
_geom_bond_atom_site_label_1
_geom_bond_atom_site_label_2
_ccdc_geom_bond_type
C14   C18   A    
C35   C36   A    
C4    C8    A    
C28   N1    A    
C11   C19   A    
C26   C27   A    
C6    H12   S    
C34   C35   A    
C3    C7    A    
C1    O2    A    
C5    C6    A    
C19   H19   S    
C18   C19   A    
C36   H17   S    
C9    C32   A    
O2    Zn2   S    
C14   H3    S    
O1    Zn1   S    
C23   O5    A    
C37   C38   S    
O8    Zn2   S    
C31   C33   S    
C39   H20   S    
C5    C32   A    
C23   O6    A    
O3    Zn1   S    
C9    C33   A    
C25   N2    A    
N2    Zn2   S    
O6    Zn2   S    
C11   C20   A    
O5    Zn1   S    
C15   H5    S    
C16   C17   A    
C25   C26   A    
C17   C21   A    
O7    Zn1   S    
C2    C4    A    
C29   C30   A    
C20   H2    S    
O4    Zn2   S    
C39   H22   S    
C9    H1    S    
C17   C18   A    
C38   H23   S    
C10   C34   A    
C8    H15   S    
C32   H14   S    
C10   C12   S    
C26   C30   A    
C22   C27   A    
C13   C15   A    
C29   H8    S    
C22   C24   A    
C1    C13   S    
C16   H6    S    
C24   N2    A    
C2    C36   A    
C37   H26   S    
C31   O8    A    
C24   H11   S    
C31   O7    A    
C30   H10   S    
C4    C5    A    
C6    C7    A    
C29   N1    A    
C37   H25   S    
C28   H7    S    
C34   H16   S    
C2    C3    A    
C3    C10   A    
C1    O1    A    
C12   O4    A    
C21   H4    S    
C35   C37   S    
N1    Zn1   S    
C11   C23   S    
C38   H24   S    
C8    C33   A    
C38   C39   S    
C25   H13   S    
C12   O3    A    
C22   H9    S    
C20   C21   A    
C13   C16   A    
C27   C28   A    
C14   C15   A    
C39   H21   S    
C7    H18   S    
