data_mof_unit_36502.cif
_audit_creation_date              2012-12-10T20:28:40-0500
_audit_creation_method            fapswitch 2.2
_symmetry_space_group_name_H-M    P1
_symmetry_Int_Tables_number       1
_space_group_crystal_system       triclinic
_cell_length_a                    10.634459
_cell_length_b                    10.660951
_cell_length_c                    9.864646
_cell_angle_alpha                 90.01171
_cell_angle_beta                  89.986803
_cell_angle_gamma                 90.108748
_cell_volume                      1118.38684626

loop_
_atom_site_label
_atom_site_type_symbol
_atom_type_description
_atom_site_fract_x
_atom_site_fract_y
_atom_site_fract_z
_atom_type_partial_charge
C1    C     C_R   0.495100 0.259935 0.500015 0.883378
C2    C     C_R   0.066071 0.611461 0.568114 0.101437
C3    C     C_R   0.128326 0.513102 0.499832 -0.088155
C4    C     C_R   0.064214 0.420536 0.428359 -0.209597
C5    C     C_R   0.935821 0.420420 0.428330 -0.198542
C6    C     C_R   0.871856 0.513016 0.499528 -0.095117
C7    C     C_R   0.465776 0.063993 0.622552 0.137092
C8    C     C_R   0.472234 0.128729 0.500185 -0.103546
C9    C     C_R   0.452453 0.064755 0.377705 -0.224411
C10   C     C_R   0.452821 0.935065 0.377703 -0.212468
C11   C     C_R   0.472984 0.871291 0.500155 -0.100276
C12   C     C_R   0.260506 0.504040 0.500067 0.871742
C13   C     C_R   0.466334 0.936085 0.622480 0.104237
C14   C     C_3   0.547427 0.929363 0.746002 -0.493441
C15   C     C_3   0.547086 0.071591 0.745945 -0.457097
C16   C     C_R   0.446708 0.402958 0.071186 0.212076
C17   C     C_R   0.562676 0.589651 0.071961 -0.121488
C18   C     C_R   0.562789 0.589594 0.927963 -0.125231
C19   C     C_R   0.446679 0.403009 0.928684 0.203134
C20   C     C_3   0.312561 0.362479 0.922881 -0.476627
C21   C     C_3   0.312571 0.362375 0.076907 -0.508760
C22   C     C_R   0.495554 0.740112 0.499987 0.854399
C23   C     C_R   0.739552 0.503890 0.499955 0.875178
C24   C     C_R   0.131318 0.710657 0.632939 -0.299191
C25   C     C_R   0.066098 0.807617 0.697897 0.069705
C26   C     C_R   0.934537 0.807126 0.696245 -0.120883
C27   C     C_R   0.869285 0.710892 0.631211 -0.248094
C28   C     C_R   0.934351 0.611481 0.567607 0.109945
H1    H     H_    0.113937 0.346601 0.375182 0.154550
H2    H     H_    0.641529 0.888645 0.725275 0.195985
H3    H     H_    0.496432 0.112425 0.834063 0.200519
H4    H     H_    0.641036 0.113294 0.724870 0.212202
H5    H     H_    0.611305 0.663357 0.126240 0.150401
H6    H     H_    0.611715 0.663078 0.873659 0.144956
H7    H     H_    0.250086 0.435184 0.878438 0.227187
H8    H     H_    0.301985 0.267245 0.878356 0.213764
H9    H     H_    0.250027 0.434941 0.121541 0.226775
H10   H     H_    0.302038 0.267070 0.121200 0.200031
H11   H     H_    0.232907 0.714921 0.631929 0.146453
H12   H     H_    0.881929 0.881720 0.744443 0.169932
H13   H     H_    0.767876 0.716389 0.629686 0.149114
H14   H     H_    0.885995 0.346348 0.375254 0.158538
H15   H     H_    0.446671 0.113646 0.281646 0.168814
H16   H     H_    0.447183 0.886100 0.281642 0.172464
H17   H     H_    0.496764 0.888123 0.833988 0.200372
N1    N     N_R   0.499160 0.499140 0.142800 -0.106318
N2    N     N_R   0.499160 0.499180 0.857150 -0.105663
O1    O     O_R   0.500020 0.316790 0.614690 -0.612813
O2    O     O_R   0.500000 0.316760 0.385350 -0.622886
O3    O     O_R   0.316770 0.500020 0.614690 -0.622746
O4    O     O_R   0.316760 0.499980 0.385350 -0.619222
O5    O     O_R   0.500000 0.683240 0.614650 -0.635614
O6    O     O_R   0.499980 0.683210 0.385310 -0.624237
O7    O     O_R   0.683240 0.500020 0.614650 -0.614275
O8    O     O_R   0.683230 0.499980 0.385310 -0.611155
Zn1   Zn    Zn3+2 0.500010 0.500020 0.653130 0.940822
Zn2   Zn    Zn3+2 0.499990 0.499980 0.346870 0.946442
C29   C     C_2   0.136931 0.909093 0.766125 0.372755
H18   H     H_    0.238789 0.905979 0.769643 0.061552
O9    O     O_2   0.082701 0.997100 0.819504 -0.578096

loop_
_geom_bond_atom_site_label_1
_geom_bond_atom_site_label_2
_ccdc_geom_bond_type
C12   O3    A    
C5    H14   S    
C1    O1    A    
C23   O8    A    
C16   C21   S    
O4    Zn2   S    
C22   O6    A    
C1    C8    S    
C11   C13   A    
C9    C10   A    
C27   H13   S    
C11   C22   S    
C4    H1    S    
C18   N2    A    
C24   H11   S    
C7    C15   S    
C17   C18   A    
C25   C26   A    
C24   C25   A    
C21   H9    S    
C7    C8    A    
C13   C14   S    
C20   C21   S    
C15   H3    S    
C4    C5    A    
C18   H6    S    
C26   H12   S    
C26   C27   A    
C17   H5    S    
C14   H2    S    
C16   C19   A    
C6    C23   S    
C2    C3    A    
C14   H17   S    
O7    Zn1   S    
O8    Zn2   S    
N1    Zn2   S    
C2    C24   A    
C5    C6    A    
C19   N2    A    
C9    H15   S    
C10   C11   A    
C29   O9    D    
C3    C4    A    
C20   H8    S    
O3    Zn1   S    
C7    C13   A    
C12   O4    A    
O2    Zn2   S    
C17   N1    A    
O5    Zn1   S    
C23   O7    A    
C22   O5    A    
C25   C29   S    
C16   N1    A    
C27   C28   A    
O1    Zn1   S    
O6    Zn2   S    
C14   C15   S    
N2    Zn1   S    
C2    C28   A    
C3    C12   S    
C29   H18   S    
C15   H4    S    
C20   H7    S    
C10   H16   S    
C6    C28   A    
C21   H10   S    
C19   C20   S    
C8    C9    A    
C1    O2    A    
