data_mof_unit_38508.cif
_audit_creation_date              2012-12-10T17:22:03-0500
_audit_creation_method            fapswitch 2.2
_symmetry_space_group_name_H-M    P1
_symmetry_Int_Tables_number       1
_space_group_crystal_system       triclinic
_cell_length_a                    10.124854
_cell_length_b                    10.533631
_cell_length_c                    15.775107
_cell_angle_alpha                 89.083406
_cell_angle_beta                  82.388548
_cell_angle_gamma                 94.352999
_cell_volume                      1662.22643169

loop_
_atom_site_label
_atom_site_type_symbol
_atom_type_description
_atom_site_fract_x
_atom_site_fract_y
_atom_site_fract_z
_atom_type_partial_charge
C1    C     C_R   0.554919 0.734413 0.497614 0.908920
C2    C     C_2   0.491729 0.924863 0.565223 -0.111451
C3    C     C_2   0.416513 0.127885 0.522744 -0.374586
C4    C     C_R   0.502114 0.502637 0.661370 0.924575
C5    C     C_2   0.494845 0.061804 0.568819 0.370614
C6    C     C_2   0.927173 0.509970 0.507509 -0.066509
C7    C     C_2   0.072606 0.489051 0.493128 -0.069289
C8    C     C_R   0.445364 0.265316 0.509842 0.959185
C9    C     C_R   0.498441 0.500332 0.338535 0.898194
C10   C     C_3   0.432466 0.612224 0.955818 0.228366
C11   C     C_3   0.641276 0.493991 0.942711 0.132007
C12   C     C_3   0.449394 0.618563 0.051720 -0.463009
C13   C     C_3   0.632087 0.465056 0.039773 -0.323793
C14   C     C_1   0.493368 0.497196 0.250499 -0.042712
C15   C     C_3   0.495560 0.489629 0.917216 -0.184999
C16   C     C_2   0.307768 0.065690 0.478351 0.916933
C17   C     C_2   0.744745 0.538667 0.077941 0.959768
C18   C     C_2   0.265736 0.352350 0.923465 0.983460
C19   C     C_2   0.469996 0.244179 0.925316 1.096299
C20   C     C_3   0.486861 0.487027 0.084536 -0.119886
C21   C     C_3   0.379999 0.376919 0.061745 0.539500
C22   C     C_3   0.402615 0.365230 0.957552 -0.451120
C23   C     C_1   0.488898 0.492904 0.175904 0.140143
C24   C     C_1   0.502594 0.495868 0.825041 0.171022
C25   C     C_1   0.504482 0.500033 0.749765 0.032050
C26   C     C_2   0.581836 0.868991 0.511451 -0.328329
H1    H     H_    0.528176 0.693897 0.061384 0.267086
H2    H     H_    0.683520 0.593313 0.932282 0.212616
H3    H     H_    0.649324 0.364639 0.048418 0.270911
H4    H     H_    0.308771 0.143531 0.244108 0.406687
H5    H     H_    0.686951 0.065669 0.748403 0.421572
H6    H     H_    0.176614 0.914000 0.468522 0.358868
H7    H     H_    0.431297 0.856382 0.787426 0.416470
H8    H     H_    0.828672 0.563761 0.784188 0.356248
H9    H     H_    0.842962 0.707700 0.096552 0.381943
H10   H     H_    0.094865 0.242259 0.917956 0.397770
H11   H     H_    0.609722 0.119255 0.934209 0.400870
H12   H     H_    0.325173 0.603515 0.950972 0.231902
H13   H     H_    0.065069 0.483644 0.026482 0.423575
H14   H     H_    0.356978 0.649285 0.089047 0.258733
H15   H     H_    0.408081 0.870196 0.602841 0.206182
H16   H     H_    0.669038 0.922415 0.476884 0.179311
H17   H     H_    0.108574 0.420242 0.446819 0.198826
H18   H     H_    0.891088 0.578192 0.554204 0.164085
H19   H     H_    0.119923 0.615771 0.577949 0.197674
H20   H     H_    0.880184 0.384763 0.421694 0.207897
N1    N     N_2   0.842720 0.448890 0.465540 -0.162051
N2    N     N_2   0.157250 0.551040 0.534500 -0.183423
O1    O     O_R   0.431050 0.692470 0.506940 -0.591159
O2    O     O_2   0.534771 0.197979 0.128806 -0.269644
O3    O     O_3   0.313738 0.231967 0.220931 -0.475995
O4    O     O_2   0.729316 0.190307 0.587428 -0.256312
O5    O     O_2   0.532439 0.230894 0.689174 -0.289989
O6    O     O_3   0.641877 0.018475 0.705101 -0.510000
O7    O     O_2   0.267006 0.123124 0.420259 -0.597913
O8    O     O_R   0.249188 0.944162 0.503749 -0.791201
O9    O     O_2   0.425324 0.867925 0.954486 -0.207837
O10   O     O_2   0.632851 0.791092 0.884197 -0.271149
O11   O     O_3   0.422111 0.765781 0.806631 -0.544864
O12   O     O_R   0.651130 0.659650 0.484820 -0.612977
O13   O     O_2   0.842506 0.333085 0.933814 -0.216371
O14   O     O_2   0.712969 0.325931 0.813710 -0.262034
O15   O     O_3   0.879524 0.521140 0.824406 -0.473926
O16   O     O_2   0.818291 0.480823 0.117559 -0.536754
O17   O     O_R   0.764768 0.671182 0.068210 -0.770590
O18   O     O_2   0.232499 0.432487 0.875163 -0.577002
O19   O     O_R   0.180186 0.242592 0.945099 -0.670535
O20   O     O_2   0.432431 0.186488 0.864873 -0.526358
O21   O     O_R   0.576267 0.199185 0.961776 -0.694659
O22   O     O_2   0.114119 0.298686 0.111798 -0.164206
O23   O     O_R   0.389910 0.516410 0.633920 -0.588128
O24   O     O_2   0.206620 0.467223 0.194063 -0.240640
O25   O     O_3   0.144393 0.527181 0.047194 -0.568928
O26   O     O_R   0.609990 0.483590 0.611800 -0.584097
O27   O     O_R   0.348870 0.340350 0.515180 -0.583176
O28   O     O_R   0.568950 0.307530 0.493060 -0.559047
O29   O     O_R   0.390010 0.516410 0.388200 -0.591057
O30   O     O_R   0.610090 0.483590 0.366080 -0.599496
O31   O     O_2   0.327566 0.117047 0.077393 -0.201999
S1    S     S_3+6 0.393721 0.226066 0.120636 0.098824
S2    S     S_3+6 0.602735 0.131317 0.638059 0.083370
S3    S     S_3+6 0.483726 0.764230 0.900544 0.055910
S4    S     S_3+6 0.768806 0.411298 0.877868 0.065766
S5    S     S_3+6 0.208153 0.417241 0.105264 0.089862
Zn1   Zn    Zn3+2 0.353060 0.521920 0.514770 1.042067
Zn2   Zn    Zn3+2 0.646940 0.478080 0.485230 1.053141

loop_
_geom_bond_atom_site_label_1
_geom_bond_atom_site_label_2
_ccdc_geom_bond_type
O14   S4    D    
H11   O21   S    
O11   S3    S    
H4    O3    S    
C4    C25   S    
H10   O19   S    
C13   H3    S    
C10   C15   S    
O10   S3    D    
C17   O16   D    
H9    O17   S    
C2    H15   S    
C8    O28   A    
O5    S2    D    
O3    S1    S    
O23   Zn1   S    
C11   C15   S    
O27   Zn1   S    
C15   C22   S    
C21   S5    S    
C7    H17   S    
O22   S5    D    
O25   S5    S    
C4    O26   A    
O30   Zn2   S    
O29   Zn1   S    
H7    O11   S    
C6    H18   S    
C21   C22   S    
C6    N1    D    
C12   H1    S    
N1    Zn2   S    
O1    Zn1   S    
C19   C22   S    
C24   C25   T    
C3    C8    S    
O13   S4    D    
C1    O12   A    
O12   Zn2   S    
C11   S4    S    
C18   O19   S    
C10   S3    S    
C8    O27   A    
O15   S4    S    
C14   C23   T    
C12   H14   S    
C9    C14   S    
C16   O8    S    
C5    S2    S    
C20   C23   S    
C12   C20   S    
C19   O20   D    
C2    C26   D    
C9    O29   A    
O26   Zn2   S    
O24   S5    D    
C10   C12   S    
C15   C24   S    
C1    C26   S    
C19   O21   S    
C2    C5    S    
O28   Zn2   S    
C26   H16   S    
H19   N2    S    
H20   N1    S    
O6    S2    S    
C13   C20   S    
C18   C22   S    
N2    Zn1   S    
C3    C5    D    
O2    S1    D    
C6    C7    S    
C18   O18   D    
C17   O17   S    
C13   C17   S    
C10   H12   S    
C7    N2    D    
C16   O7    D    
C11   C13   S    
C11   H2    S    
C21   S1    S    
H8    O15   S    
C9    O30   A    
H13   O25   S    
H5    O6    S    
O4    S2    D    
O31   S1    D    
C20   C21   S    
O9    S3    D    
C1    O1    A    
H6    O8    S    
C4    O23   A    
C3    C16   S    
