data_mof_unit_29456.cif
_audit_creation_date              2012-12-10T18:57:04-0500
_audit_creation_method            fapswitch 2.2
_symmetry_space_group_name_H-M    P1
_symmetry_Int_Tables_number       1
_space_group_crystal_system       triclinic
_cell_length_a                    10.896115
_cell_length_b                    10.038885
_cell_length_c                    10.940174
_cell_angle_alpha                 87.285334
_cell_angle_beta                  95.774263
_cell_angle_gamma                 87.478207
_cell_volume                      1187.84854171

loop_
_atom_site_label
_atom_site_type_symbol
_atom_type_description
_atom_site_fract_x
_atom_site_fract_y
_atom_site_fract_z
_atom_type_partial_charge
C1    C     C_R   0.261940 0.503688 0.510922 0.881281
C2    C     C_R   0.740790 0.497693 0.499943 0.853795
C3    C     C_R   0.569495 0.065428 0.587996 -0.035708
C4    C     C_R   0.425555 0.083895 0.416475 -0.027387
C5    C     C_R   0.562761 0.922422 0.594367 0.012093
C6    C     C_R   0.436776 0.941840 0.403813 0.053134
C7    C     C_R   0.506128 0.500804 0.260869 0.865743
C8    C     C_R   0.506699 0.496065 0.739957 0.861765
C9    C     C_R   0.487501 0.608037 0.053464 0.069139
C10   C     C_R   0.484536 0.603775 0.927578 0.202041
C11   C     C_R   0.523880 0.498094 0.130419 -0.095883
C12   C     C_R   0.519931 0.489959 0.873270 -0.090806
C13   C     C_R   0.566194 0.381192 0.077385 -0.207005
C14   C     C_R   0.563025 0.376747 0.948793 -0.212755
C15   C     C_3   0.359567 0.669312 0.905327 -0.508612
C16   C     C_3   0.365050 0.676703 0.041355 -0.480741
C17   C     C_R   0.079222 0.404341 0.584426 -0.044589
C18   C     C_R   0.953221 0.389348 0.559059 -0.053939
C19   C     C_R   0.876607 0.498419 0.504833 -0.169564
C20   C     C_R   0.132013 0.514979 0.534475 -0.161070
C21   C     C_R   0.930451 0.621510 0.475207 -0.052351
C22   C     C_R   0.058079 0.633022 0.502116 -0.061116
H1    H     H_    0.595642 0.291950 0.134167 0.157358
H2    H     H_    0.588438 0.284329 0.909960 0.178979
H3    H     H_    0.360140 0.767691 0.856163 0.207199
H4    H     H_    0.293918 0.619947 0.084785 0.212740
H5    H     H_    0.289202 0.600755 0.868235 0.197325
H6    H     H_    0.381984 0.776567 0.067938 0.254176
N1    N     N_R   0.500000 0.857200 0.500000 -0.117789
N2    N     N_R   0.500000 0.142810 0.500000 -0.150495
O1    O     O_R   0.316770 0.614620 0.499990 -0.639217
O2    O     O_R   0.683230 0.614620 0.500010 -0.619335
O3    O     O_R   0.316800 0.385290 0.500000 -0.611108
O4    O     O_R   0.683200 0.385290 0.500000 -0.616413
O5    O     O_R   0.500000 0.614690 0.316780 -0.612493
O6    O     O_R   0.500000 0.614690 0.683220 -0.616784
O7    O     O_R   0.500020 0.385360 0.316780 -0.623128
O8    O     O_R   0.499980 0.385360 0.683220 -0.618909
Zn1   Zn    Zn3+2 0.500000 0.653120 0.500000 0.962475
Zn2   Zn    Zn3+2 0.500000 0.346880 0.500000 0.960789
C23   C     C_1   0.149838 0.323875 0.683090 0.156760
N3    N     N_1   0.205745 0.262303 0.763853 -0.235852
C24   C     C_1   0.911547 0.256472 0.577696 0.220590
N4    N     N_1   0.884972 0.147156 0.591809 -0.230972
C25   C     C_R   0.855609 0.731134 0.401817 0.136043
C26   C     C_R   0.792878 0.701674 0.289030 -0.124370
C27   C     C_R   0.714487 0.798020 0.223286 -0.119156
C28   C     C_R   0.710485 0.929105 0.260024 -0.140890
C29   C     C_R   0.768303 0.959020 0.373407 -0.126897
C30   C     C_R   0.835734 0.858930 0.447090 -0.145396
H7    H     H_    0.800157 0.602267 0.255075 0.107126
H8    H     H_    0.658841 0.769773 0.143226 0.141341
H9    H     H_    0.663572 0.008129 0.201518 0.107859
H10   H     H_    0.759879 0.059545 0.403641 0.157946
H11   H     H_    0.878793 0.883765 0.535920 0.149101
C31   C     C_R   0.108203 0.766931 0.524447 0.136859
C32   C     C_R   0.163255 0.792680 0.642066 -0.102150
C33   C     C_R   0.208165 0.918264 0.665960 -0.137475
C34   C     C_R   0.195818 0.019390 0.573403 -0.102335
C35   C     C_R   0.132402 0.998444 0.459886 -0.133797
C36   C     C_R   0.091769 0.872554 0.434788 -0.186776
H12   H     H_    0.169268 0.715785 0.714889 0.111722
H13   H     H_    0.251059 0.938701 0.756000 0.120207
H14   H     H_    0.236421 0.113540 0.588494 0.159862
H15   H     H_    0.115874 0.078782 0.390201 0.155106
H16   H     H_    0.044835 0.858505 0.345253 0.148456
C37   C     C_1   0.644397 0.132454 0.679898 0.265764
N5    N     N_1   0.705151 0.184559 0.754348 -0.221813
C38   C     C_1   0.335594 0.171368 0.341224 0.266313
N6    N     N_1   0.263985 0.240959 0.280523 -0.213757
C39   C     C_R   0.615914 0.853253 0.711551 0.188644
C40   C     C_R   0.571304 0.898049 0.819137 -0.183085
C41   C     C_R   0.647501 0.890665 0.929046 -0.143876
C42   C     C_R   0.764641 0.826091 0.936512 -0.112322
C43   C     C_R   0.804189 0.767497 0.833821 -0.174299
C44   C     C_R   0.731239 0.783293 0.721517 -0.122532
H17   H     H_    0.484532 0.956100 0.814177 0.112242
H18   H     H_    0.616353 0.941068 0.005856 0.125265
H19   H     H_    0.826329 0.823481 0.020407 0.134154
H20   H     H_    0.894857 0.717577 0.839156 0.135468
H21   H     H_    0.770741 0.749555 0.643127 0.156492
C45   C     C_R   0.381126 0.902070 0.278790 0.145381
C46   C     C_R   0.398274 0.987564 0.174418 -0.236947
C47   C     C_R   0.305374 0.011264 0.076475 -0.150597
C48   C     C_R   0.197359 0.941919 0.074661 -0.087701
C49   C     C_R   0.185702 0.844764 0.167596 -0.222053
C50   C     C_R   0.278181 0.823354 0.266944 -0.136831
H22   H     H_    0.472358 0.055035 0.177670 0.127465
H23   H     H_    0.316756 0.084727 0.003310 0.155992
H24   H     H_    0.125529 0.959111 0.999007 0.141032
H25   H     H_    0.105294 0.784868 0.162224 0.135672
H26   H     H_    0.263355 0.751556 0.336869 0.190183

loop_
_geom_bond_atom_site_label_1
_geom_bond_atom_site_label_2
_ccdc_geom_bond_type
C16   H6    S    
C23   N3    T    
C6    C45   S    
C41   C42   A    
C43   C44   A    
C1    O3    A    
C32   H12   S    
C48   C49   A    
C7    C11   S    
C34   H14   S    
O4    Zn2   S    
C21   C22   A    
C19   C21   A    
C9    C16   S    
O7    Zn2   S    
C49   H25   S    
C39   C44   A    
C15   H3    S    
C45   C50   A    
C1    O1    A    
C17   C20   A    
C31   C32   A    
C13   H1    S    
C2    O2    A    
C18   C19   A    
C8    O6    A    
O2    Zn1   S    
C14   H2    S    
C36   H16   S    
C46   C47   A    
C41   H18   S    
C43   H20   S    
C5    N1    A    
C2    O4    A    
C46   H22   S    
C34   C35   A    
C50   H26   S    
C8    O8    A    
C4    C38   S    
C21   C25   S    
C16   H4    S    
C28   H9    S    
O3    Zn2   S    
C42   C43   A    
C37   N5    T    
C47   C48   A    
C4    C6    A    
C49   C50   A    
C22   C31   S    
C33   C34   A    
C25   C26   A    
C26   H7    S    
C35   C36   A    
C3    N2    A    
O5    Zn1   S    
C24   N4    T    
C40   H17   S    
C15   H5    S    
C27   C28   A    
C8    C12   S    
N1    Zn1   S    
C17   C18   A    
C7    O7    A    
N2    Zn2   S    
C9    C11   A    
C10   C12   A    
C28   C29   A    
C20   C22   A    
C35   H15   S    
C29   C30   A    
C42   H19   S    
C47   H23   S    
C9    C10   A    
C33   H13   S    
C26   C27   A    
C1    C20   S    
C2    C19   S    
C7    O5    A    
O6    Zn1   S    
C3    C37   S    
C12   C14   A    
C40   C41   A    
C3    C5    A    
C44   H21   S    
C48   H24   S    
C27   H8    S    
C30   H11   S    
C10   C15   S    
C39   C40   A    
C5    C39   S    
C18   C24   S    
O8    Zn2   S    
C11   C13   A    
C32   C33   A    
C25   C30   A    
C15   C16   S    
O1    Zn1   S    
C38   N6    T    
C17   C23   S    
C6    N1    A    
C45   C46   A    
C31   C36   A    
C13   C14   A    
C4    N2    A    
C29   H10   S    
