data_mof_unit_13295.cif
_audit_creation_date              2012-10-26T19:04:16-0400
_audit_creation_method            fapswitch 2.2
_symmetry_space_group_name_H-M    P1
_symmetry_Int_Tables_number       1
_space_group_crystal_system       triclinic
_cell_length_a                    14.889689
_cell_length_b                    15.902331
_cell_length_c                    9.593802
_cell_angle_alpha                 89.188788
_cell_angle_beta                  91.06032
_cell_angle_gamma                 90.382184
_cell_volume                      2270.96448328

loop_
_atom_site_label
_atom_site_type_symbol
_atom_type_description
_atom_site_fract_x
_atom_site_fract_y
_atom_site_fract_z
_atom_type_partial_charge
C1    C     C_R   0.387922 0.875682 0.501177 0.585630
C2    C     C_R   0.728410 0.207933 0.381097 -0.129715
C3    C     C_R   0.213995 0.282914 0.381675 -0.158830
C4    C     C_R   0.228410 0.707933 0.381097 -0.129715
C5    C     C_R   0.685295 0.813046 0.509146 -0.055242
C6    C     C_R   0.682712 0.189644 0.504324 -0.054200
C7    C     C_R   0.185295 0.313046 0.509146 -0.055242
C8    C     C_R   0.182712 0.689644 0.504324 -0.054200
C9    C     C_R   0.665212 0.005441 0.148160 -0.093032
C10   C     C_R   0.165212 0.505441 0.148160 -0.093032
C11   C     C_R   0.745758 0.009836 0.077660 -0.175231
C12   C     C_R   0.385943 0.122915 0.498734 0.582122
C13   C     C_R   0.245758 0.509836 0.077660 -0.175230
C14   C     C_R   0.745509 0.009627 0.933916 -0.158201
C15   C     C_R   0.245509 0.509628 0.933916 -0.158201
C16   C     C_R   0.664722 0.004744 0.859866 -0.084516
C17   C     C_R   0.164722 0.504744 0.859866 -0.084516
C18   C     C_R   0.581059 0.002753 0.927277 0.080428
C19   C     C_R   0.081059 0.502753 0.927277 0.080428
C20   C     C_R   0.581115 0.003252 0.076834 0.094227
C21   C     C_R   0.081115 0.503252 0.076834 0.094227
C22   C     C_R   0.422673 0.994479 0.071553 0.363290
C23   C     C_R   0.887922 0.375682 0.501177 0.585631
C24   C     C_R   0.922673 0.494479 0.071553 0.363290
C25   C     C_R   0.615779 0.121715 0.500765 0.514938
C26   C     C_R   0.617755 0.880011 0.502713 0.510447
C27   C     C_R   0.115779 0.621715 0.500765 0.514938
C28   C     C_R   0.117755 0.380011 0.502713 0.510447
C29   C     C_R   0.422487 0.997013 0.923777 0.336293
C30   C     C_R   0.922487 0.497013 0.923777 0.336293
C31   C     C_R   0.368929 0.236119 0.740661 -0.065376
C32   C     C_R   0.336973 0.783473 0.765495 -0.063921
C33   C     C_R   0.868929 0.736119 0.740661 -0.065376
C34   C     C_R   0.885943 0.622915 0.498734 0.582122
C35   C     C_R   0.836973 0.283473 0.765495 -0.063921
C36   C     C_R   0.343100 0.264493 0.870339 -0.096588
C37   C     C_R   0.291039 0.769972 0.888862 -0.075618
C38   C     C_R   0.843100 0.764493 0.870339 -0.096588
C39   C     C_R   0.791039 0.269973 0.888862 -0.075618
C40   C     C_R   0.757182 0.795438 0.886493 -0.123850
C41   C     C_R   0.702368 0.242821 0.884213 -0.091560
C42   C     C_R   0.257182 0.295438 0.886493 -0.123850
C43   C     C_R   0.202368 0.742821 0.884213 -0.091560
C44   C     C_R   0.700146 0.805148 0.770753 -0.097986
C45   C     C_R   0.277612 0.219431 0.374762 0.245687
C46   C     C_R   0.662590 0.221554 0.756899 -0.081472
C47   C     C_R   0.200146 0.305148 0.770753 -0.097985
C48   C     C_R   0.162591 0.721553 0.756899 -0.081472
C49   C     C_R   0.729381 0.785855 0.634867 0.015347
C50   C     C_R   0.711600 0.226954 0.631526 0.011451
C51   C     C_R   0.229381 0.285855 0.634867 0.015347
C52   C     C_R   0.211601 0.726954 0.631526 0.011451
C53   C     C_R   0.308930 0.238833 0.624196 -0.004207
C54   C     C_R   0.293944 0.770947 0.634310 -0.009977
C55   C     C_R   0.808930 0.738833 0.624196 -0.004207
C56   C     C_R   0.300834 0.763106 0.380677 0.261792
C57   C     C_R   0.793944 0.270947 0.634310 -0.009977
C58   C     C_R   0.325888 0.196431 0.497749 0.005501
C59   C     C_R   0.329780 0.800426 0.506069 -0.013681
C60   C     C_R   0.825888 0.696431 0.497749 0.005501
C61   C     C_R   0.829780 0.300426 0.506069 -0.013681
C62   C     C_3   0.223237 0.156740 0.174323 -0.063106
C63   C     C_3   0.417546 0.728329 0.245406 -0.120860
C64   C     C_3   0.723237 0.656740 0.174323 -0.063105
C65   C     C_3   0.917544 0.228328 0.245404 -0.120862
C66   C     C_R   0.777612 0.719431 0.374762 0.245686
C67   C     C_R   0.800834 0.263107 0.380677 0.261791
C68   C     C_R   0.713995 0.782914 0.381675 -0.158830
Cl1   Cl    Cl    0.318296 0.997270 0.833434 -0.535376
Cl2   Cl    Cl    0.818296 0.497270 0.833434 -0.535376
Cl3   Cl    Cl    0.319870 0.979336 0.155513 -0.514493
Cl4   Cl    Cl    0.819870 0.479336 0.155513 -0.514493
Cu1   Cu    Cu3+1 0.499990 0.000000 0.640660 0.961411
Cu2   Cu    Cu3+1 0.999990 0.500000 0.640660 0.961411
Cu3   Cu    Cu3+1 0.500010 0.000000 0.359340 1.032235
Cu4   Cu    Cu3+1 0.000010 0.500000 0.359340 1.032236
H1    H     H_    0.808453 0.011489 0.879158 0.128210
H2    H     H_    0.323685 0.782891 0.987634 0.183199
H3    H     H_    0.888986 0.760391 0.959006 0.141501
H4    H     H_    0.823684 0.282891 0.987634 0.183199
H5    H     H_    0.735240 0.813984 0.988396 0.126889
H6    H     H_    0.665018 0.236211 0.979568 0.131749
H7    H     H_    0.235240 0.313984 0.988396 0.126889
H8    H     H_    0.165018 0.736210 0.979568 0.131749
H9    H     H_    0.633078 0.825187 0.792554 0.145894
H10   H     H_    0.592959 0.203021 0.759017 0.134700
H11   H     H_    0.133078 0.325187 0.792554 0.145894
H12   H     H_    0.308453 0.511490 0.879158 0.128210
H13   H     H_    0.092959 0.703021 0.759017 0.134700
H14   H     H_    0.686092 0.808626 0.285568 0.139108
H15   H     H_    0.708694 0.178917 0.283595 0.149144
H16   H     H_    0.186092 0.308627 0.285568 0.139108
H17   H     H_    0.208695 0.678917 0.283595 0.149144
H18   H     H_    0.673089 0.002821 0.258354 0.182770
H19   H     H_    0.173089 0.502821 0.258354 0.182770
H20   H     H_    0.808931 0.012053 0.135314 0.117418
H21   H     H_    0.308931 0.512053 0.135314 0.117418
H22   H     H_    0.176152 0.207234 0.141771 0.059063
H23   H     H_    0.671707 0.001015 0.750163 0.191789
H24   H     H_    0.187577 0.108051 0.237227 0.159732
H25   H     H_    0.244631 0.128189 0.075748 0.212129
H26   H     H_    0.397018 0.660949 0.241068 0.097381
H27   H     H_    0.466603 0.738400 0.332740 0.113099
H28   H     H_    0.452483 0.744139 0.147227 0.126444
H29   H     H_    0.676152 0.707234 0.141771 0.059063
H30   H     H_    0.687577 0.608051 0.237227 0.159732
H31   H     H_    0.744630 0.628189 0.075748 0.212129
H32   H     H_    0.897014 0.160949 0.241062 0.097382
H33   H     H_    0.966601 0.238395 0.332739 0.113098
H34   H     H_    0.171707 0.501015 0.750163 0.191789
H35   H     H_    0.952483 0.244138 0.147227 0.126444
H36   H     H_    0.436939 0.214173 0.732264 0.125072
H37   H     H_    0.406863 0.801498 0.775100 0.134366
H38   H     H_    0.936939 0.714173 0.732264 0.125072
H39   H     H_    0.906863 0.301498 0.775100 0.134366
H40   H     H_    0.388986 0.260391 0.959006 0.141501
N1    N     N_R   0.501200 0.000000 0.147910 -0.264549
N2    N     N_R   0.001200 0.500000 0.147910 -0.264549
N3    N     N_R   0.501270 0.000000 0.852040 -0.281189
N4    N     N_R   0.001270 0.500000 0.852040 -0.281189
O1    O     O_R   0.409820 0.909830 0.618810 -0.475836
O2    O     O_R   0.590170 0.909830 0.618760 -0.549492
O3    O     O_R   0.090170 0.590170 0.618760 -0.545724
O4    O     O_R   0.090170 0.409830 0.618760 -0.549493
O5    O     O_R   0.590190 0.090180 0.381190 -0.534107
O6    O     O_R   0.590190 0.909820 0.381190 -0.542649
O7    O     O_R   0.090190 0.590180 0.381190 -0.534108
O8    O     O_R   0.090190 0.409820 0.381190 -0.542649
O9    O     O_3   0.300471 0.187105 0.246346 -0.539727
O10   O     O_3   0.341984 0.780826 0.255694 -0.526299
O11   O     O_3   0.800471 0.687104 0.246346 -0.539727
O12   O     O_R   0.409820 0.090170 0.618810 -0.471666
O13   O     O_3   0.841984 0.280827 0.255695 -0.526298
O14   O     O_R   0.909820 0.409830 0.618810 -0.475837
O15   O     O_R   0.909820 0.590170 0.618810 -0.471666
O16   O     O_R   0.409840 0.909830 0.381240 -0.394810
O17   O     O_R   0.409840 0.090170 0.381240 -0.407370
O18   O     O_R   0.909840 0.409830 0.381240 -0.394809
O19   O     O_R   0.909840 0.590170 0.381240 -0.407370
O20   O     O_R   0.590170 0.090170 0.618760 -0.545724

loop_
_geom_bond_atom_site_label_1
_geom_bond_atom_site_label_2
_ccdc_geom_bond_type
C44   C49   A    
C33   C55   A    
C22   N1    A    
Cu2   O4    S    
C45   O9    S    
Cu1   N3    S    
C22   C29   A    
C23   O18   A    
C36   C42   A    
Cu3   N1    S    
C4    C8    A    
C17   H34   S    
C64   H29   S    
C39   C41   A    
C40   C44   A    
C29   N3    A    
C33   H38   S    
Cu2   Cu4   S    
C10   H19   S    
C67   O13   S    
C3    C7    A    
C5    C68   A    
C11   C14   A    
C14   H1    S    
C6    C25   S    
C38   H3    S    
C34   O19   A    
C26   O6    A    
C63   O10   S    
C65   O13   S    
C11   H20   S    
C25   O5    A    
C65   H35   S    
C62   H22   S    
C27   O7    A    
C68   H14   S    
C31   H36   S    
C35   H39   S    
C32   H37   S    
C1    O16   A    
C43   C48   A    
C8    C52   A    
C65   H32   S    
C62   H25   S    
C12   C58   S    
Cu2   O3    S    
Cu1   O12   S    
C60   C66   A    
C55   C60   A    
C4    C56   A    
C34   C60   S    
C43   H8    S    
Cu1   Cu3   S    
C62   O9    S    
C5    C49   A    
C2    C6    A    
C63   H26   S    
C32   C54   A    
C20   N1    A    
C30   Cl2   S    
C52   C54   A    
C29   Cl1   S    
C54   C59   A    
C10   C21   A    
C45   C58   A    
C66   C68   A    
C25   O20   A    
C63   H27   S    
C2    C67   A    
Cu3   O17   S    
C27   O3    A    
Cu3   O16   S    
C47   C51   A    
C49   C55   A    
C3    C45   A    
C31   C53   A    
C7    C28   S    
C4    H17   S    
C3    H16   S    
C51   C53   A    
C47   H11   S    
C37   C43   A    
C35   C39   A    
C21   N2    A    
C61   C67   A    
C9    C20   A    
C1    O1    A    
C64   O11   S    
C48   C52   A    
C41   C46   A    
Cu2   O15   S    
C32   C37   A    
C6    C50   A    
C64   H30   S    
C9    C11   A    
C65   H33   S    
C62   H24   S    
Cu4   N2    S    
C19   N4    A    
Cu1   O1    S    
C48   H13   S    
C13   C15   A    
Cu4   O8    S    
C14   C16   A    
C44   H9    S    
C36   H40   S    
C22   Cl3   S    
C8    C27   S    
C24   Cl4   S    
C64   H31   S    
C66   O11   S    
Cu4   O19   S    
C15   C17   A    
C12   O12   A    
C23   O14   A    
C19   C21   A    
C12   O17   A    
C50   C57   A    
C40   H5    S    
C42   H7    S    
C63   H28   S    
C9    H18   S    
C10   C13   A    
C53   C58   A    
C28   O4    A    
C16   H23   S    
C57   C61   A    
Cu1   O20   S    
Cu4   O18   S    
Cu2   N4    S    
C37   H2    S    
C46   C50   A    
C24   N2    A    
C33   C38   A    
C56   C59   A    
C35   C57   A    
Cu3   O6    S    
C39   H4    S    
C1    C59   S    
C7    C51   A    
C38   C40   A    
C30   N4    A    
C34   O15   A    
C41   H6    S    
Cu2   O14   S    
C17   C19   A    
C18   C20   A    
C42   C47   A    
C13   H21   S    
C2    H15   S    
C24   C30   A    
C5    C26   S    
C23   C61   S    
C16   C18   A    
Cu1   O2    S    
Cu4   O7    S    
C31   C36   A    
C26   O2    A    
Cu3   O5    S    
C18   N3    A    
C56   O10   S    
C28   O8    A    
C15   H12   S    
C46   H10   S    
