data_mof_unit_25394.cif
_audit_creation_date              2013-03-05T15:44:23-0500
_audit_creation_method            fapswitch 2.2
_symmetry_space_group_name_H-M    P1
_symmetry_Int_Tables_number       1
_space_group_crystal_system       triclinic
_cell_length_a                    19.428244
_cell_length_b                    11.26054
_cell_length_c                    19.266087
_cell_angle_alpha                 90.62999
_cell_angle_beta                  89.849938
_cell_angle_gamma                 89.456081
_cell_volume                      4214.43004935

loop_
_atom_site_label
_atom_site_type_symbol
_atom_site_description
_atom_site_fract_x
_atom_site_fract_y
_atom_site_fract_z
_atom_type_partial_charge
O1    O     O_R   0.784320 0.290430 0.830510 -0.521680
O2    O     O_R   0.215680 0.290430 0.169490 -0.475363
O3    O     O_R   0.284320 0.790430 0.830510 -0.521680
O4    O     O_R   0.715680 0.790430 0.169490 -0.475363
O5    O     O_R   0.762640 0.040960 0.825200 -0.537414
O6    O     O_R   0.237360 0.040960 0.174800 -0.536713
O7    O     O_R   0.262640 0.540960 0.825200 -0.537414
O8    O     O_R   0.737360 0.540960 0.174800 -0.536713
C1    C     C_R   0.725021 0.965803 0.855785 0.540880
C2    C     C_R   0.275352 0.965017 0.143550 0.543332
C3    C     C_R   0.225021 0.465803 0.855785 0.540880
C4    C     C_R   0.775352 0.465017 0.143550 0.543332
O9    O     O_R   0.667400 0.923970 0.829950 -0.557922
O10   O     O_R   0.332600 0.923970 0.170050 -0.511676
O11   O     O_R   0.167400 0.423970 0.829950 -0.557922
O12   O     O_R   0.832600 0.423970 0.170050 -0.511676
O13   O     O_R   0.553960 0.081340 0.821780 -0.548048
O14   O     O_R   0.446040 0.081340 0.178220 -0.505121
O15   O     O_R   0.053960 0.581340 0.821780 -0.548048
O16   O     O_R   0.946040 0.581340 0.178220 -0.505121
C5    C     C_R   0.533983 0.178250 0.851919 0.549402
C6    C     C_R   0.464782 0.178645 0.148006 0.560532
C7    C     C_R   0.033983 0.678250 0.851919 0.549402
C8    C     C_R   0.964782 0.678645 0.148006 0.560532
O17   O     O_R   0.543180 0.283240 0.826740 -0.509318
O18   O     O_R   0.456820 0.283240 0.173260 -0.519005
O19   O     O_R   0.043180 0.783240 0.826740 -0.509318
O20   O     O_R   0.956820 0.783240 0.173260 -0.519005
O21   O     O_R   0.678360 0.375140 0.822710 -0.503454
O22   O     O_R   0.321640 0.375140 0.177290 -0.512872
O23   O     O_R   0.178360 0.875140 0.822710 -0.503454
O24   O     O_R   0.821640 0.875140 0.177290 -0.512872
C9    C     C_R   0.736049 0.353318 0.855217 0.539121
C10   C     C_R   0.264018 0.352091 0.144114 0.561167
C11   C     C_R   0.236049 0.853318 0.855217 0.539121
C12   C     C_R   0.764018 0.852091 0.144114 0.561167
O25   O     O_R   0.785050 0.289380 0.670560 -0.527908
O26   O     O_R   0.214950 0.289380 0.329440 -0.523086
O27   O     O_R   0.285050 0.789380 0.670560 -0.527908
O28   O     O_R   0.714950 0.789380 0.329440 -0.523086
O29   O     O_R   0.763320 0.039990 0.676930 -0.514631
O30   O     O_R   0.236680 0.039990 0.323070 -0.515612
O31   O     O_R   0.263320 0.539990 0.676930 -0.514631
O32   O     O_R   0.736680 0.539990 0.323070 -0.515612
C13   C     C_R   0.723107 0.966605 0.644069 0.552465
C14   C     C_R   0.276719 0.966881 0.356145 0.548205
C15   C     C_R   0.223107 0.466605 0.644069 0.552465
C16   C     C_R   0.776719 0.466881 0.356145 0.548205
O33   O     O_R   0.668130 0.922920 0.670000 -0.524084
O34   O     O_R   0.331870 0.922920 0.330000 -0.526479
O35   O     O_R   0.168130 0.422920 0.670000 -0.524084
O36   O     O_R   0.831870 0.422920 0.330000 -0.526479
O37   O     O_R   0.554640 0.080370 0.673500 -0.518631
O38   O     O_R   0.445360 0.080370 0.326500 -0.516234
O39   O     O_R   0.054640 0.580370 0.673500 -0.518631
O40   O     O_R   0.945360 0.580370 0.326500 -0.516234
C17   C     C_R   0.533553 0.178505 0.643319 0.555231
C18   C     C_R   0.466504 0.178790 0.356491 0.556438
C19   C     C_R   0.033553 0.678504 0.643319 0.555231
C20   C     C_R   0.966503 0.678790 0.356491 0.556438
O41   O     O_R   0.543920 0.282180 0.666790 -0.502737
O42   O     O_R   0.456080 0.282180 0.333210 -0.504967
O43   O     O_R   0.043920 0.782180 0.666790 -0.502737
O44   O     O_R   0.956080 0.782180 0.333210 -0.504967
O45   O     O_R   0.679040 0.374160 0.674430 -0.500331
O46   O     O_R   0.320960 0.374160 0.325570 -0.501445
O47   O     O_R   0.179040 0.874160 0.674430 -0.500331
O48   O     O_R   0.820960 0.874160 0.325570 -0.501445
C21   C     C_R   0.736497 0.349156 0.643059 0.555076
C22   C     C_R   0.263487 0.349599 0.356708 0.554128
C23   C     C_R   0.236497 0.849156 0.643059 0.555076
C24   C     C_R   0.763487 0.849599 0.356708 0.554128
Cr1   Cr    Cr6+3 0.769270 0.163730 0.750710 1.012260
Cr2   Cr    Cr6+3 0.230730 0.163730 0.249290 1.024711
Cr3   Cr    Cr6+3 0.269270 0.663730 0.750710 1.012260
Cr4   Cr    Cr6+3 0.730730 0.663730 0.249290 1.024711
Cr5   Cr    Cr6+3 0.612620 0.009790 0.748780 0.980416
Cr6   Cr    Cr6+3 0.387380 0.009790 0.251220 1.021740
Cr7   Cr    Cr6+3 0.112620 0.509790 0.748780 0.980416
Cr8   Cr    Cr6+3 0.887380 0.509790 0.251220 1.021740
Cr9   Cr    Cr6+3 0.614160 0.322500 0.747710 1.029245
Cr10  Cr    Cr6+3 0.385840 0.322500 0.252290 1.026109
Cr11  Cr    Cr6+3 0.114160 0.822500 0.747710 1.029245
Cr12  Cr    Cr6+3 0.885840 0.822500 0.252290 1.026109
O49   O     O_3   0.665350 0.165340 0.749070 -0.275341
O50   O     O_3   0.334650 0.165340 0.250930 -0.283894
O51   O     O_3   0.165350 0.665340 0.749070 -0.275341
O52   O     O_3   0.834650 0.665340 0.250930 -0.283894
C25   C     C_2   0.511242 0.163133 0.925859 -0.108653
C26   C     C_2   0.485689 0.165843 0.075879 -0.096434
C27   C     C_2   0.011242 0.663133 0.925859 -0.108653
C28   C     C_2   0.985689 0.665843 0.075879 -0.096434
C29   C     C_2   0.490816 0.057069 0.041247 0.155939
C30   C     C_2   0.500953 0.056259 0.961568 0.120336
C31   C     C_2   0.990815 0.557069 0.041247 0.155939
C32   C     C_2   0.000953 0.556259 0.961568 0.120336
H1    H     H_    0.488995 0.250351 0.051857 0.092567
H2    H     H_    0.511315 0.250538 0.950176 0.097436
H3    H     H_    0.988995 0.750351 0.051857 0.092567
H4    H     H_    0.011315 0.750538 0.950176 0.097436
C33   C     C_R   0.695201 0.454243 0.961051 -0.115150
C34   C     C_R   0.304221 0.454147 0.039429 -0.127887
C35   C     C_R   0.195201 0.954243 0.961051 -0.115150
C36   C     C_R   0.804221 0.954147 0.039429 -0.127887
H5    H     H_    0.649998 0.481614 0.932725 0.194049
H6    H     H_    0.348898 0.481463 0.068665 0.188949
H7    H     H_    0.149998 0.981614 0.932725 0.194049
H8    H     H_    0.848898 0.981463 0.068665 0.188949
C37   C     C_R   0.698015 0.474606 0.032865 -0.010899
C38   C     C_R   0.302441 0.474716 0.967427 -0.033885
C39   C     C_R   0.198016 0.974606 0.032865 -0.010899
C40   C     C_R   0.802441 0.974716 0.967427 -0.033885
C41   C     C_R   0.757072 0.436107 0.070074 -0.029484
C42   C     C_R   0.243043 0.437061 0.928653 -0.028243
C43   C     C_R   0.257072 0.936107 0.070074 -0.029484
C44   C     C_R   0.743044 0.937061 0.928653 -0.028243
C45   C     C_R   0.808167 0.375987 0.034649 -0.143168
C46   C     C_R   0.192228 0.377931 0.962669 -0.137058
C47   C     C_R   0.308167 0.875987 0.034649 -0.143167
C48   C     C_R   0.692228 0.877931 0.962669 -0.137058
H9    H     H_    0.845249 0.333333 0.064691 0.150975
H10   H     H_    0.148257 0.341071 0.935124 0.130412
H11   H     H_    0.345249 0.833333 0.064691 0.150975
H12   H     H_    0.648257 0.841071 0.935124 0.130412
C49   C     C_R   0.808022 0.362629 0.963816 0.001286
C50   C     C_R   0.197204 0.356440 0.032334 0.033072
C51   C     C_R   0.308022 0.862629 0.963816 0.001286
C52   C     C_R   0.697204 0.856440 0.032334 0.033072
C53   C     C_R   0.748720 0.395637 0.926719 -0.030465
C54   C     C_R   0.253002 0.393917 0.072149 0.000645
C55   C     C_R   0.248720 0.895637 0.926719 -0.030465
C56   C     C_R   0.753002 0.893917 0.072149 0.000645
C57   C     C_R   0.501570 0.287502 0.536582 0.153906
C58   C     C_R   0.499954 0.287455 0.463607 0.152766
C59   C     C_R   0.001570 0.787502 0.536582 0.153906
C60   C     C_R   0.999954 0.787455 0.463607 0.152766
C61   C     C_R   0.491762 0.177443 0.428194 0.028011
C62   C     C_R   0.508893 0.177285 0.571129 0.027017
C63   C     C_R   0.991762 0.677443 0.428194 0.028011
C64   C     C_R   0.008893 0.677285 0.571129 0.027017
C65   C     C_R   0.493949 0.068331 0.463669 -0.183406
C66   C     C_R   0.505965 0.068254 0.534483 -0.186006
C67   C     C_R   0.993949 0.568331 0.463669 -0.183406
C68   C     C_R   0.005965 0.568254 0.534483 -0.186006
H13   H     H_    0.484915 0.985328 0.438276 0.141063
H14   H     H_    0.514473 0.985217 0.558983 0.138701
H15   H     H_    0.984915 0.485328 0.438276 0.141063
H16   H     H_    0.014473 0.485217 0.558983 0.138701
C69   C     C_R   0.803831 0.341744 0.533563 -0.135491
C70   C     C_R   0.196768 0.341781 0.465772 -0.134392
C71   C     C_R   0.303831 0.841744 0.533563 -0.135491
C72   C     C_R   0.696768 0.841781 0.465772 -0.134392
H17   H     H_    0.842088 0.285753 0.557445 0.128108
H18   H     H_    0.159052 0.285820 0.441260 0.130771
H19   H     H_    0.342088 0.785753 0.557445 0.128108
H20   H     H_    0.659052 0.785820 0.441260 0.130771
C73   C     C_R   0.811800 0.367602 0.464215 -0.131597
C74   C     C_R   0.188543 0.367539 0.535276 -0.132931
C75   C     C_R   0.311800 0.867602 0.464215 -0.131597
C76   C     C_R   0.688543 0.867539 0.535276 -0.132931
H21   H     H_    0.857694 0.336963 0.438662 0.135026
H22   H     H_    0.142965 0.337019 0.560391 0.134994
H23   H     H_    0.357694 0.836963 0.438662 0.135026
H24   H     H_    0.642965 0.837019 0.560391 0.134994
C77   C     C_R   0.762251 0.434346 0.428642 0.028796
C78   C     C_R   0.237481 0.434004 0.571476 0.029203
C79   C     C_R   0.262251 0.934346 0.428642 0.028796
C80   C     C_R   0.737481 0.934004 0.571476 0.029203
C81   C     C_R   0.705436 0.479146 0.465949 -0.142808
C82   C     C_R   0.293822 0.478991 0.534904 -0.143401
C83   C     C_R   0.205436 0.979146 0.465949 -0.142808
C84   C     C_R   0.793822 0.978991 0.534904 -0.143401
H25   H     H_    0.668391 0.536679 0.442020 0.110260
H26   H     H_    0.330283 0.536512 0.559551 0.112218
H27   H     H_    0.168391 0.036679 0.442020 0.110260
H28   H     H_    0.830283 0.036512 0.559551 0.112218
C85   C     C_R   0.697025 0.453278 0.536210 -0.128105
C86   C     C_R   0.302476 0.453258 0.464438 -0.129999
C87   C     C_R   0.197025 0.953278 0.536210 -0.128106
C88   C     C_R   0.802475 0.953258 0.464438 -0.129999
H29   H     H_    0.651909 0.486011 0.563611 0.129957
H30   H     H_    0.347240 0.485917 0.437454 0.129739
H31   H     H_    0.151910 0.986011 0.563610 0.129957
H32   H     H_    0.847240 0.985917 0.437454 0.129739
C89   C     C_R   0.746910 0.385701 0.570893 0.033383
C90   C     C_R   0.253180 0.385949 0.429106 0.034248
C91   C     C_R   0.246910 0.885701 0.570893 0.033383
C92   C     C_R   0.753180 0.885949 0.429106 0.034248
N1    N     N_2   0.478739 0.948719 0.080913 -0.495375
H33   H     H_    0.486913 0.932930 0.131335 0.316383
C93   C     C_3   0.474108 0.832147 0.057243 -0.263114
H34   H     H_    0.456366 0.763438 0.095272 0.150033
H35   H     H_    0.523118 0.800162 0.042263 0.221564
H36   H     H_    0.439141 0.835900 0.017203 0.232556
N2    N     N_2   0.493250 0.940337 0.929132 -0.450203
H37   H     H_    0.521608 0.872252 0.952466 0.240831
C94   C     C_3   0.512267 0.909110 0.860681 -0.092798
H38   H     H_    0.539225 0.826600 0.843639 0.081217
H39   H     H_    0.568500 0.926310 0.869514 0.190243
H40   H     H_    0.474197 0.945683 0.823156 0.200419
N3    N     N_2   0.978739 0.448719 0.080913 -0.495375
H41   H     H_    0.986913 0.432930 0.131335 0.316383
C95   C     C_3   0.974108 0.332147 0.057243 -0.263114
H42   H     H_    0.956366 0.263438 0.095272 0.150033
H43   H     H_    0.023118 0.300162 0.042263 0.221564
H44   H     H_    0.939141 0.335900 0.017203 0.232556
N4    N     N_2   0.993250 0.440337 0.929132 -0.450203
H45   H     H_    0.021608 0.372252 0.952466 0.240831
C96   C     C_3   0.012267 0.409110 0.860681 -0.092798
H46   H     H_    0.039225 0.326600 0.843639 0.081217
H47   H     H_    0.068500 0.426310 0.869514 0.190243
H48   H     H_    0.974197 0.445683 0.823156 0.200419
C97   C     C_2   0.634677 0.523996 0.065308 0.185129
H49   H     H_    0.629582 0.541800 0.119852 0.148121
O53   O     O_2   0.586932 0.560868 0.030740 -0.513714
C98   C     C_2   0.366084 0.521871 0.936950 0.194644
H50   H     H_    0.371244 0.539902 0.882291 0.153648
O54   O     O_2   0.411610 0.565128 0.972719 -0.492891
C99   C     C_2   0.134677 0.023996 0.065308 0.185129
H51   H     H_    0.129582 0.041800 0.119852 0.148121
O55   O     O_2   0.086932 0.060868 0.030740 -0.513714
C100  C     C_2   0.866084 0.021871 0.936950 0.194644
H52   H     H_    0.871244 0.039902 0.882291 0.153648
O56   O     O_2   0.911611 0.065128 0.972719 -0.492891
C101  C     C_2   0.852946 0.273628 0.934926 0.287722
H53   H     H_    0.825305 0.201308 0.916603 0.150833
O57   O     O_2   0.908188 0.291028 0.910026 -0.498541
C102  C     C_2   0.143348 0.281665 0.056701 0.137409
H54   H     H_    0.140923 0.222262 0.099563 0.348186
O58   O     O_2   0.116787 0.291114 0.111861 -0.652449
C103  C     C_2   0.352946 0.773628 0.934926 0.287722
H55   H     H_    0.325305 0.701308 0.916603 0.150833
O59   O     O_2   0.408188 0.791028 0.910026 -0.498541
C104  C     C_2   0.643348 0.781665 0.056701 0.137409
H56   H     H_    0.640923 0.722262 0.099563 0.348186
O60   O     O_2   0.616787 0.791115 0.111861 -0.652449
N5    N     N_2   0.508934 0.399714 0.571047 -0.493519
H57   H     H_    0.536281 0.462862 0.546095 0.242693
C105  C     C_3   0.460625 0.443817 0.624099 -0.249438
H58   H     H_    0.481206 0.525595 0.646918 0.123067
H59   H     H_    0.453516 0.389739 0.670376 0.177658
H60   H     H_    0.409159 0.446248 0.605090 0.123785
N6    N     N_2   0.492414 0.399690 0.430343 -0.496334
H61   H     H_    0.463249 0.462620 0.455075 0.241878
C106  C     C_3   0.539478 0.442893 0.376908 -0.248554
H62   H     H_    0.518029 0.524827 0.355768 0.123890
H63   H     H_    0.545757 0.388496 0.329858 0.179548
H64   H     H_    0.591417 0.445856 0.394672 0.124610
N7    N     N_2   0.008934 0.899714 0.571047 -0.493519
H65   H     H_    0.036281 0.962862 0.546095 0.242693
C107  C     C_3   0.960625 0.943817 0.624099 -0.249438
H66   H     H_    0.981206 0.025595 0.646918 0.123067
H67   H     H_    0.953517 0.889739 0.670376 0.177658
H68   H     H_    0.909159 0.946248 0.605090 0.123785
N8    N     N_2   0.992414 0.899690 0.430343 -0.496334
H69   H     H_    0.963249 0.962620 0.455075 0.241878
C108  C     C_3   0.039478 0.942893 0.376908 -0.248554
H70   H     H_    0.018029 0.024827 0.355768 0.123890
H71   H     H_    0.045757 0.888496 0.329858 0.179548
H72   H     H_    0.091417 0.945856 0.394672 0.124610

loop_
_geom_bond_atom_site_label_1
_geom_bond_atom_site_label_2
_geom_bond_distance
_ccdc_geom_bond_type
C18   O42   1.266924 A    
C21   C89   1.468353 S    
Cr11  O51   2.022222 S    
C95   H42   1.127141 S    
O4    C12   1.272989 A    
C69   C89   1.401013 A    
C29   C30   1.547092 S    
O39   C19   1.316762 A    
O20   Cr12  2.092382 S    
C33   C53   1.388489 A    
N3    H41   1.002286 S    
C66   H14   1.063769 S    
C60   N8    1.429759 S    
C38   C98   1.473468 S    
C31   C32   1.547092 S    
C36   H8    1.081254 S    
C68   H16   1.063769 S    
C47   H11   1.042330 S    
C58   C61   1.418157 A    
C102  O58   1.183454 D    
O1    C9    1.259050 A    
C107  H66   1.095523 S    
C5    C25   1.502314 S    
C97   H49   1.071794 S    
C76   C80   1.398577 A    
C67   H15   1.066413 S    
C95   H43   1.053293 S    
N7    H65   1.016056 S    
C104  O60   1.183454 D    
C82   C86   1.394466 A    
C76   H24   1.069371 S    
O40   C20   1.314021 A    
C105  H58   1.095523 S    
C98   O54   1.224128 D    
C37   C97   1.479722 S    
C12   C56   1.484581 S    
C47   C51   1.371317 A    
C46   H10   1.089942 S    
C35   H7    1.079431 S    
C44   C48   1.366085 A    
C72   C76   1.375582 A    
C107  H67   1.094392 S    
C87   C91   1.401935 A    
C50   C54   1.395561 A    
C33   C37   1.401246 A    
N6    H61   1.016755 S    
O21   C9    1.307912 A    
O8    Cr4   1.984793 S    
C96   H48   1.114850 S    
C85   C89   1.401935 A    
C35   C39   1.401246 A    
C108  H70   1.092072 S    
O30   C14   1.300340 A    
C73   H21   1.069834 S    
C81   C85   1.397279 A    
C25   C30   1.408407 D    
C94   H39   1.124424 S    
C3    C42   1.486156 S    
C1    O9    1.315539 A    
C24   C92   1.462060 S    
O7    C3    1.272043 A    
C69   H17   1.077470 S    
C88   C92   1.400334 A    
C101  O57   1.193233 D    
C27   C32   1.408407 D    
C3    O11   1.315539 A    
O11   Cr7   2.129451 S    
C16   C77   1.474882 S    
C4    O12   1.307575 A    
C75   C79   1.400823 A    
N6    C106  1.465303 S    
C70   H18   1.077530 S    
C7    O19   1.296578 A    
C27   H4    1.085398 S    
C94   H38   1.108381 S    
O3    Cr3   2.108730 S    
C38   C42   1.440954 A    
C26   H1    1.065152 S    
O47   C23   1.295157 A    
O2    Cr2   2.127764 S    
C72   C92   1.400567 A    
N8    C108  1.465303 S    
O2    C10   1.272989 A    
C64   C68   1.411233 A    
O24   C12   1.317119 A    
O42   Cr10  2.124581 S    
Cr5   O49   2.037508 S    
C57   C62   1.420873 A    
O18   Cr10  2.092382 S    
O28   C24   1.277474 A    
C106  H62   1.092072 S    
O31   Cr3   1.983874 S    
N3    C95   1.388681 S    
C83   C87   1.397279 A    
N1    H33   1.002286 S    
C57   N5    1.429497 S    
C59   N7    1.429497 S    
C60   C63   1.418157 A    
C49   C101  1.429865 S    
O34   Cr6   2.113699 S    
Cr7   O51   2.037508 S    
C102  H54   1.069634 S    
O6    Cr2   1.984793 S    
C87   H31   1.081644 S    
C97   O53   1.215895 D    
Cr6   O50   2.020824 S    
C77   C81   1.402421 A    
C59   C64   1.420873 A    
O24   Cr12  2.002309 S    
C95   H44   1.030200 S    
O9    Cr5   2.129451 S    
O30   Cr2   2.004183 S    
C33   H5    1.079431 S    
N7    C107  1.465318 S    
C14   C79   1.474882 S    
O22   C10   1.317119 A    
O26   C22   1.277474 A    
C84   H28   1.072628 S    
N4    H45   1.046080 S    
O48   Cr12  1.969567 S    
C72   H20   1.077530 S    
C59   C60   1.406380 A    
O36   Cr8   2.113699 S    
C98   H50   1.079237 S    
C103  O59   1.193233 D    
C62   C66   1.411233 A    
C73   C77   1.400823 A    
C99   H51   1.071794 S    
C36   C40   1.409375 A    
C15   C78   1.467489 S    
O16   Cr8   1.989964 S    
C107  H68   1.065972 S    
C79   C83   1.402421 A    
C100  O56   1.224128 D    
Cr10  O50   2.038180 S    
C83   H27   1.072240 S    
C28   C31   1.390948 D    
O13   C5    1.286670 A    
Cr4   O52   2.019563 S    
O28   Cr4   2.102765 S    
C48   H12   1.089942 S    
O48   C24   1.299676 A    
O12   Cr8   2.123006 S    
C71   C75   1.379180 A    
O22   Cr10  2.002309 S    
C94   H40   1.114850 S    
O15   C7    1.286670 A    
C93   H35   1.053293 S    
O5    C1    1.272043 A    
C37   C41   1.421272 A    
C15   O35   1.282583 A    
O46   Cr10  1.969567 S    
O39   Cr7   2.005234 S    
O25   C21   1.273584 A    
O45   Cr9   1.985738 S    
C13   O33   1.282583 A    
O3    C11   1.259050 A    
O8    C4    1.270023 A    
O43   Cr11  2.122792 S    
O13   Cr5   1.968565 S    
C96   H46   1.108381 S    
C6    C26   1.452003 S    
O23   Cr11  1.999910 S    
C63   C67   1.412852 A    
C105  H59   1.094392 S    
C86   H30   1.081571 S    
O47   Cr11  1.985738 S    
Cr2   O50   2.019563 S    
O15   Cr7   1.968565 S    
O32   Cr4   2.004183 S    
Cr1   O49   2.019226 S    
C42   C46   1.366085 A    
C41   C45   1.372252 A    
C18   C61   1.467411 S    
Cr3   O51   2.019226 S    
O14   Cr6   1.989964 S    
O21   Cr9   1.999910 S    
C78   C82   1.401992 A    
O27   Cr3   2.129363 S    
C61   C65   1.412852 A    
C106  H63   1.094338 S    
C49   C53   1.406561 A    
C6    O18   1.277266 A    
C57   C58   1.406380 A    
C8    C28   1.452003 S    
C80   C84   1.401992 A    
C7    C27   1.502314 S    
C19   O43   1.265424 A    
C34   C38   1.409375 A    
C52   C104  1.430735 S    
C104  H56   1.069634 S    
N8    H69   1.016755 S    
C11   C55   1.474772 S    
C40   C44   1.440954 A    
C74   C78   1.398577 A    
C26   C29   1.390948 D    
C45   C49   1.371317 A    
C4    C41   1.493548 S    
O26   Cr2   2.102765 S    
O25   Cr1   2.129363 S    
C9    C53   1.474772 S    
C93   H34   1.127141 S    
O45   C21   1.295157 A    
C5    O17   1.296578 A    
C52   C56   1.395561 A    
O37   C17   1.316762 A    
C29   N1    1.467190 S    
C70   C74   1.375582 A    
C101  H53   1.038825 S    
O14   C6    1.300960 A    
C1    C44   1.486156 S    
C40   C100  1.473468 S    
C50   C102  1.430735 S    
C8    O20   1.277266 A    
C23   C91   1.468353 S    
O31   C15   1.302842 A    
C32   N4    1.450197 S    
O17   Cr9   2.104953 S    
C70   C90   1.400567 A    
O7    Cr3   2.008338 S    
C30   N2    1.450197 S    
C48   C52   1.369918 A    
C17   O41   1.265424 A    
C82   H26   1.072628 S    
C45   H9    1.042330 S    
C31   N3    1.467190 S    
C46   C50   1.369918 A    
C14   O34   1.276115 A    
C43   C47   1.372252 A    
C71   H19   1.077470 S    
O40   Cr8   2.001065 S    
O29   C13   1.302842 A    
O44   Cr12  2.124581 S    
C25   H2    1.085398 S    
C20   O44   1.266924 A    
C108  H72   1.067089 S    
O1    Cr1   2.108730 S    
C51   C55   1.406561 A    
N5    C105  1.465318 S    
C93   H36   1.030200 S    
Cr8   O52   2.020824 S    
O32   C16   1.300340 A    
O41   Cr9   2.122792 S    
C65   C66   1.384754 A    
C81   H25   1.072240 S    
C84   C88   1.394466 A    
O46   C22   1.299676 A    
Cr12  O52   2.038180 S    
C35   C55   1.388489 A    
C19   C64   1.472168 S    
C85   H29   1.081645 S    
O23   C11   1.307912 A    
O19   Cr11  2.104953 S    
C65   H13   1.066413 S    
C96   H47   1.124424 S    
O38   Cr6   2.001065 S    
O33   Cr5   2.088628 S    
C17   C62   1.472168 S    
C34   H6    1.081254 S    
C105  H60   1.065972 S    
C75   H23   1.069834 S    
C99   O55   1.215895 D    
O10   Cr6   2.123006 S    
O5    Cr1   2.008338 S    
C100  H52   1.079237 S    
O16   C8    1.300960 A    
C13   C80   1.467489 S    
O35   Cr7   2.088628 S    
C58   N6    1.429759 S    
O4    Cr4   2.127764 S    
O6    C2    1.270023 A    
C74   H22   1.069371 S    
C20   C63   1.467411 S    
O29   Cr1   1.983874 S    
N2    H37   1.046080 S    
C86   C90   1.400334 A    
C88   H32   1.081571 S    
C16   O36   1.276115 A    
O38   C18   1.314021 A    
C10   C54   1.484581 S    
C51   C103  1.429865 S    
C36   C56   1.366202 A    
C106  H64   1.067089 S    
C108  H71   1.094338 S    
C103  H55   1.038825 S    
N4    C96   1.408595 S    
O27   C23   1.273584 A    
C39   C43   1.421272 A    
C39   C99   1.479722 S    
N1    C93   1.388681 S    
O37   Cr5   2.005234 S    
N5    H57   1.016056 S    
C69   C73   1.379180 A    
C71   C91   1.401013 A    
C22   C90   1.462060 S    
Cr9   O49   2.022222 S    
C2    C43   1.493548 S    
C67   C68   1.384754 A    
C28   H3    1.065152 S    
C2    O10   1.307575 A    
N2    C94   1.408595 S    
C34   C54   1.366202 A    
