data_mof_unit_62499.cif
_audit_creation_date              2012-12-10T19:27:43-0500
_audit_creation_method            fapswitch 2.2
_symmetry_space_group_name_H-M    P1
_symmetry_Int_Tables_number       1
_space_group_crystal_system       triclinic
_cell_length_a                    17.71655
_cell_length_b                    16.481967
_cell_length_c                    10.805539
_cell_angle_alpha                 89.206403
_cell_angle_beta                  91.252942
_cell_angle_gamma                 90.018152
_cell_volume                      3154.19921622

loop_
_atom_site_label
_atom_site_type_symbol
_atom_type_description
_atom_site_fract_x
_atom_site_fract_y
_atom_site_fract_z
_atom_type_partial_charge
C1    C     C_R   0.355280 0.499993 0.499981 0.835593
C2    C     C_3   0.512095 0.411576 0.933134 -0.404825
C3    C     C_R   0.846299 0.573569 0.493240 -0.124986
C4    C     C_R   0.846396 0.426536 0.503150 -0.131992
C5    C     C_R   0.767631 0.573650 0.492999 -0.104642
C6    C     C_R   0.767734 0.426439 0.502885 -0.157905
C7    C     C_R   0.727658 0.500046 0.498257 -0.048666
C8    C     C_R   0.885572 0.500057 0.498487 0.125975
C9    C     C_1   0.966184 0.500047 0.498954 -0.024031
C10   C     C_1   0.033865 0.500018 0.499357 -0.026697
C11   C     C_R   0.153642 0.573489 0.493421 -0.117376
C12   C     C_R   0.153756 0.426503 0.506374 -0.127237
C13   C     C_R   0.232310 0.573584 0.493599 -0.118809
C14   C     C_R   0.232429 0.426396 0.506486 -0.175058
C15   C     C_R   0.272365 0.499986 0.500076 -0.019921
C16   C     C_R   0.499985 0.500686 0.259557 0.942964
C17   C     C_R   0.114478 0.500000 0.499779 0.128510
C18   C     C_R   0.545284 0.833641 0.563295 -0.308195
C19   C     C_R   0.542351 0.165097 0.568004 -0.309472
C20   C     C_R   0.548807 0.748145 0.569204 0.450607
C21   C     C_R   0.546114 0.250443 0.573741 0.448163
C22   C     C_R   0.446844 0.739200 0.425782 0.031223
C23   C     C_R   0.449974 0.262318 0.419803 -0.026149
C24   C     C_R   0.441674 0.824754 0.417343 0.218146
C25   C     C_R   0.444698 0.176872 0.411392 0.200443
C26   C     C_R   0.491711 0.873371 0.487039 0.002347
C27   C     C_R   0.491561 0.126871 0.486744 0.011481
C28   C     C_1   0.489203 0.962924 0.483114 0.096277
C29   C     C_1   0.489124 0.037382 0.482948 0.092883
C30   C     C_R   0.644712 0.500028 0.498943 0.845576
C31   C     C_R   0.501141 0.499435 0.740098 0.887704
C32   C     C_3   0.573633 0.548459 0.074374 0.361115
C33   C     C_3   0.423898 0.540196 0.066953 0.338887
C34   C     C_3   0.568759 0.553857 0.930092 0.261749
C35   C     C_3   0.425828 0.537181 0.922175 0.263443
C36   C     C_3   0.504303 0.413220 0.073850 -0.436333
C37   C     C_3   0.500402 0.502614 0.121811 -0.198699
C38   C     C_3   0.502303 0.498531 0.876953 -0.248451
Cu1   Cu    Cu3+1 0.499980 0.580420 0.499990 1.047577
Cu2   Cu    Cu3+1 0.499980 0.419580 0.499990 0.987256
H1    H     H_    0.261657 0.631148 0.488361 0.166206
H2    H     H_    0.261879 0.368834 0.511719 0.162714
H3    H     H_    0.584481 0.869017 0.618888 0.191201
H4    H     H_    0.579422 0.128624 0.627297 0.192278
H5    H     H_    0.407477 0.702871 0.372760 0.196626
H6    H     H_    0.413554 0.299783 0.361215 0.177572
H7    H     H_    0.548432 0.616423 0.909974 0.165307
H8    H     H_    0.430079 0.601506 0.891297 0.148528
H9    H     H_    0.552304 0.379185 0.117493 0.238520
H10   H     H_    0.453256 0.378308 0.099721 0.225124
H11   H     H_    0.567476 0.385712 0.911773 0.226443
H12   H     H_    0.472636 0.366761 0.892758 0.205210
H13   H     H_    0.876462 0.630720 0.489308 0.153081
H14   H     H_    0.876630 0.369384 0.506995 0.150860
H15   H     H_    0.738251 0.631228 0.488426 0.193616
H16   H     H_    0.738445 0.368833 0.506381 0.194907
H17   H     H_    0.123388 0.630609 0.488238 0.151966
H18   H     H_    0.123591 0.369386 0.511357 0.149036
N1    N     N_R   0.499970 0.701220 0.499970 -0.219560
N2    N     N_R   0.499970 0.298780 0.499970 -0.211605
O1    O     O_R   0.391240 0.567930 0.499990 -0.589930
O2    O     O_R   0.391240 0.432070 0.499990 -0.602211
O3    O     O_R   0.499970 0.567910 0.317690 -0.531774
O4    O     O_R   0.499970 0.432090 0.317690 -0.589806
O5    O     O_R   0.608730 0.567880 0.500000 -0.544133
O6    O     O_R   0.608730 0.432120 0.500000 -0.561755
O7    O     O_R   0.500000 0.567910 0.682300 -0.559052
O8    O     O_R   0.500000 0.432090 0.682300 -0.579994
Br1   Br    Br    0.665184 0.493640 0.138595 -0.476251
Br2   Br    Br    0.335757 0.485089 0.137272 -0.470681
Br3   Br    Br    0.623565 0.702123 0.678872 -0.428756
Br4   Br    Br    0.618363 0.294107 0.687838 -0.578738
Br5   Br    Br    0.365667 0.872283 0.310372 -0.358577
Br6   Br    Br    0.373202 0.131378 0.296278 -0.419750
Br7   Br    Br    0.589916 0.658719 0.136911 -0.352926
Br8   Br    Br    0.404914 0.652620 0.114480 -0.400317
O9    O     O_3   0.640772 0.557049 0.872853 -0.509622
C39   C     C_3   0.671049 0.483125 0.833097 -0.109594
H19   H     H_    0.678559 0.437801 0.908430 0.188992
H20   H     H_    0.728414 0.495598 0.798408 0.186932
H21   H     H_    0.638801 0.458745 0.753943 0.150793
O10   O     O_3   0.355934 0.515528 0.862638 -0.539394
C40   C     C_3   0.342542 0.431866 0.848252 -0.174710
H22   H     H_    0.355643 0.395477 0.932651 0.183494
H23   H     H_    0.371947 0.408485 0.766884 0.148141
H24   H     H_    0.281372 0.423512 0.828395 0.193113

loop_
_geom_bond_atom_site_label_1
_geom_bond_atom_site_label_2
_ccdc_geom_bond_type
Cu2   N2    S    
C27   C29   S    
C11   C13   A    
C18   C26   A    
C4    C8    A    
C1    O2    A    
C32   Br7   S    
C13   H1    S    
O9    C39   S    
C31   O7    A    
C36   C37   S    
C19   C21   A    
C24   C26   A    
C34   O9    S    
C39   H20   S    
C24   Br5   S    
C10   C17   S    
Cu2   O2    S    
C25   Br6   S    
C11   C17   A    
C8    C9    S    
C12   C17   A    
C20   Br3   S    
C1    C15   S    
C16   O3    A    
C19   C27   A    
C9    C10   T    
C16   C37   S    
C14   H2    S    
C12   H18   S    
C7    C30   S    
Cu2   O6    S    
Cu1   O5    S    
C23   N2    A    
C35   H8    S    
C35   O10   S    
C6    C7    A    
C31   O8    A    
Cu1   O1    S    
C21   Br4   S    
C35   C38   S    
C21   N2    A    
C4    C6    A    
C3    C8    A    
C22   N1    A    
C5    C7    A    
C39   H19   S    
C33   C37   S    
C32   C34   S    
C2    C38   S    
C33   Br8   S    
C40   H22   S    
Cu1   N1    S    
C22   H5    S    
C32   C37   S    
C20   N1    A    
C30   O6    A    
C2    H12   S    
C33   Br2   S    
C40   H23   S    
C12   C14   A    
C13   C15   A    
C22   C24   A    
Cu1   Cu2   S    
C36   H10   S    
C19   H4    S    
C2    C36   S    
C28   C29   T    
C4    H14   S    
C34   C38   S    
Cu1   O7    S    
C5    H15   S    
C6    H16   S    
C3    C5    A    
C1    O1    A    
C32   Br1   S    
C25   C27   A    
Cu1   O3    S    
C26   C28   S    
Cu2   O4    S    
C31   C38   S    
C18   H3    S    
C3    H13   S    
C39   H21   S    
C33   C35   S    
C18   C20   A    
C23   C25   A    
C30   O5    A    
C2    H11   S    
C40   H24   S    
O10   C40   S    
Cu2   O8    S    
C23   H6    S    
C14   C15   A    
C34   H7    S    
C16   O4    A    
C11   H17   S    
C36   H9    S    
