data_mof_unit_66428.cif
_audit_creation_date              2013-03-05T16:05:31-0500
_audit_creation_method            fapswitch 2.2
_symmetry_space_group_name_H-M    P1
_symmetry_Int_Tables_number       1
_space_group_crystal_system       triclinic
_cell_length_a                    23.403595
_cell_length_b                    23.40268
_cell_length_c                    51.990551
_cell_angle_alpha                 89.999836
_cell_angle_beta                  89.999096
_cell_angle_gamma                 89.999761
_cell_volume                      28475.5806351

loop_
_atom_site_label
_atom_site_type_symbol
_atom_site_description
_atom_site_fract_x
_atom_site_fract_y
_atom_site_fract_z
_atom_type_partial_charge
Zn1   Zn    Zn3+2 1.000000 0.563030 0.272130 0.980374
Zn2   Zn    Zn3+2 1.000000 0.436970 0.727870 0.980328
Zn3   Zn    Zn3+2 0.436970 0.000000 0.272130 0.980496
Zn4   Zn    Zn3+2 0.563030 1.000000 0.727870 0.980289
Zn5   Zn    Zn3+2 1.000000 0.436970 0.272130 0.980372
Zn6   Zn    Zn3+2 1.000000 0.563030 0.727870 0.980325
Zn7   Zn    Zn3+2 0.563030 0.000000 0.272130 0.980538
Zn8   Zn    Zn3+2 0.436970 1.000000 0.727870 0.980287
Zn9   Zn    Zn3+2 0.500000 0.063030 0.772130 0.980392
Zn10  Zn    Zn3+2 0.500000 0.936970 0.227870 0.980301
Zn11  Zn    Zn3+2 0.936970 0.500000 0.772130 0.980413
Zn12  Zn    Zn3+2 0.063030 0.500000 0.227870 0.980343
Zn13  Zn    Zn3+2 0.500000 0.936970 0.772130 0.980389
Zn14  Zn    Zn3+2 0.500000 0.063030 0.227870 0.980290
Zn15  Zn    Zn3+2 0.063030 0.500000 0.772130 0.980435
Zn16  Zn    Zn3+2 0.936970 0.500000 0.227870 0.980341
O1    O     O_3   1.000000 0.500000 0.250000 -0.426081
O2    O     O_3   1.000000 0.500000 0.750000 -0.426118
O3    O     O_3   0.500000 0.000000 0.250000 -0.426168
O4    O     O_3   0.500000 1.000000 0.750000 -0.426049
O5    O     O_R   0.044090 0.500000 0.192350 -0.637608
O6    O     O_R   0.955910 0.500000 0.807650 -0.637572
O7    O     O_R   0.500000 0.044090 0.192350 -0.637619
O8    O     O_R   0.500000 0.955910 0.807650 -0.637608
O9    O     O_R   0.955910 0.500000 0.192350 -0.637611
O10   O     O_R   0.044090 0.500000 0.807650 -0.637512
O11   O     O_R   0.500000 0.955910 0.192350 -0.637611
O12   O     O_R   0.500000 0.044090 0.807650 -0.637606
O13   O     O_R   0.544090 1.000000 0.692350 -0.637646
O14   O     O_R   0.455910 0.000000 0.307650 -0.637507
O15   O     O_R   1.000000 0.544090 0.692350 -0.637612
O16   O     O_R   1.000000 0.455910 0.307650 -0.637609
O17   O     O_R   0.455910 1.000000 0.692350 -0.637652
O18   O     O_R   0.544090 0.000000 0.307650 -0.637394
O19   O     O_R   1.000000 0.455910 0.692350 -0.637616
O20   O     O_R   1.000000 0.544090 0.307650 -0.637607
O21   O     O_R   0.893990 0.562090 0.235170 -0.626499
O22   O     O_R   0.106010 0.437910 0.764830 -0.623154
O23   O     O_R   0.437910 0.893990 0.235170 -0.623220
O24   O     O_R   0.562090 0.106010 0.764830 -0.626483
O25   O     O_R   0.106010 0.437910 0.235170 -0.626502
O26   O     O_R   0.893990 0.562090 0.764830 -0.623165
O27   O     O_R   0.562090 0.106010 0.235170 -0.623226
O28   O     O_R   0.437910 0.893990 0.764830 -0.626486
O29   O     O_R   0.893990 0.437910 0.764830 -0.626477
O30   O     O_R   0.106010 0.562090 0.235170 -0.623201
O31   O     O_R   0.437910 0.106010 0.764830 -0.623185
O32   O     O_R   0.562090 0.893990 0.235170 -0.626534
O33   O     O_R   0.106010 0.562090 0.764830 -0.626478
O34   O     O_R   0.893990 0.437910 0.235170 -0.623200
O35   O     O_R   0.562090 0.893990 0.764830 -0.623184
O36   O     O_R   0.437910 0.106010 0.235170 -0.626529
O37   O     O_R   0.393990 0.062090 0.735170 -0.626507
O38   O     O_R   0.606010 0.937910 0.264830 -0.623107
O39   O     O_R   0.937910 0.393990 0.735170 -0.623212
O40   O     O_R   0.062090 0.606010 0.264830 -0.626493
O41   O     O_R   0.606010 0.937910 0.735170 -0.626511
O42   O     O_R   0.393990 0.062090 0.264830 -0.623127
O43   O     O_R   0.062090 0.606010 0.735170 -0.623214
O44   O     O_R   0.937910 0.393990 0.264830 -0.626495
O45   O     O_R   0.393990 0.937910 0.264830 -0.626461
O46   O     O_R   0.606010 0.062090 0.735170 -0.623229
O47   O     O_R   0.937910 0.606010 0.264830 -0.623189
O48   O     O_R   0.062090 0.393990 0.735170 -0.626516
O49   O     O_R   0.606010 0.062090 0.264830 -0.626462
O50   O     O_R   0.393990 0.937910 0.735170 -0.623228
O51   O     O_R   0.062090 0.393990 0.264830 -0.623188
O52   O     O_R   0.937910 0.606010 0.735170 -0.626514
C1    C     C_R   0.000000 0.499999 0.179171 0.861365
C2    C     C_R   0.999998 0.500002 0.820825 0.861436
C3    C     C_R   0.500000 0.000000 0.179171 0.861418
C4    C     C_R   0.500000 1.000000 0.820828 0.861420
C5    C     C_R   0.500001 0.999999 0.679167 0.861280
C6    C     C_R   0.499997 0.000003 0.320819 0.861494
C7    C     C_R   1.000000 0.500000 0.679171 0.861421
C8    C     C_R   1.000000 0.500000 0.320828 0.861417
C9    C     C_R   0.895293 0.604717 0.249996 0.816810
C10   C     C_R   0.104716 0.395293 0.749995 0.816798
C11   C     C_R   0.395293 0.895283 0.250004 0.816796
C12   C     C_R   0.604717 0.104707 0.750004 0.816822
C13   C     C_R   0.104707 0.395283 0.249996 0.816815
C14   C     C_R   0.895283 0.604707 0.749995 0.816802
C15   C     C_R   0.604706 0.104717 0.250004 0.816774
C16   C     C_R   0.395284 0.895292 0.750005 0.816816
C17   C     C_R   0.895293 0.395283 0.750004 0.816807
C18   C     C_R   0.104717 0.604707 0.250005 0.816813
C19   C     C_R   0.395293 0.104717 0.749996 0.816818
C20   C     C_R   0.604716 0.895293 0.249995 0.816782
C21   C     C_R   0.104706 0.604717 0.750004 0.816793
C22   C     C_R   0.895284 0.395292 0.250005 0.816807
C23   C     C_R   0.604707 0.895283 0.749996 0.816823
C24   C     C_R   0.395283 0.104707 0.249995 0.816788
C25   C     C_1   0.149706 0.649688 0.250013 -0.171303
C26   C     C_1   0.850313 0.350293 0.750012 -0.171291
C27   C     C_1   0.350294 0.149689 0.249987 -0.171239
C28   C     C_1   0.649687 0.850293 0.749988 -0.171305
C29   C     C_1   0.850294 0.350311 0.250013 -0.171301
C30   C     C_1   0.149687 0.649708 0.750012 -0.171286
C31   C     C_1   0.649705 0.850311 0.249987 -0.171231
C32   C     C_1   0.350313 0.149707 0.749989 -0.171301
C33   C     C_1   0.149705 0.350311 0.749987 -0.171268
C34   C     C_1   0.850313 0.649707 0.249989 -0.171286
C35   C     C_1   0.350294 0.850311 0.750013 -0.171327
C36   C     C_1   0.649686 0.149708 0.250012 -0.171265
C37   C     C_1   0.850294 0.649689 0.749987 -0.171274
C38   C     C_1   0.149687 0.350293 0.249988 -0.171291
C39   C     C_1   0.649706 0.149688 0.750013 -0.171329
C40   C     C_1   0.350313 0.850293 0.250012 -0.171271
C41   C     C_1   0.187098 0.687076 0.250019 -0.002949
C42   C     C_1   0.812924 0.312901 0.750018 -0.002952
C43   C     C_1   0.312902 0.187077 0.249981 -0.002918
C44   C     C_1   0.687076 0.812901 0.749982 -0.002937
C45   C     C_1   0.812902 0.312923 0.250019 -0.002950
C46   C     C_1   0.187075 0.687099 0.750018 -0.002953
C47   C     C_1   0.687097 0.812923 0.249981 -0.002915
C48   C     C_1   0.312924 0.187099 0.749982 -0.002936
C49   C     C_1   0.187097 0.312923 0.749981 -0.002932
C50   C     C_1   0.812924 0.687099 0.249982 -0.002933
C51   C     C_1   0.312902 0.812923 0.750019 -0.002963
C52   C     C_1   0.687075 0.187099 0.250018 -0.002951
C53   C     C_1   0.812902 0.687077 0.749981 -0.002934
C54   C     C_1   0.187076 0.312901 0.249982 -0.002934
C55   C     C_1   0.687098 0.187077 0.750019 -0.002961
C56   C     C_1   0.312924 0.812901 0.250018 -0.002949
C57   C     C_1   0.231317 0.731294 0.250023 0.008784
C58   C     C_1   0.768706 0.268683 0.750022 0.008777
C59   C     C_1   0.268683 0.231294 0.249978 0.008811
C60   C     C_1   0.731294 0.768683 0.749978 0.008800
C61   C     C_1   0.768683 0.268706 0.250023 0.008783
C62   C     C_1   0.231293 0.731317 0.750022 0.008776
C63   C     C_1   0.731317 0.768706 0.249978 0.008813
C64   C     C_1   0.268706 0.231317 0.749978 0.008801
C65   C     C_1   0.231317 0.268706 0.749978 0.008801
C66   C     C_1   0.768706 0.731317 0.249978 0.008808
C67   C     C_1   0.268683 0.768706 0.750023 0.008774
C68   C     C_1   0.731293 0.231318 0.250022 0.008781
C69   C     C_1   0.768683 0.731294 0.749978 0.008800
C70   C     C_1   0.231294 0.268683 0.249978 0.008807
C71   C     C_1   0.731317 0.231294 0.750022 0.008775
C72   C     C_1   0.268707 0.768683 0.250022 0.008782
C73   C     C_R   0.449475 0.994899 0.054597 0.526382
C74   C     C_R   0.550515 0.994765 0.945398 0.526384
C75   C     C_R   0.995072 0.449462 0.054588 0.526405
C76   C     C_R   0.994607 0.550512 0.945394 0.526425
C77   C     C_R   0.550533 0.005095 0.054596 0.526385
C78   C     C_R   0.449484 0.005230 0.945400 0.526381
C79   C     C_R   0.004992 0.550550 0.054591 0.526400
C80   C     C_R   0.005476 0.449523 0.945391 0.526378
C81   C     C_R   0.949466 0.494880 0.554598 0.526388
C82   C     C_R   0.050512 0.494794 0.445400 0.526389
C83   C     C_R   0.495565 0.949431 0.554568 0.526402
C84   C     C_R   0.494120 0.050481 0.445377 0.526444
C85   C     C_R   0.050519 0.505125 0.554597 0.526391
C86   C     C_R   0.949477 0.505215 0.445400 0.526387
C87   C     C_R   0.504531 0.050606 0.554574 0.526400
C88   C     C_R   0.506008 0.949608 0.445371 0.526374
N1    N     N_R   0.500005 0.999998 0.067518 -0.337143
N2    N     N_R   0.499999 0.999998 0.932477 -0.337144
N3    N     N_R   0.000027 0.500004 0.067513 -0.337118
N4    N     N_R   0.000036 0.500019 0.932469 -0.337113
N5    N     N_R   0.999993 0.500001 0.567519 -0.337140
N6    N     N_R   0.999995 0.500004 0.432478 -0.337147
N7    N     N_R   0.500041 0.000015 0.567496 -0.337104
N8    N     N_R   0.500055 0.000047 0.432450 -0.337098
C89   C     C_R   0.552438 0.000233 0.027371 -0.068010
C90   C     C_R   0.447566 0.000374 0.972624 -0.068012
C91   C     C_R   0.000116 0.552446 0.027367 -0.067995
C92   C     C_R   0.000615 0.447580 0.972615 -0.067999
C93   C     C_R   0.447568 0.999761 0.027373 -0.068010
C94   C     C_R   0.552435 0.999620 0.972622 -0.068011
C95   C     C_R   0.999964 0.447572 0.027364 -0.067992
C96   C     C_R   0.999478 0.552448 0.972617 -0.067991
C97   C     C_R   0.052428 0.500264 0.527373 -0.068009
C98   C     C_R   0.947559 0.500360 0.472624 -0.068012
C99   C     C_R   0.499633 0.052460 0.527350 -0.067980
C100  C     C_R   0.501162 0.947613 0.472596 -0.067996
C101  C     C_R   0.947558 0.499746 0.527374 -0.068009
C102  C     C_R   0.052429 0.499652 0.472624 -0.068010
C103  C     C_R   0.500490 0.947592 0.527345 -0.067975
C104  C     C_R   0.498981 0.052462 0.472601 -0.067986
C105  C     C_R   0.500003 0.999997 0.013665 -0.096521
C106  C     C_R   0.500001 0.999997 0.986330 -0.096521
C107  C     C_R   0.000042 0.500010 0.013658 -0.096522
C108  C     C_R   0.000046 0.500013 0.986324 -0.096517
C109  C     C_R   0.999993 0.500005 0.513666 -0.096520
C110  C     C_R   0.999994 0.500006 0.486331 -0.096521
C111  C     C_R   0.500065 0.000029 0.513640 -0.096522
C112  C     C_R   0.500070 0.000034 0.486305 -0.096516
C113  C     C_R   0.604808 0.996956 0.013549 0.183850
C114  C     C_R   0.395188 0.997239 0.986446 0.183847
C115  C     C_R   0.996669 0.604809 0.013547 0.183858
C116  C     C_R   0.997654 0.395187 0.986435 0.183853
C117  C     C_R   0.395197 0.003039 0.013553 0.183848
C118  C     C_R   0.604815 0.002757 0.986443 0.183846
C119  C     C_R   0.003424 0.395213 0.013543 0.183882
C120  C     C_R   0.002445 0.604838 0.986439 0.183879
C121  C     C_R   0.104800 0.497011 0.513552 0.183847
C122  C     C_R   0.895181 0.497205 0.486446 0.183841
C123  C     C_R   0.495673 0.104789 0.513532 0.183879
C124  C     C_R   0.498717 0.895191 0.486414 0.183839
C125  C     C_R   0.895187 0.503004 0.513553 0.183857
C126  C     C_R   0.104806 0.502811 0.486445 0.183852
C127  C     C_R   0.504469 0.895270 0.513523 0.183915
C128  C     C_R   0.501435 0.104878 0.486423 0.183881
O53   O     O_2   0.401701 0.983893 0.068212 -0.560140
O54   O     O_2   0.598260 0.983632 0.931783 -0.560134
O55   O     O_2   0.984177 0.401653 0.068197 -0.560153
O56   O     O_2   0.983264 0.598217 0.931785 -0.560147
O57   O     O_2   0.598309 0.016102 0.068209 -0.560141
O58   O     O_2   0.401739 0.016363 0.931786 -0.560133
O59   O     O_2   0.015877 0.598355 0.068204 -0.560158
O60   O     O_2   0.016813 0.401822 0.931778 -0.560131
O61   O     O_2   0.901696 0.483848 0.568211 -0.560140
O62   O     O_2   0.098263 0.483682 0.431786 -0.560135
O63   O     O_2   0.485109 0.901519 0.568174 -0.560168
O64   O     O_2   0.482288 0.098071 0.431771 -0.560138
O65   O     O_2   0.098288 0.516155 0.568211 -0.560145
O66   O     O_2   0.901727 0.516325 0.431786 -0.560137
O67   O     O_2   0.514974 0.098511 0.568187 -0.560177
O68   O     O_2   0.517832 0.902025 0.431758 -0.560113
C129  C     C_R   0.978177 0.452457 0.390932 0.193414
C130  C     C_R   0.021753 0.452428 0.609066 0.193431
C131  C     C_R   0.452855 0.977408 0.390907 0.193433
C132  C     C_R   0.452249 0.021308 0.609045 0.193466
C133  C     C_R   0.021816 0.547547 0.390931 0.193414
C134  C     C_R   0.978233 0.547571 0.609067 0.193427
C135  C     C_R   0.547168 0.022709 0.390889 0.193373
C136  C     C_R   0.547792 0.978699 0.609050 0.193457
C137  C     C_R   0.478156 0.952465 0.890931 0.193418
C138  C     C_R   0.521733 0.952414 0.109065 0.193424
C139  C     C_R   0.952615 0.477885 0.890924 0.193440
C140  C     C_R   0.952413 0.521688 0.109061 0.193443
C141  C     C_R   0.521842 0.047533 0.890931 0.193417
C142  C     C_R   0.478279 0.047587 0.109064 0.193429
C143  C     C_R   0.047405 0.522168 0.890913 0.193410
C144  C     C_R   0.047614 0.478309 0.109065 0.193437
C145  C     C_R   0.974419 0.454116 0.363662 0.100192
C146  C     C_R   0.025525 0.454087 0.636335 0.100189
C147  C     C_R   0.454563 0.973687 0.363636 0.100305
C148  C     C_R   0.453881 0.025131 0.636314 0.100135
C149  C     C_R   0.025579 0.545884 0.363662 0.100196
C150  C     C_R   0.974466 0.545911 0.636337 0.100184
C151  C     C_R   0.545411 0.026434 0.363621 0.100342
C152  C     C_R   0.546136 0.974862 0.636319 0.100151
C153  C     C_R   0.474398 0.954127 0.863661 0.100195
C154  C     C_R   0.525503 0.954071 0.136335 0.100182
C155  C     C_R   0.954294 0.474134 0.863654 0.100234
C156  C     C_R   0.954068 0.525474 0.136331 0.100184
C157  C     C_R   0.525602 0.045870 0.863661 0.100198
C158  C     C_R   0.474508 0.045932 0.136334 0.100181
C159  C     C_R   0.045695 0.525929 0.863645 0.100266
C160  C     C_R   0.045943 0.474516 0.136334 0.100196
C161  C     C_R   0.999999 0.500000 0.349780 -0.144706
C162  C     C_R   0.999997 0.499999 0.650219 -0.144765
C163  C     C_R   0.499991 0.000038 0.349757 -0.143843
C164  C     C_R   0.500005 0.999996 0.650207 -0.145149
C165  C     C_R   0.500000 0.999999 0.849779 -0.144685
C166  C     C_R   0.500003 0.000001 0.150218 -0.144797
C167  C     C_R   0.999995 0.500020 0.849771 -0.144364
C168  C     C_R   0.000003 0.499996 0.150217 -0.144807
C169  C     C_R   0.999996 0.500002 0.404540 0.233164
C170  C     C_R   0.999992 0.500000 0.595458 0.233138
C171  C     C_R   0.500028 0.000051 0.404510 0.232894
C172  C     C_R   0.500027 0.000008 0.595436 0.233014
C173  C     C_R   0.499999 0.999999 0.904539 0.233157
C174  C     C_R   0.500005 1.000000 0.095456 0.233156
C175  C     C_R   0.000020 0.500021 0.904529 0.232987
C176  C     C_R   0.000018 0.500001 0.095453 0.233045
C177  C     C_3   0.660205 0.981471 0.027096 -0.793855
H1    H     H_    0.691744 0.961855 0.013833 0.219756
H2    H     H_    0.679555 0.020057 0.035949 0.267639
H3    H     H_    0.652449 0.948140 0.041893 0.255144
C178  C     C_3   0.339749 0.981905 0.972900 -0.793853
H4    H     H_    0.308156 0.962375 0.986163 0.219755
H5    H     H_    0.320503 0.020542 0.964046 0.267638
H6    H     H_    0.347414 0.948551 0.958103 0.255148
C179  C     C_3   0.981024 0.660157 0.027098 -0.793895
H7    H     H_    0.961300 0.691640 0.013840 0.219767
H8    H     H_    0.947730 0.652294 0.041901 0.255117
H9    H     H_    0.019555 0.679625 0.035946 0.267644
C180  C     C_3   0.982530 0.339695 0.972883 -0.793888
H10   H     H_    0.963100 0.308029 0.986140 0.219767
H11   H     H_    0.949167 0.347247 0.958080 0.255117
H12   H     H_    0.021243 0.320589 0.964035 0.267650
C181  C     C_3   0.339801 0.018525 0.027101 -0.793855
H13   H     H_    0.308261 0.038141 0.013839 0.219756
H14   H     H_    0.320452 0.979940 0.035955 0.267640
H15   H     H_    0.347560 0.051857 0.041897 0.255144
C182  C     C_3   0.660252 0.018092 0.972895 -0.793852
H16   H     H_    0.691847 0.037621 0.986157 0.219756
H17   H     H_    0.679497 0.979455 0.964040 0.267641
H18   H     H_    0.652585 0.051446 0.958099 0.255145
C183  C     C_3   0.019078 0.339866 0.027094 -0.793917
H19   H     H_    0.038824 0.308395 0.013836 0.219770
H20   H     H_    0.052358 0.347735 0.041901 0.255110
H21   H     H_    0.980547 0.320381 0.035935 0.267640
C184  C     C_3   0.017582 0.660328 0.972888 -0.793917
H22   H     H_    0.037031 0.691982 0.986147 0.219770
H23   H     H_    0.050936 0.652770 0.958081 0.255104
H24   H     H_    0.978872 0.679452 0.964046 0.267645
C185  C     C_3   0.160203 0.481550 0.527099 -0.793849
H25   H     H_    0.152460 0.448215 0.541896 0.255141
H26   H     H_    0.191752 0.461948 0.513836 0.219756
H27   H     H_    0.179536 0.520144 0.535953 0.267641
C186  C     C_3   0.839748 0.481852 0.472899 -0.793852
H28   H     H_    0.847425 0.448498 0.458104 0.255149
H29   H     H_    0.808159 0.462316 0.486163 0.219756
H30   H     H_    0.820492 0.520482 0.464044 0.267640
C187  C     C_3   0.479498 0.159981 0.527087 -0.793939
H31   H     H_    0.459460 0.191271 0.513832 0.219775
H32   H     H_    0.446290 0.151792 0.541893 0.255097
H33   H     H_    0.517842 0.179821 0.535931 0.267643
C188  C     C_3   0.484156 0.839552 0.472858 -0.793880
H34   H     H_    0.465036 0.807690 0.486113 0.219768
H35   H     H_    0.450727 0.846772 0.458052 0.255114
H36   H     H_    0.523063 0.820836 0.464014 0.267656
C189  C     C_3   0.839786 0.518471 0.527101 -0.793860
H37   H     H_    0.808242 0.538082 0.513839 0.219756
H38   H     H_    0.820446 0.479878 0.535953 0.267638
H39   H     H_    0.847533 0.551801 0.541899 0.255138
C190  C     C_3   0.160237 0.518171 0.472898 -0.793856
H40   H     H_    0.191821 0.537716 0.486161 0.219757
H41   H     H_    0.179500 0.479543 0.464044 0.267638
H42   H     H_    0.152555 0.551521 0.458101 0.255145
C191  C     C_3   0.520658 0.840078 0.527075 -0.793970
H43   H     H_    0.540730 0.808809 0.513820 0.219777
H44   H     H_    0.553842 0.848274 0.541890 0.255090
H45   H     H_    0.482313 0.820211 0.535908 0.267635
C192  C     C_3   0.516017 0.160517 0.472872 -0.793925
H46   H     H_    0.535164 0.192357 0.486129 0.219775
H47   H     H_    0.549433 0.153289 0.458060 0.255092
H48   H     H_    0.477115 0.179260 0.464037 0.267649
C193  C     C_3   0.959782 0.399492 0.405558 -0.843281
H49   H     H_    0.978061 0.360781 0.396343 0.239899
H50   H     H_    0.975111 0.398870 0.425722 0.232527
H51   H     H_    0.912444 0.396561 0.405832 0.246816
C194  C     C_3   0.040072 0.399436 0.594441 -0.843324
H52   H     H_    0.021758 0.360749 0.603662 0.239876
H53   H     H_    0.024719 0.398825 0.574280 0.232526
H54   H     H_    0.087406 0.396450 0.594156 0.246853
C195  C     C_3   0.400223 0.958092 0.405531 -0.843176
H55   H     H_    0.398140 0.910707 0.405818 0.246931
H56   H     H_    0.399322 0.973448 0.425689 0.232481
H57   H     H_    0.361196 0.975657 0.396307 0.239875
C196  C     C_3   0.399071 0.039071 0.594419 -0.843403
H58   H     H_    0.395647 0.086376 0.594091 0.246979
H59   H     H_    0.398578 0.023609 0.574275 0.232525
H60   H     H_    0.360569 0.020442 0.603668 0.239827
C197  C     C_3   0.040210 0.600513 0.405556 -0.843292
H61   H     H_    0.024874 0.601138 0.425719 0.232528
H62   H     H_    0.087548 0.603440 0.405833 0.246818
H63   H     H_    0.021937 0.639223 0.396339 0.239902
C198  C     C_3   0.959911 0.600564 0.594443 -0.843328
H64   H     H_    0.975264 0.601176 0.574282 0.232525
H65   H     H_    0.912577 0.603547 0.594159 0.246851
H66   H     H_    0.978224 0.639250 0.603664 0.239879
C199  C     C_3   0.599818 0.042047 0.405494 -0.843228
H67   H     H_    0.601815 0.089433 0.405826 0.246989
H68   H     H_    0.600812 0.026579 0.425634 0.232517
H69   H     H_    0.638847 0.024604 0.396224 0.239912
C200  C     C_3   0.600983 0.960943 0.594432 -0.843424
H70   H     H_    0.604399 0.913638 0.594094 0.246983
H71   H     H_    0.601501 0.976429 0.574291 0.232525
H72   H     H_    0.639480 0.979553 0.603693 0.239834
C201  C     C_3   0.459734 0.899507 0.905556 -0.843294
H73   H     H_    0.475066 0.898876 0.925719 0.232526
H74   H     H_    0.412395 0.896603 0.905831 0.246822
H75   H     H_    0.477990 0.860788 0.896340 0.239896
C202  C     C_3   0.540021 0.899410 0.094441 -0.843325
H76   H     H_    0.524671 0.898810 0.074280 0.232528
H77   H     H_    0.587353 0.896394 0.094158 0.246841
H78   H     H_    0.521680 0.860736 0.103661 0.239885
C203  C     C_3   0.899773 0.459147 0.905548 -0.843236
H79   H     H_    0.897171 0.411788 0.905838 0.246909
H80   H     H_    0.899036 0.474513 0.925706 0.232494
H81   H     H_    0.860942 0.477140 0.896323 0.239863
C204  C     C_3   0.899389 0.539911 0.094436 -0.843334
H82   H     H_    0.896345 0.587242 0.094132 0.246923
H83   H     H_    0.898785 0.524506 0.074284 0.232520
H84   H     H_    0.860733 0.521570 0.103671 0.239854
C205  C     C_3   0.540264 0.100489 0.905555 -0.843298
H85   H     H_    0.524929 0.101121 0.925719 0.232526
H86   H     H_    0.587603 0.103392 0.905832 0.246825
H87   H     H_    0.522011 0.139209 0.896339 0.239897
C206  C     C_3   0.459996 0.100591 0.094439 -0.843325
H88   H     H_    0.475338 0.101185 0.074276 0.232527
H89   H     H_    0.412664 0.103615 0.094159 0.246836
H90   H     H_    0.478346 0.139264 0.103656 0.239883
C207  C     C_3   0.100258 0.540916 0.905527 -0.843293
H91   H     H_    0.102806 0.588276 0.905846 0.246951
H92   H     H_    0.101052 0.525475 0.925673 0.232522
H93   H     H_    0.139092 0.523001 0.896272 0.239883
C208  C     C_3   0.100646 0.460089 0.094445 -0.843350
H94   H     H_    0.103682 0.412757 0.094133 0.246927
H95   H     H_    0.101268 0.475511 0.074295 0.232522
H96   H     H_    0.139299 0.478415 0.103688 0.239859
C209  C     C_3   0.942494 0.407443 0.349305 -0.816682
H97   H     H_    0.913115 0.426735 0.334955 0.229996
H98   H     H_    0.973373 0.378745 0.339524 0.255736
H99   H     H_    0.914986 0.380815 0.361791 0.234642
C210  C     C_3   0.057412 0.407384 0.650690 -0.816648
H100  H     H_    0.086826 0.426650 0.665033 0.230037
H101  H     H_    0.026513 0.378723 0.660478 0.255723
H102  H     H_    0.084881 0.380722 0.638201 0.234641
C211  C     C_3   0.408448 0.940998 0.349265 -0.817629
H103  H     H_    0.428229 0.912068 0.334864 0.229411
H104  H     H_    0.382378 0.912932 0.361740 0.234931
H105  H     H_    0.379177 0.971405 0.339531 0.255789
C212  C     C_3   0.406912 0.056660 0.650653 -0.816203
H106  H     H_    0.425929 0.086281 0.664977 0.230341
H107  H     H_    0.380023 0.083873 0.638150 0.234547
H108  H     H_    0.378508 0.025545 0.660456 0.255650
C213  C     C_3   0.057508 0.592554 0.349304 -0.816687
H109  H     H_    0.085018 0.619180 0.361790 0.234646
H110  H     H_    0.086888 0.573259 0.334954 0.229994
H111  H     H_    0.026634 0.621254 0.339522 0.255738
C214  C     C_3   0.942580 0.592614 0.650693 -0.816640
H112  H     H_    0.915100 0.619267 0.638206 0.234639
H113  H     H_    0.913177 0.573349 0.665041 0.230040
H114  H     H_    0.973482 0.621283 0.660475 0.255717
C215  C     C_3   0.591455 0.059199 0.349241 -0.817600
H115  H     H_    0.571631 0.087973 0.334789 0.229373
H116  H     H_    0.617345 0.087458 0.361708 0.234955
H117  H     H_    0.620876 0.028840 0.339565 0.255709
C216  C     C_3   0.593088 0.943315 0.650661 -0.816198
H118  H     H_    0.574056 0.913708 0.664987 0.230329
H119  H     H_    0.619962 0.916083 0.638159 0.234549
H120  H     H_    0.621506 0.974420 0.660462 0.255649
C217  C     C_3   0.442449 0.907471 0.849303 -0.816710
H121  H     H_    0.413084 0.926779 0.834951 0.229980
H122  H     H_    0.473313 0.878756 0.839523 0.255734
H123  H     H_    0.414923 0.880861 0.861788 0.234652
C218  C     C_3   0.557357 0.907346 0.150690 -0.816597
H124  H     H_    0.586778 0.926591 0.165035 0.230062
H125  H     H_    0.526436 0.878700 0.160475 0.255717
H126  H     H_    0.584815 0.880671 0.138202 0.234624
C219  C     C_3   0.907845 0.441897 0.849292 -0.817070
H127  H     H_    0.927334 0.412690 0.834924 0.229766
H128  H     H_    0.881439 0.414168 0.861776 0.234770
H129  H     H_    0.878918 0.472585 0.839528 0.255753
C220  C     C_3   0.907335 0.557324 0.150682 -0.816586
H130  H     H_    0.926569 0.586757 0.165025 0.230075
H131  H     H_    0.880660 0.584773 0.138189 0.234640
H132  H     H_    0.878694 0.526401 0.160468 0.255703
C221  C     C_3   0.557554 0.092524 0.849303 -0.816716
H133  H     H_    0.586919 0.073215 0.834951 0.229979
H134  H     H_    0.526692 0.121242 0.839523 0.255735
H135  H     H_    0.585081 0.119133 0.861788 0.234654
C222  C     C_3   0.442660 0.092663 0.150689 -0.816604
H136  H     H_    0.413227 0.073422 0.165031 0.230067
H137  H     H_    0.473584 0.121297 0.160478 0.255723
H138  H     H_    0.415218 0.119351 0.138201 0.234624
C223  C     C_3   0.092099 0.558218 0.849278 -0.817062
H139  H     H_    0.072578 0.587349 0.834888 0.229734
H140  H     H_    0.118415 0.586044 0.861759 0.234786
H141  H     H_    0.121104 0.527562 0.839539 0.255720
C224  C     C_3   0.092663 0.442653 0.150687 -0.816585
H142  H     H_    0.073418 0.413231 0.165033 0.230066
H143  H     H_    0.119326 0.415189 0.138196 0.234642
H144  H     H_    0.121315 0.473569 0.160471 0.255701

loop_
_geom_bond_atom_site_label_1
_geom_bond_atom_site_label_2
_geom_bond_distance
_ccdc_geom_bond_type
C199  H67   1.110078 S    
C184  H23   1.110511 S    
C224  H142  1.110517 S    
C141  C205  1.516560 S    
Zn5   O51   1.807577 S    
C7    C162  1.505236 S    
C49   C65   1.463488 S    
C142  C158  1.421036 A    
C194  H52   1.110518 S    
C185  H25   1.110519 S    
C3    C166  1.505267 S    
C12   C39   1.488888 S    
C146  C162  1.425643 A    
C113  C177  1.519295 S    
Zn1   O40   1.807582 S    
Zn2   O39   1.807584 S    
C209  H98   1.109898 S    
C30   C46   1.237499 T    
C127  C191  1.519300 S    
C85   C97   1.420672 A    
C178  H6    1.110512 S    
C151  C163  1.425197 A    
C80   N4    1.365309 A    
C14   C37   1.488880 S    
C115  C120  1.415831 A    
C204  H84   1.110516 S    
C78   O58   1.348137 S    
C23   C28   1.488880 S    
Zn13  O35   1.807577 S    
C113  C118  1.415810 A    
O34   C22   1.261144 A    
Zn14  O36   1.807579 S    
C222  H137  1.109886 S    
C114  C178  1.519300 S    
C122  C186  1.519294 S    
Zn3   O3    1.870755 S    
C76   N4    1.365304 A    
C138  C154  1.421034 A    
C74   C94   1.420678 A    
C202  H78   1.110506 S    
C195  H56   1.108111 S    
C129  C193  1.516564 S    
C213  H110  1.110511 S    
C83   O63   1.348150 S    
C10   C33   1.488882 S    
C46   C62   1.463494 S    
C74   N2    1.365282 A    
C198  H65   1.110079 S    
C100  C112  1.419068 A    
C148  C212  1.519373 S    
C200  H72   1.110514 S    
C141  C157  1.421026 A    
C116  C119  1.415832 A    
C95   C119  1.422820 A    
C203  H81   1.110534 S    
C220  H132  1.109892 S    
C93   C117  1.422828 A    
O22   C10   1.261145 A    
N6    C169  1.452517 S    
C104  C128  1.422822 A    
C193  H49   1.110514 S    
C159  C223  1.519317 S    
C140  C176  1.414011 A    
C85   N5    1.365293 A    
C180  H12   1.110118 S    
C142  C206  1.516567 S    
C84   C104  1.420694 A    
C189  H39   1.110517 S    
C107  C108  1.421146 A    
C219  H129  1.109872 S    
C77   N1    1.365282 A    
O40   C18   1.261049 A    
C136  C152  1.421080 A    
C218  H126  1.106431 S    
C73   C93   1.420674 A    
C88   O68   1.348152 S    
C196  H60   1.110514 S    
C79   C91   1.420692 A    
C1    C168  1.505319 S    
C73   N1    1.365286 A    
C2    C167  1.504919 S    
C199  H69   1.110508 S    
Zn7   O3    1.870782 S    
C177  H2    1.110126 S    
C147  C163  1.425241 A    
C123  C128  1.415839 A    
C224  H144  1.109893 S    
C193  H51   1.110080 S    
O9    C1    1.238648 A    
C194  H54   1.110078 S    
O11   C3    1.238609 A    
C160  C168  1.425656 A    
C185  H27   1.110128 S    
C95   C107  1.419073 A    
Zn16  O9    1.899151 S    
Zn13  O4    1.870721 S    
Zn14  O3    1.870723 S    
C139  C155  1.421036 A    
C188  H36   1.110116 S    
O44   C22   1.261058 A    
C91   C115  1.422834 A    
C208  H94   1.110083 S    
C92   C116  1.422834 A    
C80   O60   1.348139 S    
C181  H14   1.110125 S    
C131  C147  1.421020 A    
C201  H73   1.108116 S    
O38   C20   1.261145 A    
C144  C208  1.516553 S    
C217  H122  1.109896 S    
C135  C199  1.516481 S    
C11   C40   1.488886 S    
Zn15  O33   1.807560 S    
C221  H133  1.110511 S    
C223  H141  1.109893 S    
C81   O61   1.348122 S    
C124  C188  1.519305 S    
C20   C31   1.488882 S    
C102  C110  1.419102 A    
C103  C111  1.419060 A    
C197  H63   1.110513 S    
C190  H40   1.109538 S    
C152  C164  1.425807 A    
C212  H106  1.110507 S    
C211  H103  1.110524 S    
C116  C180  1.519298 S    
Zn13  O28   1.807595 S    
Zn9   O12   1.899152 S    
Zn14  O27   1.807593 S    
C206  H89   1.110080 S    
Zn10  O11   1.899152 S    
Zn15  O2    1.870782 S    
Zn11  O2    1.870755 S    
C197  H61   1.108117 S    
C191  H45   1.110118 S    
O27   C15   1.261150 A    
C123  C187  1.519301 S    
C90   C106  1.419103 A    
C133  C169  1.414000 A    
C210  H100  1.110514 S    
C188  H34   1.109545 S    
C217  H121  1.110512 S    
N1    C174  1.452522 S    
C84   O64   1.348151 S    
C97   C109  1.419100 A    
O46   C12   1.261139 A    
O14   C6    1.238312 A    
C188  H35   1.110502 S    
C55   C71   1.463494 S    
C189  H38   1.110128 S    
O43   C21   1.261152 A    
C53   C69   1.463488 S    
C191  H44   1.110517 S    
C150  C214  1.519386 S    
C186  H29   1.109536 S    
C207  H93   1.110524 S    
C85   O65   1.348120 S    
C50   C66   1.463488 S    
C201  H75   1.110504 S    
C137  C153  1.421031 A    
C74   O54   1.348135 S    
C4    C165  1.505173 S    
C179  H7    1.109539 S    
C94   C106  1.419100 A    
C159  C167  1.425446 A    
C192  H47   1.110505 S    
C207  H91   1.110079 S    
C144  C160  1.421044 A    
C214  H113  1.110507 S    
C77   O57   1.348133 S    
C187  H32   1.110517 S    
C57   C72   1.237473 T    
C143  C175  1.414065 A    
C208  H96   1.110519 S    
C58   C71   1.237471 T    
C148  C164  1.425812 A    
C86   C98   1.420677 A    
C97   C121  1.422827 A    
Zn12  O30   1.807568 S    
C211  H105  1.109863 S    
C219  H128  1.106464 S    
C137  C173  1.414001 A    
C87   N7    1.365324 A    
N3    C176  1.452611 S    
O5    C1    1.238645 A    
C140  C156  1.421056 A    
O31   C19   1.261151 A    
Zn12  O1    1.870757 S    
C221  H135  1.106433 S    
C183  H19   1.109537 S    
C18   C25   1.488887 S    
C5    C164  1.505641 S    
C120  C184  1.519297 S    
C48   C64   1.463487 S    
C190  H42   1.110520 S    
C38   C54   1.237494 T    
C182  H16   1.109540 S    
C121  C126  1.415809 A    
O37   C19   1.261052 A    
C139  C203  1.516521 S    
C212  H108  1.109896 S    
C132  C148  1.421096 A    
C99   C123  1.422838 A    
C42   C58   1.463494 S    
C103  C127  1.422821 A    
O51   C13   1.261144 A    
C215  H117  1.109922 S    
C101  C125  1.422822 A    
C149  C161  1.425625 A    
C194  H53   1.108125 S    
C154  C218  1.519385 S    
C210  H102  1.106418 S    
O8    C4    1.238571 A    
C144  C176  1.414004 A    
C19   C32   1.488882 S    
C138  C174  1.413984 A    
C217  H123  1.106433 S    
Zn5   O44   1.807595 S    
C149  C213  1.519386 S    
O48   C10   1.261058 A    
Zn6   O43   1.807593 S    
C86   N6    1.365285 A    
C6    C163  1.504487 S    
Zn8   O37   1.807555 S    
O16   C8    1.238582 A    
C78   N2    1.365281 A    
C180  H11   1.110515 S    
Zn1   O1    1.870725 S    
C21   C30   1.488888 S    
C134  C198  1.516566 S    
O52   C14   1.261047 A    
C102  C126  1.422832 A    
C126  C190  1.519291 S    
C209  H97   1.110512 S    
O45   C11   1.261043 A    
C178  H5    1.110127 S    
C157  C221  1.519385 S    
C73   O53   1.348132 S    
C204  H83   1.108127 S    
C141  C173  1.413999 A    
C117  C181  1.519298 S    
C222  H136  1.110504 S    
C179  H9    1.110119 S    
C36   C52   1.237499 T    
O42   C24   1.261138 A    
O6    C2    1.238487 A    
C219  H127  1.110518 S    
Zn1   O20   1.899152 S    
C25   C41   1.237499 T    
C202  H77   1.110080 S    
Zn2   O19   1.899152 S    
C213  H109  1.106426 S    
C139  C175  1.414089 A    
C146  C210  1.519392 S    
C216  H119  1.106442 S    
C62   C67   1.237473 T    
C32   C48   1.237496 T    
C39   C55   1.237496 T    
C63   C66   1.237467 T    
C131  C171  1.414176 A    
C198  H64   1.108117 S    
C135  C171  1.414142 A    
C132  C172  1.413975 A    
C138  C202  1.516566 S    
C77   C89   1.420672 A    
C105  C106  1.421151 A    
C200  H71   1.108136 S    
C215  H115  1.110492 S    
C147  C211  1.519336 S    
C145  C161  1.425629 A    
Zn16  O34   1.807562 S    
C183  H21   1.110121 S    
C129  C169  1.413999 A    
C203  H80   1.108134 S    
C31   C47   1.237494 T    
C131  C195  1.516489 S    
C220  H131  1.106445 S    
Zn5   O1    1.870721 S    
C133  C149  1.421024 A    
C132  C196  1.516560 S    
Zn4   O46   1.807568 S    
C182  H18   1.110515 S    
C101  C109  1.419095 A    
Zn11  O26   1.807560 S    
C192  H46   1.109550 S    
C223  H140  1.106541 S    
C104  C112  1.419057 A    
C114  C117  1.415805 A    
O35   C23   1.261141 A    
C156  C168  1.425659 A    
C75   O55   1.348127 S    
Zn16  O1    1.870787 S    
C218  H125  1.109895 S    
N7    C172  1.452652 S    
C89   C113  1.422830 A    
O32   C20   1.261056 A    
C87   O67   1.348147 S    
C59   C70   1.237466 T    
C196  H59   1.108128 S    
C153  C165  1.425612 A    
C22   C29   1.488888 S    
Zn4   O13   1.899165 S    
Zn16  O21   1.807555 S    
Zn5   O16   1.899155 S    
C119  C183  1.519292 S    
C185  H26   1.109539 S    
Zn6   O15   1.899155 S    
C199  H68   1.108148 S    
N2    C173  1.452512 S    
C177  H1    1.109536 S    
C224  H143  1.106450 S    
C9    C34   1.488884 S    
O12   C4    1.238574 A    
C100  C124  1.422834 A    
C79   O59   1.348127 S    
C130  C170  1.413993 A    
C193  H50   1.108117 S    
C82   N6    1.365285 A    
C205  H86   1.110079 S    
C137  C201  1.516559 S    
C216  H118  1.110500 S    
O7    C3    1.238599 A    
C54   C70   1.463488 S    
C130  C194  1.516564 S    
C209  H99   1.106429 S    
C153  C217  1.519387 S    
C94   C118  1.422829 A    
C128  C192  1.519298 S    
C195  H55   1.110088 S    
O21   C9    1.261049 A    
C26   C42   1.237497 T    
Zn9   O24   1.807582 S    
C125  C189  1.519293 S    
Zn10  O23   1.807584 S    
C52   C68   1.463494 S    
O23   C11   1.261145 A    
O39   C17   1.261144 A    
Zn12  O25   1.807561 S    
Zn7   O49   1.807560 S    
C28   C44   1.237492 T    
Zn9   O4    1.870725 S    
O15   C7    1.238595 A    
Zn10  O3    1.870730 S    
C222  H138  1.106414 S    
O25   C13   1.261041 A    
C93   C105  1.419100 A    
O18   C6    1.238405 A    
C152  C216  1.519377 S    
Zn9   O31   1.807587 S    
C213  H111  1.109894 S    
Zn10  O32   1.807585 S    
C80   C92   1.420697 A    
Zn7   O18   1.899151 S    
Zn11  O29   1.807570 S    
C81   N5    1.365293 A    
C198  H66   1.110514 S    
C206  H88   1.108114 S    
C87   C99   1.420710 A    
C88   C100  1.420708 A    
C140  C204  1.516553 S    
O41   C23   1.261045 A    
C56   C72   1.463493 S    
C157  C165  1.425614 A    
O28   C16   1.261058 A    
C75   N3    1.365312 A    
C76   C96   1.420688 A    
C33   C49   1.237494 T    
C211  H104  1.106512 S    
C75   C95   1.420686 A    
C111  C112  1.421131 A    
C109  C110  1.421162 A    
C121  C185  1.519293 S    
C143  C207  1.516525 S    
C40   C56   1.237497 T    
C191  H43   1.109541 S    
C51   C67   1.463494 S    
C44   C60   1.463490 S    
C142  C174  1.413984 A    
Zn3   O42   1.807560 S    
C186  H28   1.110515 S    
C177  H3    1.110516 S    
C129  C145  1.421029 A    
C207  H92   1.108139 S    
Zn7   O38   1.807557 S    
C136  C172  1.413965 A    
C76   O56   1.348140 S    
Zn8   O50   1.807562 S    
C151  C215  1.519251 S    
C184  H22   1.109548 S    
O26   C14   1.261138 A    
C143  C159  1.420993 A    
C79   N3    1.365315 A    
C214  H112  1.106427 S    
C47   C63   1.463490 S    
C187  H31   1.109535 S    
C208  H95   1.108129 S    
O19   C7    1.238590 A    
Zn8   O4    1.870787 S    
C45   C61   1.463494 S    
C181  H15   1.110519 S    
C201  H74   1.110083 S    
C135  C151  1.420951 A    
O49   C15   1.261051 A    
O13   C5    1.238756 A    
N8    C171  1.452616 S    
C134  C150  1.421030 A    
C221  H134  1.109892 S    
C115  C179  1.519295 S    
O20   C8    1.238580 A    
C182  H17   1.110124 S    
C83   C103  1.420696 A    
N5    C170  1.452528 S    
C91   C107  1.419083 A    
C64   C65   1.237469 T    
C190  H41   1.110128 S    
Zn4   O41   1.807561 S    
O24   C12   1.261049 A    
C212  H107  1.106432 S    
C134  C170  1.413991 A    
C34   C50   1.237494 T    
C82   C102  1.420674 A    
C206  H90   1.110511 S    
Zn6   O52   1.807579 S    
C78   C90   1.420675 A    
C215  H116  1.106659 S    
C136  C200  1.516556 S    
C223  H139  1.110515 S    
Zn1   O47   1.807587 S    
C210  H101  1.109882 S    
Zn2   O48   1.807585 S    
Zn3   O45   1.807570 S    
Zn6   O2    1.870723 S    
C98   C122  1.422840 A    
C15   C36   1.488887 S    
C158  C222  1.519400 S    
Zn15  O10   1.899151 S    
C184  H24   1.110117 S    
C92   C108  1.419084 A    
C180  H10   1.109539 S    
C99   C111  1.419076 A    
Zn12  O5    1.899165 S    
C130  C146  1.421029 A    
C24   C27   1.488880 S    
Zn13  O8    1.899155 S    
C90   C114  1.422834 A    
Zn14  O7    1.899155 S    
Zn3   O14   1.899165 S    
O29   C17   1.261045 A    
C60   C69   1.237464 T    
Zn15  O22   1.807557 S    
C154  C166  1.425661 A    
C205  H87   1.110508 S    
C61   C68   1.237473 T    
C17   C26   1.488886 S    
C96   C108  1.419074 A    
C160  C224  1.519371 S    
C186  H30   1.110127 S    
C122  C125  1.415807 A    
C81   C101  1.420671 A    
C178  H4    1.109537 S    
C37   C53   1.237492 T    
C8    C161  1.505194 S    
C204  H82   1.110083 S    
C84   N8    1.365310 A    
C41   C57   1.463493 S    
C83   N7    1.365322 A    
C179  H8    1.110516 S    
C43   C59   1.463487 S    
C150  C162  1.425642 A    
C192  H48   1.110118 S    
C86   O66   1.348126 S    
C29   C45   1.237499 T    
C214  H114  1.109893 S    
C202  H76   1.108118 S    
O47   C9    1.261155 A    
C187  H33   1.110120 S    
O17   C5    1.238767 A    
C13   C38   1.488880 S    
C145  C209  1.519386 S    
C35   C51   1.237497 T    
O33   C21   1.261049 A    
Zn2   O2    1.870730 S    
C181  H13   1.109536 S    
C155  C167  1.425469 A    
Zn4   O4    1.870757 S    
C200  H70   1.110084 S    
Zn11  O6    1.899165 S    
C89   C105  1.419103 A    
C156  C220  1.519371 S    
C183  H20   1.110521 S    
C27   C43   1.237494 T    
C203  H79   1.110083 S    
C98   C110  1.419109 A    
C220  H130  1.110519 S    
C205  H85   1.108120 S    
C124  C127  1.415841 A    
O10   C2    1.238529 A    
C216  H120  1.109897 S    
C133  C197  1.516565 S    
Zn8   O17   1.899151 S    
C82   O62   1.348126 S    
C189  H37   1.109542 S    
C96   C120  1.422823 A    
O50   C16   1.261144 A    
C88   N8    1.365314 A    
N4    C175  1.452590 S    
C197  H62   1.110082 S    
C218  H124  1.110508 S    
C155  C219  1.519364 S    
C16   C35   1.488888 S    
C195  H57   1.110512 S    
C196  H58   1.110087 S    
C158  C166  1.425661 A    
O36   C24   1.261046 A    
C118  C182  1.519296 S    
O30   C18   1.261139 A    
