data_mof_unit_44041.cif
_audit_creation_date              2012-10-26T18:27:30-0400
_audit_creation_method            fapswitch 2.2
_symmetry_space_group_name_H-M    P1
_symmetry_Int_Tables_number       1
_space_group_crystal_system       triclinic
_cell_length_a                    10.766259
_cell_length_b                    11.023257
_cell_length_c                    9.879001
_cell_angle_alpha                 111.38541
_cell_angle_beta                  98.537704
_cell_angle_gamma                 91.259103
_cell_volume                      1075.91704006

loop_
_atom_site_label
_atom_site_type_symbol
_atom_type_description
_atom_site_fract_x
_atom_site_fract_y
_atom_site_fract_z
_atom_type_partial_charge
C1    C     C_R   0.489071 0.253418 0.439715 0.535928
C2    C     C_2   0.523140 0.929638 0.484759 -0.094322
C3    C     C_2   0.506544 0.519511 0.088105 0.390841
C4    C     C_R   0.262943 0.504237 0.501822 0.525081
C5    C     C_2   0.483458 0.500984 0.925371 0.133001
C6    C     C_R   0.511318 0.746147 0.559827 0.540560
C7    C     C_R   0.737476 0.504922 0.500471 0.536532
C8    C     C_R   0.162573 0.730681 0.707399 -0.131728
C9    C     C_R   0.113309 0.837172 0.804945 -0.064965
C10   C     C_R   0.983572 0.839155 0.802692 0.236566
C11   C     C_R   0.903005 0.732968 0.702855 -0.100369
C12   C     C_R   0.082741 0.621578 0.607108 0.014556
C13   C     C_R   0.951258 0.622579 0.605097 -0.006703
C14   C     C_R   0.129758 0.513018 0.504952 0.013924
C15   C     C_R   0.048287 0.411115 0.399561 -0.116226
C16   C     C_R   0.920083 0.411858 0.397954 -0.103672
C17   C     C_R   0.871524 0.514600 0.501614 0.016566
C18   C     C_2   0.482082 0.112108 0.403125 0.209349
C19   C     C_2   0.520919 0.068134 0.511347 -0.134302
C20   C     C_2   0.520387 0.886262 0.593676 -0.107918
Cu1   Cu    Cu3+1 0.521920 0.521810 0.644910 1.010340
Cu2   Cu    Cu3+1 0.478080 0.478190 0.355090 1.082639
H1    H     H_    0.084511 0.329046 0.320017 0.163686
H2    H     H_    0.521963 0.953578 0.706389 0.159197
H3    H     H_    0.268351 0.111065 0.161210 0.358397
H4    H     H_    0.584049 0.694831 0.159620 0.363030
H5    H     H_    0.703989 0.652361 0.879803 0.362965
H6    H     H_    0.841729 0.870509 0.043924 0.357800
H7    H     H_    0.400423 0.439345 0.856874 0.066015
H8    H     H_    0.381241 0.372504 0.061799 0.185962
H9    H     H_    0.263286 0.736383 0.710298 0.161269
H10   H     H_    0.176702 0.918980 0.881081 0.200539
H11   H     H_    0.802778 0.739114 0.700936 0.146989
H12   H     H_    0.858563 0.330076 0.317811 0.175960
H13   H     H_    0.524456 0.861376 0.373779 0.224034
H14   H     H_    0.551965 0.136176 0.624036 0.147362
N1    N     N_2   0.445130 0.445430 0.137370 -0.311009
N2    N     N_2   0.554930 0.554500 0.862630 -0.069311
O1    O     O_R   0.511700 0.332330 0.577400 -0.531255
O2    O     O_2   0.329792 0.899902 0.218486 -0.293706
O3    O     O_3   0.346520 0.086313 0.119715 -0.489927
O4    O     O_3   0.591229 0.617898 0.188511 -0.594440
O5    O     O_3   0.666483 0.614124 0.942156 -0.588600
O6    O     O_2   0.009179 0.095398 0.967897 -0.255483
O7    O     O_2   0.794845 0.996233 0.854112 -0.279209
O8    O     O_3   0.905463 0.946156 0.077949 -0.466473
O9    O     O_R   0.474680 0.295500 0.332650 -0.444710
O10   O     O_R   0.338160 0.518420 0.622400 -0.523769
O11   O     O_R   0.301140 0.481590 0.377650 -0.493809
O12   O     O_R   0.525320 0.704500 0.667350 -0.501051
O13   O     O_R   0.488300 0.667670 0.422600 -0.453028
O14   O     O_R   0.698860 0.518410 0.622350 -0.517928
O15   O     O_R   0.661840 0.481580 0.377600 -0.440280
O16   O     O_2   0.528434 0.942195 0.145124 -0.249132
S1    S     S_3+6 0.421065 0.005100 0.218346 0.015193
S2    S     S_3+6 0.921465 0.974619 0.925184 0.029042

loop_
_geom_bond_atom_site_label_1
_geom_bond_atom_site_label_2
_ccdc_geom_bond_type
C2    H13   S    
C8    C9    A    
C3    O4    S    
C6    O13   A    
C6    C20   S    
C9    C10   A    
O6    S2    D    
Cu1   O1    S    
C13   C17   A    
C4    O11   A    
C8    C12   A    
O2    S1    D    
Cu1   O10   S    
C15   H1    S    
Cu2   O9    S    
O7    S2    D    
C3    C5    S    
N2    O5    S    
C5    N2    D    
C6    O12   A    
C11   C13   A    
H6    O8    S    
C1    C18   S    
C18   S1    S    
Cu2   O11   S    
C1    O9    A    
Cu1   O12   S    
C8    H9    S    
C12   C14   A    
C7    O14   A    
Cu2   O15   S    
C5    H7    S    
C19   H14   S    
H4    O4    S    
C4    C14   S    
C10   C11   A    
C7    O15   A    
C2    C20   D    
C15   C16   A    
H5    O5    S    
C11   H11   S    
C10   S2    S    
C12   C13   A    
C3    N1    D    
C18   C19   D    
C4    O10   A    
H3    O3    S    
O16   S1    D    
C1    O1    A    
C14   C15   A    
Cu2   O13   S    
C9    H10   S    
C16   H12   S    
C2    C19   S    
Cu1   Cu2   S    
Cu2   N1    S    
Cu1   O14   S    
O3    S1    S    
Cu1   N2    S    
C20   H2    S    
H8    N1    S    
C16   C17   A    
C7    C17   S    
O8    S2    S    
