data_mof_unit_40196.cif
_audit_creation_date              2013-03-05T16:04:20-0500
_audit_creation_method            fapswitch 2.2
_symmetry_space_group_name_H-M    P1
_symmetry_Int_Tables_number       1
_space_group_crystal_system       triclinic
_cell_length_a                    9.50917
_cell_length_b                    10.831901
_cell_length_c                    13.395385
_cell_angle_alpha                 90.097391
_cell_angle_beta                  72.447566
_cell_angle_gamma                 89.978513
_cell_volume                      1315.51458258

loop_
_atom_site_label
_atom_site_type_symbol
_atom_site_description
_atom_site_fract_x
_atom_site_fract_y
_atom_site_fract_z
_atom_type_partial_charge
O1    O     O_R   0.381250 0.680340 0.500010 -0.594013
O2    O     O_R   0.618820 0.680370 0.500010 -0.596621
C1    C     C_R   0.499851 0.737956 0.500399 0.782753
O3    O     O_R   0.323240 0.499950 0.650980 -0.534856
O4    O     O_R   0.560810 0.499980 0.650980 -0.579705
C2    C     C_R   0.420497 0.500719 0.700814 0.850254
Cu1   Cu    Cu3+1 0.359340 0.499980 0.500000 0.997530
Cu2   Cu    Cu3+1 0.640660 0.500020 0.500000 0.978902
O5    O     O_R   0.381180 0.319630 0.499990 -0.569836
O6    O     O_R   0.618750 0.319660 0.499990 -0.585246
O7    O     O_R   0.439190 0.500020 0.349020 -0.596163
O8    O     O_R   0.676760 0.500050 0.349020 -0.568745
C3    C     C_R   0.499882 0.262043 0.500240 0.823545
C4    C     C_R   0.578735 0.502700 0.299769 0.800113
C5    C     C_R   0.762767 0.640858 0.036557 -0.083143
H1    H     H_    0.824032 0.621422 0.177194 0.165959
H2    H     H_    0.860440 0.694577 0.999735 0.189396
C6    C     C_R   0.621939 0.524371 0.186884 -0.032340
C7    C     C_R   0.238180 0.429994 0.868756 0.234042
C8    C     C_R   0.197538 0.412955 0.977839 0.295655
C9    C     C_R   0.293560 0.451472 0.032575 -0.295052
C10   C     C_R   0.428564 0.510590 0.981875 0.042858
C11   C     C_R   0.458235 0.543992 0.875743 -0.001131
C12   C     C_R   0.534004 0.539369 0.034206 0.077841
C13   C     C_R   0.654645 0.618463 0.986041 0.039333
C14   C     C_R   0.664001 0.673309 0.888855 0.306560
C15   C     C_R   0.570301 0.631389 0.832936 -0.221690
C16   C     C_R   0.523221 0.490496 0.133250 -0.185287
C17   C     C_R   0.745198 0.595739 0.136947 -0.136688
C18   C     C_R   0.370249 0.494147 0.816661 -0.242217
H3    H     H_    0.437343 0.426577 0.172025 0.138285
H4    H     H_    0.257982 0.436236 0.115887 0.178356
H5    H     H_    0.579100 0.674230 0.758453 0.174940
C19   C     C_R   0.626924 0.936098 0.502084 -0.147149
H6    H     H_    0.726488 0.888023 0.502909 0.167282
C20   C     C_R   0.626990 0.063813 0.501925 -0.146304
H7    H     H_    0.726630 0.111828 0.502561 0.164685
C21   C     C_R   0.499660 0.128209 0.500820 -0.030666
C22   C     C_R   0.372083 0.063889 0.500288 -0.130853
H8    H     H_    0.272451 0.111961 0.499619 0.167213
C23   C     C_R   0.372049 0.936178 0.500366 -0.155326
H9    H     H_    0.272398 0.888165 0.499748 0.162094
C24   C     C_R   0.499582 0.871783 0.500995 -0.032085
C25   C     C_R   0.896711 0.572973 0.567854 0.016412
H10   H     H_    0.817112 0.631120 0.621659 0.166997
C26   C     C_R   0.045478 0.572916 0.568109 0.055084
H11   H     H_    0.078394 0.631387 0.622692 0.155199
N1    N     N_R   0.147940 0.499970 0.499970 -0.171737
C27   C     C_R   0.103325 0.426865 0.431899 -0.006164
H12   H     H_    0.182539 0.368163 0.377457 0.124759
C28   C     C_R   0.954392 0.426899 0.431936 -0.002946
H13   H     H_    0.921262 0.368312 0.377527 0.156524
N2    N     N_R   0.852060 0.500060 0.499990 -0.181241
N3    N     N_R   0.760517 0.776439 0.849495 0.121384
O9    O     O_R   0.811599 0.796382 0.749342 -0.398338
O10   O     O_R   0.773505 0.863626 0.913105 -0.322826
N4    N     N_R   0.144158 0.383446 0.811507 0.167857
O11   O     O_R   0.182534 0.285806 0.752846 -0.314341
O12   O     O_R   0.016343 0.434394 0.822756 -0.330025
N5    N     N_R   0.061866 0.352147 0.033933 0.144555
O13   O     O_R   0.998113 0.377319 0.132286 -0.399834
O14   O     O_R   0.008819 0.263108 0.990768 -0.253803

loop_
_geom_bond_atom_site_label_1
_geom_bond_atom_site_label_2
_geom_bond_distance
_ccdc_geom_bond_type
Cu2   N2    2.010198 S    
O4    Cu2   1.934051 S    
C2    C18   1.481443 S    
C5    H2    1.081469 S    
C11   C15   1.412324 A    
C8    N5    1.442397 S    
C23   H9    1.083306 S    
C4    C6    1.461852 S    
C19   C20   1.383400 A    
C7    C8    1.406746 A    
Cu2   O8    1.946622 S    
C13   C14   1.410130 A    
Cu1   N1    2.010360 S    
C8    C9    1.395864 A    
C20   C21   1.401079 A    
O2    C1    1.290287 A    
C14   C15   1.401020 A    
Cu1   Cu2   2.675121 S    
C22   C23   1.383359 A    
C6    C17   1.395852 A    
O1    Cu1   1.964802 S    
C9    C10   1.412657 A    
C15   H5    1.081229 S    
Cu1   O7    1.934052 S    
C23   C24   1.401033 A    
C1    C24   1.449608 S    
C3    C21   1.449710 S    
C21   C22   1.401082 A    
O3    Cu1   1.946621 S    
C7    N4    1.433257 S    
C14   N3    1.441914 S    
C10   C12   1.420309 A    
Cu2   O6    1.964802 S    
C20   H7    1.083291 S    
O7    C4    1.291885 A    
O8    C4    1.294573 A    
C5    C17   1.393527 A    
N4    O11   1.301208 A    
C10   C11   1.411228 A    
O4    C2    1.299498 A    
C19   H6    1.083349 S    
C9    H4    1.077072 S    
N3    O10   1.301542 A    
N4    O12   1.301243 A    
O3    C2    1.293582 A    
C5    C13   1.411786 A    
C19   C24   1.401105 A    
C28   N2    1.366703 A    
C28   H13   1.081777 S    
C11   C18   1.419928 A    
C6    C16   1.392183 A    
C12   C13   1.422145 A    
N5    O14   1.301289 A    
C27   H12   1.081792 S    
C22   H8    1.083317 S    
Cu1   O5    1.964459 S    
O5    C3    1.290334 A    
N3    O9    1.300179 A    
N1    C27   1.367339 A    
O1    C1    1.290545 A    
H1    C17   1.083252 S    
C26   H11   1.081819 S    
C7    C18   1.421531 A    
C25   N2    1.364207 A    
C26   N1    1.366499 A    
C16   H3    1.077895 S    
O2    Cu2   1.964461 S    
C25   H10   1.076174 S    
C12   C16   1.404049 A    
C25   C26   1.415682 A    
N5    O13   1.301739 A    
C27   C28   1.416079 A    
O6    C3    1.290517 A    
