data_mof_unit_33848.cif
_audit_creation_date              2012-12-11T14:29:31-0500
_audit_creation_method            fapswitch 2.2
_symmetry_space_group_name_H-M    P1
_symmetry_Int_Tables_number       1
_space_group_crystal_system       triclinic
_cell_length_a                    6.936477
_cell_length_b                    14.731345
_cell_length_c                    16.25617
_cell_angle_alpha                 90.457426
_cell_angle_beta                  90.15598
_cell_angle_gamma                 89.89997
_cell_volume                      1661.05299251

loop_
_atom_site_label
_atom_site_type_symbol
_atom_type_description
_atom_site_fract_x
_atom_site_fract_y
_atom_site_fract_z
_atom_type_partial_charge
O1    O     O_R   0.494400 0.416610 0.413880 -0.544937
O2    O     O_R   0.823920 0.406790 0.585520 -0.500294
O3    O     O_R   0.994250 0.583390 0.586120 -0.536370
C1    C     C_R   0.655542 0.384741 0.613540 0.781498
O4    O     O_R   0.824110 0.405730 0.414490 -0.542648
O5    O     O_R   0.994440 0.582310 0.413870 -0.544677
C2    C     C_R   0.654810 0.383677 0.386323 0.737146
O6    O     O_R   0.494210 0.417690 0.586130 -0.548795
O7    O     O_3   0.660810 0.557940 0.500000 -0.379517
V1    V     V_3+5 0.935650 0.489250 0.500000 1.469376
O8    O     O_R   0.324160 0.593210 0.414480 -0.547030
C3    C     C_R   0.155239 0.614999 0.386360 0.725587
O9    O     O_R   0.323970 0.594270 0.585510 -0.543601
C4    C     C_R   0.155171 0.616310 0.613817 0.697281
V2    V     V_3+5 0.435660 0.510750 0.500000 1.421302
O10   O     O_3   0.160630 0.442060 0.500000 -0.361429
H1    H     H_    0.784941 0.883029 0.526342 0.136709
C5    C     C_R   0.331561 0.582692 0.772773 -0.137761
C6    C     C_R   0.417011 0.564005 0.848382 -0.122203
C7    C     C_R   0.404583 0.626460 0.912549 -0.119800
C8    C     C_R   0.306647 0.708096 0.901601 -0.136313
C9    C     C_R   0.221220 0.729977 0.824996 0.068723
C10   C     C_R   0.233930 0.665817 0.759079 0.065126
C11   C     C_R   0.119395 0.812804 0.814289 -0.163816
C12   C     C_R   0.028540 0.830822 0.737685 0.003771
C13   C     C_R   0.042377 0.766959 0.671618 0.069726
C14   C     C_R   0.145157 0.684345 0.682161 -0.170434
C15   C     C_R   0.925897 0.912731 0.724781 -0.243474
C16   C     C_R   0.832189 0.929800 0.650240 0.507780
C17   C     C_R   0.851399 0.868541 0.585154 -0.192041
C18   C     C_R   0.955746 0.788541 0.595235 -0.221776
H2    H     H_    0.341452 0.530499 0.725890 0.120281
H3    H     H_    0.491424 0.500182 0.857475 0.114686
H4    H     H_    0.469268 0.611146 0.971522 0.112858
H5    H     H_    0.296819 0.752878 0.954415 0.111640
H6    H     H_    0.916169 0.964775 0.771804 0.133812
H7    H     H_    0.968179 0.744380 0.542086 0.135176
C19   C     C_2   0.985121 0.709879 0.282813 -0.133653
C20   C     C_2   0.149983 0.682722 0.319517 -0.308355
H8    H     H_    0.849015 0.681971 0.303584 0.135094
H9    H     H_    0.287664 0.710069 0.300807 0.128661
C21   C     C_2   0.973207 0.777331 0.214809 -0.131661
C22   C     C_2   0.126614 0.814540 0.177165 -0.310116
H10   H     H_    0.829212 0.796364 0.194905 0.134614
H11   H     H_    0.271782 0.796180 0.195212 0.128542
C23   C     C_2   0.779450 0.205496 0.780968 -0.184725
C24   C     C_2   0.614266 0.181776 0.818544 -0.352702
H12   H     H_    0.911477 0.171347 0.799323 0.136139
H13   H     H_    0.478828 0.214299 0.803393 0.121683
C25   C     C_2   0.798379 0.277738 0.716764 0.396096
C26   C     C_2   0.643161 0.314846 0.678598 -0.315230
H14   H     H_    0.498773 0.292899 0.693687 0.091119
C27   C     C_2   0.779292 0.208981 0.214059 -0.128288
C28   C     C_2   0.614123 0.181830 0.177404 -0.309623
H15   H     H_    0.915246 0.180329 0.193277 0.137822
H16   H     H_    0.476492 0.209796 0.196067 0.127566
C29   C     C_2   0.791638 0.277445 0.282000 -0.130645
C30   C     C_2   0.638177 0.315440 0.319541 -0.300011
H17   H     H_    0.935655 0.296530 0.301929 0.135405
H18   H     H_    0.493006 0.297023 0.301516 0.128983
O11   O     O_R   0.770210 0.079270 0.910680 -0.540366
O12   O     O_R   0.440150 0.091160 0.082270 -0.544941
O13   O     O_R   0.269970 0.914530 0.082860 -0.544087
C31   C     C_R   0.608870 0.113257 0.110503 0.746049
O14   O     O_R   0.440480 0.090100 0.911240 -0.547507
O15   O     O_R   0.270310 0.913460 0.910610 -0.541043
C32   C     C_R   0.608862 0.112102 0.883423 0.759188
O16   O     O_R   0.769870 0.080340 0.082930 -0.538400
O17   O     O_3   0.603660 0.938980 0.996790 -0.371527
V3    V     V_3+5 0.328750 0.007610 0.996740 1.394983
O18   O     O_R   0.940600 0.902510 0.911180 -0.539538
C33   C     C_R   0.109385 0.880755 0.882694 0.691599
O19   O     O_R   0.940270 0.903570 0.082200 -0.539719
C34   C     C_R   0.109741 0.881876 0.110364 0.739530
V4    V     V_3+5 0.828770 0.986010 0.996670 1.412074
O20   O     O_3   0.103730 0.054750 0.996710 -0.372921
O21   O     O_3   0.980972 0.306511 0.694890 -0.632282
H19   H     H_    0.077967 0.274411 0.728860 0.269068
O22   O     O_3   0.731382 0.009657 0.639096 -0.552411
C35   C     C_3   0.544876 0.998657 0.671856 -0.231793
H20   H     H_    0.549764 0.984812 0.739057 0.125454
H21   H     H_    0.464918 0.943685 0.639069 0.137796
H22   H     H_    0.463319 0.062755 0.663280 0.168515

loop_
_geom_bond_atom_site_label_1
_geom_bond_atom_site_label_2
_ccdc_geom_bond_type
O18   V4    S    
O19   C34   A    
C6    C7    A    
C1    O6    A    
C24   H13   S    
O15   V3    S    
C27   C28   D    
O11   V4    S    
O16   V4    S    
C13   C14   A    
C31   O16   A    
C15   C16   A    
C19   C21   S    
O5    C3    A    
C19   C20   D    
C29   H17   S    
C30   H18   S    
O14   V3    S    
O12   V3    S    
C5    C6    A    
O12   C31   A    
O8    V2    S    
O15   C33   A    
O14   C32   A    
O1    V2    S    
C10   C14   A    
C4    C14   S    
O7    V1    S    
C2    C30   S    
C7    H4    S    
C22   C34   S    
C13   C18   A    
O9    C4    A    
H1    C17   S    
O19   V4    S    
C21   H10   S    
C35   H22   S    
C24   C32   S    
C23   H12   S    
C27   H15   S    
C28   H16   S    
C1    C26   S    
C5    C10   A    
C11   C12   A    
C35   H21   S    
C6    H3    S    
O4    C2    A    
C27   C29   S    
C12   C13   A    
O21   H19   S    
C26   H14   S    
C12   C15   A    
O2    C1    A    
V4    O20   S    
C16   C17   A    
O11   C32   A    
C16   O22   S    
O13   V3    S    
C25   C26   D    
C22   H11   S    
C15   H6    S    
O3    C4    A    
O6    V2    S    
O9    V2    S    
V3    O20   S    
C9    C11   A    
C5    H2    S    
C21   C22   D    
O2    V1    S    
C25   O21   S    
C11   C33   S    
C23   C24   D    
O1    C2    A    
C35   H20   S    
O5    V1    S    
O8    C3    A    
C8    H5    S    
O13   C34   A    
C23   C25   S    
C3    C20   S    
O7    V2    S    
O18   C33   A    
O3    V1    S    
V1    O10   S    
C19   H8    S    
C29   C30   D    
C17   C18   A    
C28   C31   S    
O17   V4    S    
O17   V3    S    
O22   C35   S    
C18   H7    S    
O4    V1    S    
C7    C8    A    
C20   H9    S    
C9    C10   A    
C8    C9    A    
V2    O10   S    
