data_mof_unit_60235.cif
_audit_creation_date              2012-12-10T17:27:31-0500
_audit_creation_method            fapswitch 2.2
_symmetry_space_group_name_H-M    P1
_symmetry_Int_Tables_number       1
_space_group_crystal_system       triclinic
_cell_length_a                    42.625039
_cell_length_b                    29.425122
_cell_length_c                    29.419748
_cell_angle_alpha                 90.000324
_cell_angle_beta                  133.895243
_cell_angle_gamma                 89.99874
_cell_volume                      26590.1935314

loop_
_atom_site_label
_atom_site_type_symbol
_atom_type_description
_atom_site_fract_x
_atom_site_fract_y
_atom_site_fract_z
_atom_type_partial_charge
C1    C     C_R   0.499989 0.585483 0.500007 0.825009
C2    C     C_1   0.834983 0.000081 0.335888 -0.025364
C3    C     C_3   0.761226 0.967363 0.233953 -0.201141
C4    C     C_1   0.373229 0.500036 0.373840 -0.179736
C5    C     C_1   0.873229 0.000049 0.373841 -0.179743
C6    C     C_1   0.120531 0.499992 0.121190 -0.144674
C7    C     C_1   0.620531 0.999990 0.121187 -0.144681
C8    C     C_3   0.261569 0.493097 0.305386 -0.131951
C9    C     C_3   0.761567 0.991787 0.305146 -0.131931
C10   C     C_3   0.289014 0.500074 0.290084 0.110540
C11   C     C_3   0.789014 0.000097 0.290084 0.110554
C12   C     C_1   0.158771 0.499988 0.159939 0.016785
C13   C     C_1   0.658771 0.999985 0.159933 0.016774
C14   C     C_1   0.499978 0.636530 0.499968 -0.199649
C15   C     C_1   0.499977 0.363470 0.499967 -0.200278
C16   C     C_1   0.999978 0.136530 0.499968 -0.199524
C17   C     C_1   0.999978 0.863470 0.499967 -0.200385
C18   C     C_1   0.499970 0.678852 0.499955 0.008402
C19   C     C_1   0.499969 0.321148 0.499953 0.007846
C20   C     C_1   0.999970 0.178851 0.499955 0.008533
C21   C     C_R   0.499989 0.414517 0.500008 0.824468
C22   C     C_1   0.999969 0.821148 0.499954 0.007740
C23   C     C_1   0.499963 0.729016 0.499953 0.009808
C24   C     C_1   0.499961 0.270984 0.499951 0.009382
C25   C     C_1   0.999963 0.229016 0.499953 0.009932
C26   C     C_1   0.999961 0.770984 0.499951 0.009284
C27   C     C_1   0.499959 0.771337 0.499956 0.009390
C28   C     C_1   0.499957 0.228663 0.499954 0.009095
C29   C     C_1   0.999959 0.271337 0.499956 0.009502
C30   C     C_1   0.999957 0.728663 0.499954 0.009008
C31   C     C_1   0.499956 0.821502 0.499964 0.008146
C32   C     C_R   0.999989 0.085484 0.500007 0.825096
C33   C     C_1   0.499953 0.178498 0.499961 0.007964
C34   C     C_1   0.999955 0.321502 0.499964 0.008241
C35   C     C_1   0.999953 0.678498 0.499961 0.007893
C36   C     C_1   0.499955 0.863823 0.499973 -0.194031
C37   C     C_1   0.499952 0.136177 0.499970 -0.194137
C38   C     C_1   0.999955 0.363823 0.499973 -0.193953
C39   C     C_1   0.999952 0.636177 0.499970 -0.194190
C40   C     C_R   0.418249 0.500007 0.418453 0.864812
C41   C     C_R   0.918249 0.000010 0.418453 0.864834
C42   C     C_1   0.635085 0.500000 0.634715 -0.199635
C43   C     C_R   0.999989 0.914516 0.500008 0.824407
C44   C     C_1   0.135085 0.000000 0.634715 -0.199637
C45   C     C_1   0.676567 0.500000 0.676183 0.016979
C46   C     C_1   0.176567 0.000000 0.676183 0.016978
C47   C     C_1   0.726138 0.500001 0.725826 0.005691
C48   C     C_1   0.226138 0.000001 0.725826 0.005692
C49   C     C_1   0.767622 0.500001 0.767397 0.005636
C50   C     C_1   0.267622 0.000001 0.767397 0.005639
C51   C     C_1   0.817193 0.500001 0.817083 0.016745
C52   C     C_1   0.317193 0.000001 0.817083 0.016750
C53   C     C_1   0.858676 0.500001 0.858661 -0.199473
C54   C     C_3   0.204766 0.500012 0.206131 0.069575
C55   C     C_1   0.358676 0.000001 0.858661 -0.199467
C56   C     C_R   0.994839 0.500000 0.080445 0.820565
C57   C     C_R   0.494839 0.000000 0.080445 0.820573
C58   C     C_R   0.075519 0.499998 0.075547 0.869116
C59   C     C_R   0.575519 0.999998 0.075546 0.869031
C60   C     C_R   0.993237 0.500000 0.907804 0.834189
C61   C     C_R   0.493237 0.000000 0.907804 0.834098
C62   C     C_R   0.909165 0.500000 0.909250 0.807284
C63   C     C_R   0.409165 0.000001 0.909250 0.807281
C64   C     C_R   0.584597 0.500000 0.584474 0.809183
C65   C     C_3   0.704766 0.000016 0.206126 0.069574
C66   C     C_R   0.084597 1.000000 0.584474 0.809186
C67   C     C_R   0.499092 1.000000 0.414035 0.814896
C68   C     C_R   0.999092 0.500000 0.414035 0.814890
C69   C     C_R   0.499958 0.914870 0.499985 0.814970
C70   C     C_R   0.499957 0.085130 0.499984 0.814987
C71   C     C_R   0.999958 0.414870 0.499985 0.814996
C72   C     C_R   0.999957 0.585130 0.499984 0.814956
C73   C     C_R   0.500754 0.000000 0.585894 0.815094
C74   C     C_R   0.000754 0.500000 0.585894 0.815095
C75   C     C_1   0.995590 0.500000 0.132232 -0.201131
C76   C     C_3   0.232666 0.506868 0.192023 0.501261
C77   C     C_1   0.495590 0.000000 0.132232 -0.201109
C78   C     C_1   0.996225 0.500000 0.175183 0.006202
C79   C     C_1   0.496225 0.000000 0.175183 0.006218
C80   C     C_1   0.996974 0.500000 0.226088 0.008218
C81   C     C_1   0.496975 0.000000 0.226088 0.008230
C82   C     C_1   0.497588 0.000000 0.269017 0.008163
C83   C     C_1   0.997588 0.500000 0.269017 0.008154
C84   C     C_1   0.498265 0.000000 0.319851 0.007031
C85   C     C_1   0.998265 0.500000 0.319850 0.007026
C86   C     C_1   0.498744 1.000000 0.362647 -0.194992
C87   C     C_3   0.732667 0.008183 0.192253 0.501202
C88   C     C_1   0.998743 0.500000 0.362647 -0.194992
C89   C     C_1   0.994252 0.500000 0.857758 -0.184565
C90   C     C_1   0.494252 0.000000 0.857757 -0.184664
C91   C     C_3   0.232734 0.533529 0.261316 -0.219910
C92   C     C_3   0.232699 0.459595 0.249216 -0.220347
C93   C     C_3   0.732734 0.032673 0.262345 -0.219929
C94   C     C_3   0.732698 0.959149 0.247943 -0.220280
C95   C     C_1   0.995417 0.500001 0.816604 0.020630
C96   C     C_1   0.495416 0.000001 0.816603 0.020539
C97   C     C_1   0.996949 0.500001 0.767974 0.017910
C98   C     C_1   0.334983 0.500060 0.335887 -0.025360
C99   C     C_1   0.496949 0.000001 0.767974 0.017848
C100  C     C_1   0.498237 0.000001 0.726948 0.014371
C101  C     C_1   0.998237 0.500001 0.726948 0.014412
C102  C     C_1   0.499629 0.000001 0.678173 0.011215
C103  C     C_1   0.999630 0.500001 0.678173 0.011244
C104  C     C_1   0.500494 0.000000 0.636710 -0.192576
C105  C     C_1   0.000495 0.500000 0.636710 -0.192553
C106  C     C_3   0.261267 0.540600 0.247124 -0.201132
C107  C     C_3   0.261227 0.466475 0.234990 -0.200989
C108  C     C_3   0.761269 0.041076 0.248396 -0.200995
Cu1   Cu    Cu3+1 0.500480 0.500000 0.542990 0.967612
Cu2   Cu    Cu3+1 0.958020 0.500000 0.458050 0.970004
Cu3   Cu    Cu3+1 0.541920 1.000000 0.541950 0.972422
Cu4   Cu    Cu3+1 0.041920 0.500000 0.541950 0.972446
Cu5   Cu    Cu3+1 0.000480 0.000000 0.542990 0.967635
Cu6   Cu    Cu3+1 0.499450 0.500000 0.457010 0.977800
Cu7   Cu    Cu3+1 0.999450 0.000000 0.457010 0.977724
Cu8   Cu    Cu3+1 0.993800 0.542460 0.993900 0.982098
Cu9   Cu    Cu3+1 0.993800 0.457540 0.993900 0.976514
Cu10  Cu    Cu3+1 0.493800 0.042460 0.993900 0.982775
Cu11  Cu    Cu3+1 0.493800 0.957540 0.993900 0.975960
Cu12  Cu    Cu3+1 0.458020 0.000000 0.458050 0.969976
H1    H     H_    0.274056 0.573417 0.246996 0.167979
H2    H     H_    0.774872 0.985054 0.352945 0.146479
H3    H     H_    0.241330 0.527401 0.078757 0.380928
H4    H     H_    0.741332 0.031928 0.079563 0.380906
H5    H     H_    0.273982 0.439466 0.225066 0.168497
H6    H     H_    0.774060 0.074283 0.249300 0.168025
H7    H     H_    0.773981 0.941075 0.223196 0.168455
H8    H     H_    0.219854 0.560706 0.270830 0.160543
H9    H     H_    0.219792 0.426706 0.248903 0.160934
H10   H     H_    0.719854 0.059137 0.272697 0.160522
H11   H     H_    0.719790 0.925880 0.246596 0.160929
H12   H     H_    0.274875 0.487442 0.353378 0.146503
O1    O     O_R   0.500410 0.561970 0.536310 -0.561709
O2    O     O_R   0.963790 0.500000 0.401850 -0.557361
O3    O     O_R   0.534640 1.000000 0.472710 -0.558357
O4    O     O_R   0.034640 0.500000 0.472710 -0.558361
O5    O     O_R   0.464530 0.938000 0.464560 -0.557772
O6    O     O_R   0.464530 0.062000 0.464560 -0.558027
O7    O     O_R   0.964530 0.438000 0.464560 -0.557737
O8    O     O_R   0.964530 0.562000 0.464560 -0.558053
O9    O     O_R   0.535390 0.937990 0.535420 -0.557442
O10   O     O_R   0.535390 0.062010 0.535420 -0.557281
O11   O     O_R   0.035390 0.437990 0.535420 -0.557433
O12   O     O_R   0.500410 0.438030 0.536310 -0.561570
O13   O     O_R   0.035390 0.562010 0.535420 -0.557287
O14   O     O_R   0.465290 1.000000 0.527290 -0.558733
O15   O     O_R   0.965290 0.500000 0.527290 -0.558733
O16   O     O_R   0.536150 1.000000 0.598150 -0.555454
O17   O     O_R   0.036150 0.500000 0.598150 -0.555444
O18   O     O_R   0.499540 0.561910 0.463710 -0.559150
O19   O     O_R   0.499540 0.438090 0.463710 -0.559719
O20   O     O_R   0.999540 0.061910 0.463710 -0.559096
O21   O     O_R   0.999540 0.938090 0.463710 -0.559790
O22   O     O_R   0.439190 0.500000 0.475090 -0.579060
O23   O     O_R   0.000410 0.061970 0.536310 -0.561694
O24   O     O_R   0.939190 0.000000 0.475090 -0.579038
O25   O     O_R   0.438320 0.500000 0.402480 -0.569106
O26   O     O_R   0.938320 0.000000 0.402480 -0.569157
O27   O     O_R   0.561610 0.500000 0.597520 -0.556752
O28   O     O_R   0.061610 0.000000 0.597520 -0.556748
O29   O     O_R   0.560740 0.500000 0.524910 -0.557030
O30   O     O_R   0.060740 1.000000 0.524910 -0.557037
O31   O     O_R   0.994560 0.535840 0.056620 -0.562187
O32   O     O_R   0.994560 0.464160 0.056620 -0.562365
O33   O     O_R   0.494560 0.035840 0.056620 -0.562122
O34   O     O_R   0.000410 0.938030 0.536310 -0.561573
O35   O     O_R   0.494560 0.964160 0.056620 -0.562402
O36   O     O_R   0.055010 0.535850 0.055100 -0.570504
O37   O     O_R   0.055010 0.464150 0.055100 -0.576286
O38   O     O_R   0.555010 0.035850 0.055100 -0.569891
O39   O     O_R   0.555010 0.964150 0.055100 -0.576802
O40   O     O_R   0.993040 0.535870 0.931160 -0.557455
O41   O     O_R   0.993040 0.464130 0.931160 -0.559757
O42   O     O_R   0.493040 0.035870 0.931160 -0.557222
O43   O     O_R   0.493040 0.964130 0.931160 -0.559998
O44   O     O_2   0.185186 0.476063 0.074218 -0.286740
O45   O     O_R   0.932590 0.535860 0.932690 -0.557714
O46   O     O_2   0.185279 0.558455 0.087770 -0.286394
O47   O     O_3   0.254724 0.521815 0.122330 -0.529766
O48   O     O_2   0.685223 0.979545 0.073550 -0.287586
O49   O     O_2   0.685249 0.061481 0.089591 -0.285458
O50   O     O_3   0.754728 0.026018 0.123080 -0.529752
O51   O     O_R   0.932590 0.464140 0.932690 -0.557683
O52   O     O_R   0.432590 0.035860 0.932690 -0.557683
O53   O     O_R   0.432590 0.964140 0.932690 -0.557708
O54   O     O_R   0.463790 0.000000 0.401850 -0.557364
S1    S     S_3+6 0.212488 0.516019 0.115758 0.002479
S2    S     S_3+6 0.712491 0.019067 0.116299 0.002532

loop_
_geom_bond_atom_site_label_1
_geom_bond_atom_site_label_2
_ccdc_geom_bond_type
Cu12  O14   S    
C4    C98   T    
C6    C58   S    
Cu8   O31   S    
C44   C66   S    
C61   O43   A    
C62   O45   A    
C66   O28   A    
C81   C82   T    
C47   C49   T    
C13   C65   S    
C60   C89   S    
C61   C90   S    
C15   C19   T    
C56   O31   A    
C66   O30   A    
C1    C14   S    
C30   C35   S    
Cu4   O11   S    
Cu2   O7    S    
C52   C55   T    
Cu4   O4    S    
C93   C108  S    
C6    C12   T    
C3    H7    S    
C85   C88   T    
C57   O33   A    
C20   C25   S    
Cu10  O38   S    
C69   O9    A    
C72   O13   A    
C96   C99   S    
Cu4   O13   S    
Cu8   O40   S    
C10   C98   S    
C14   C18   T    
Cu10  Cu11  S    
O48   S2    D    
Cu3   O10   S    
Cu11  O43   S    
C62   O51   A    
C38   C71   S    
C73   C104  S    
C87   C108  S    
C4    C40   S    
C49   C51   S    
C55   C63   S    
Cu7   O20   S    
C8    H12   S    
C50   C52   S    
C39   C72   S    
C74   O17   A    
C8    C92   S    
C17   C22   T    
C23   C27   T    
C3    C94   S    
C59   O38   A    
C58   O36   A    
C67   O54   A    
C41   O24   A    
C48   C50   T    
C101  C103  S    
C56   C75   S    
C12   C54   S    
C37   C70   S    
Cu7   O21   S    
C69   O5    A    
C60   O41   A    
C91   C106  S    
C40   O22   A    
C10   C107  S    
Cu6   O19   S    
Cu5   O23   S    
C80   C83   T    
C59   O39   A    
C2    C11   S    
C7    C59   S    
O49   S2    D    
C44   C46   T    
C65   C87   S    
C45   C47   S    
Cu9   O32   S    
C25   C29   T    
C46   C48   S    
C1    O1    A    
C70   O10   A    
C91   H8    S    
Cu7   O26   S    
C3    C87   S    
C18   C23   S    
C60   O40   A    
C57   C77   S    
C40   O25   A    
C68   O4    A    
C58   O37   A    
C3    C11   S    
C107  H5    S    
H3    O47   S    
Cu5   O34   S    
C79   C81   S    
Cu6   O29   S    
C71   O7    A    
C73   O16   A    
C63   O53   A    
C27   C31   S    
C29   C34   S    
Cu4   O17   S    
C33   C37   T    
Cu3   Cu12  S    
C51   C53   T    
C42   C45   T    
C89   C95   T    
C35   C39   T    
Cu11  O53   S    
Cu6   O25   S    
C54   C92   S    
C67   O3    A    
C32   O23   A    
C53   C62   S    
C74   O15   A    
C92   C107  S    
C99   C100  T    
C32   O20   A    
C15   C21   S    
C16   C20   T    
C100  C102  S    
C9    H2    S    
C77   C79   T    
C1    O18   A    
C103  C105  T    
C8    C91   S    
O50   S2    S    
C102  C104  T    
Cu1   O22   S    
C9    C11   S    
C76   S1    S    
Cu1   Cu6   S    
C54   C76   S    
O46   S1    D    
C65   C94   S    
C83   C85   S    
C28   C33   S    
C26   C30   T    
C76   C107  S    
C82   C84   S    
C68   C88   S    
C72   O8    A    
C10   C106  S    
C2    C5    T    
Cu12  O6    S    
Cu6   O18   S    
Cu5   O24   S    
C93   H10   S    
Cu1   O27   S    
C9    C93   S    
C11   C108  S    
C36   C69   S    
O44   S1    D    
C71   O11   A    
C43   O34   A    
Cu9   O41   S    
C5    C41   S    
C95   C97   S    
C67   C86   S    
C76   C106  S    
C63   O52   A    
C34   C38   T    
C61   O42   A    
C24   C28   T    
C21   O12   A    
C84   C86   T    
C64   O29   A    
Cu12  O54   S    
C42   C64   S    
Cu9   O51   S    
C90   C96   T    
C87   S2    S    
C57   O35   A    
Cu10  O52   S    
C16   C32   S    
C106  H1    S    
C56   O32   A    
Cu10  O33   S    
C94   H11   S    
C73   O14   A    
Cu7   O30   S    
C68   O2    A    
C19   C24   S    
C54   C91   S    
Cu1   O1    S    
Cu3   O16   S    
C74   C105  S    
C70   O6    A    
Cu3   O3    S    
C64   O27   A    
Cu2   O8    S    
C65   C93   S    
Cu8   Cu9   S    
C92   H9    S    
Cu1   O12   S    
C78   C80   S    
C21   O19   A    
Cu5   O28   S    
Cu11  O35   S    
C75   C78   T    
Cu2   Cu4   S    
Cu2   O2    S    
Cu3   O9    S    
C41   O26   A    
Cu9   O37   S    
C7    C13   T    
O47   S1    S    
Cu10  O42   S    
C8    C10   S    
H4    O50   S    
C22   C26   S    
C17   C43   S    
Cu8   O45   S    
C31   C36   T    
Cu8   O36   S    
Cu12  O5    S    
C108  H6    S    
C43   O21   A    
C9    C94   S    
C97   C101  T    
Cu2   O15   S    
Cu11  O39   S    
Cu5   Cu7   S    
