data_mof_unit_41359.cif
_audit_creation_date              2012-12-10T17:17:52-0500
_audit_creation_method            fapswitch 2.2
_symmetry_space_group_name_H-M    P1
_symmetry_Int_Tables_number       1
_space_group_crystal_system       triclinic
_cell_length_a                    15.002092
_cell_length_b                    15.716351
_cell_length_c                    9.553148
_cell_angle_alpha                 89.985803
_cell_angle_beta                  90.582249
_cell_angle_gamma                 90.000757
_cell_volume                      2252.3071294

loop_
_atom_site_label
_atom_site_type_symbol
_atom_type_description
_atom_site_fract_x
_atom_site_fract_y
_atom_site_fract_z
_atom_type_partial_charge
C1    C     C_R   0.386415 0.876615 0.500445 0.817497
C2    C     C_R   0.386450 0.123397 0.500384 0.817403
C3    C     C_R   0.886427 0.376611 0.500427 0.817617
C4    C     C_R   0.886436 0.623398 0.500414 0.817378
C5    C     C_R   0.282129 0.219206 0.378357 -0.187049
C6    C     C_R   0.282551 0.780416 0.378360 -0.186840
C7    C     C_R   0.782464 0.719535 0.378339 -0.186948
C8    C     C_R   0.782382 0.280584 0.378355 -0.186857
C9    C     C_R   0.713579 0.777845 0.379757 -0.216390
C10   C     C_R   0.713498 0.222271 0.379767 -0.216488
C11   C     C_R   0.213274 0.277544 0.379865 -0.216539
C12   C     C_R   0.213656 0.722115 0.379720 -0.216452
C13   C     C_R   0.680316 0.808009 0.506957 -0.112704
C14   C     C_R   0.680292 0.192011 0.506957 -0.112703
C15   C     C_R   0.180445 0.308101 0.507079 -0.112679
C16   C     C_R   0.180217 0.692063 0.506889 -0.112710
C17   C     C_R   0.664295 0.000002 0.146792 -0.127486
C18   C     C_R   0.164295 0.500145 0.146794 -0.127448
C19   C     C_R   0.744368 0.999979 0.075323 -0.229428
C20   C     C_R   0.244368 0.500327 0.075327 -0.229554
C21   C     C_R   0.744217 0.999960 0.931157 -0.182661
C22   C     C_R   0.244217 0.500355 0.931162 -0.182673
C23   C     C_R   0.663985 0.999971 0.857688 -0.106320
C24   C     C_R   0.163985 0.500179 0.857692 -0.106565
C25   C     C_R   0.580706 0.999990 0.926223 0.151026
C26   C     C_R   0.080706 0.500089 0.926225 0.150951
C27   C     C_R   0.580744 0.999997 0.076092 0.094220
C28   C     C_R   0.080744 0.500080 0.076093 0.094246
C29   C     C_R   0.423159 0.000002 0.072646 0.659432
C30   C     C_R   0.923159 0.499937 0.072646 0.659413
C31   C     C_R   0.615421 0.122242 0.501513 0.767374
C32   C     C_R   0.615428 0.877764 0.501525 0.767494
C33   C     C_R   0.115389 0.622262 0.501497 0.767401
C34   C     C_R   0.115486 0.377803 0.501554 0.767498
C35   C     C_R   0.423299 0.000003 0.924467 -0.163074
C36   C     C_R   0.923299 0.499932 0.924467 -0.163167
C37   C     C_R   0.352100 0.229060 0.755742 -0.159224
C38   C     C_R   0.350642 0.771905 0.756749 -0.159638
C39   C     C_R   0.851142 0.728393 0.756438 -0.159429
C40   C     C_R   0.851206 0.271487 0.756365 -0.159512
C41   C     C_R   0.316333 0.251080 0.884726 -0.139392
C42   C     C_R   0.314160 0.750398 0.885499 -0.139165
C43   C     C_R   0.814880 0.750011 0.885284 -0.139170
C44   C     C_R   0.814998 0.249763 0.885218 -0.139214
C45   C     C_R   0.726971 0.777042 0.891913 -0.127648
C46   C     C_R   0.727087 0.222728 0.891908 -0.127648
C47   C     C_R   0.228482 0.278207 0.891918 -0.128000
C48   C     C_R   0.226232 0.723386 0.891857 -0.127480
C49   C     C_R   0.678466 0.790792 0.768740 -0.166434
C50   C     C_R   0.678531 0.209073 0.768773 -0.166420
C51   C     C_R   0.179546 0.291658 0.769077 -0.166940
C52   C     C_R   0.177928 0.709545 0.768551 -0.166170
C53   C     C_R   0.717935 0.778303 0.635782 0.096614
C54   C     C_R   0.717955 0.221639 0.635786 0.096718
C55   C     C_R   0.218512 0.278777 0.635852 0.096753
C56   C     C_R   0.217628 0.721906 0.635733 0.096659
C57   C     C_R   0.299925 0.234287 0.631353 0.098935
C58   C     C_R   0.299105 0.766309 0.631743 0.098872
C59   C     C_R   0.799397 0.733884 0.631622 0.098925
C60   C     C_R   0.799416 0.266064 0.631599 0.098826
C61   C     C_R   0.325129 0.195808 0.503167 -0.133408
C62   C     C_R   0.324988 0.804269 0.503397 -0.133345
C63   C     C_R   0.825065 0.695784 0.503310 -0.133352
C64   C     C_R   0.825038 0.304242 0.503313 -0.133404
Cu1   Cu    Cu3+1 0.499990 1.000000 0.640660 0.915732
Cu2   Cu    Cu3+1 0.999990 0.500000 0.640660 0.915707
Cu3   Cu    Cu3+1 0.500010 0.000000 0.359340 0.981023
Cu4   Cu    Cu3+1 0.000010 0.500000 0.359340 0.981034
H1    H     H_    0.301604 0.192374 0.278770 0.184774
H2    H     H_    0.302543 0.806815 0.278694 0.184063
H3    H     H_    0.802303 0.693033 0.278685 0.184165
H4    H     H_    0.802175 0.307162 0.278714 0.184400
H5    H     H_    0.806741 0.999946 0.875484 0.155534
H6    H     H_    0.306741 0.500436 0.875489 0.155619
H7    H     H_    0.671613 0.999972 0.747496 0.204271
H8    H     H_    0.171614 0.500048 0.747500 0.204310
H9    H     H_    0.360576 0.000003 0.867581 0.182093
H10   H     H_    0.860576 0.499877 0.867580 0.182110
H11   H     H_    0.421227 0.209766 0.754859 0.150541
H12   H     H_    0.419832 0.791009 0.756598 0.151000
H13   H     H_    0.920316 0.709249 0.756035 0.150722
H14   H     H_    0.920377 0.290657 0.755911 0.150989
H15   H     H_    0.356000 0.244665 0.979460 0.135474
H16   H     H_    0.353351 0.757083 0.980661 0.135466
H17   H     H_    0.854224 0.743391 0.980317 0.135431
H18   H     H_    0.854379 0.256317 0.980215 0.135479
H19   H     H_    0.696798 0.789186 0.992448 0.137562
H20   H     H_    0.696951 0.210510 0.992459 0.137598
H21   H     H_    0.198681 0.290644 0.992626 0.137894
H22   H     H_    0.195896 0.711313 0.992291 0.137496
H23   H     H_    0.609420 0.808084 0.780885 0.160164
H24   H     H_    0.609482 0.191796 0.780976 0.160073
H25   H     H_    0.110562 0.308976 0.781785 0.160642
H26   H     H_    0.108859 0.692255 0.780445 0.159926
H27   H     H_    0.685360 0.798250 0.280424 0.164225
H28   H     H_    0.685232 0.201941 0.280444 0.164194
H29   H     H_    0.184700 0.297630 0.280610 0.164202
H30   H     H_    0.185583 0.701612 0.280363 0.164244
H31   H     H_    0.672459 0.000022 0.257155 0.204840
H32   H     H_    0.172458 0.500044 0.257157 0.204848
H33   H     H_    0.807051 0.999978 0.132562 0.154012
H34   H     H_    0.307050 0.500400 0.132566 0.154043
N1    N     N_R   0.501200 0.000000 0.147910 -0.249654
N2    N     N_R   0.001200 0.500000 0.147910 -0.249657
N3    N     N_R   0.501270 0.000000 0.852040 -0.241775
N4    N     N_R   0.001270 0.500000 0.852040 -0.241764
O1    O     O_R   0.409820 0.909830 0.618810 -0.589739
O2    O     O_R   0.409820 0.090170 0.618810 -0.589429
O3    O     O_R   0.909820 0.409830 0.618810 -0.589577
O4    O     O_R   0.909820 0.590170 0.618810 -0.589615
O5    O     O_R   0.409840 0.909830 0.381240 -0.529399
O6    O     O_R   0.409840 0.090170 0.381240 -0.529504
O7    O     O_R   0.909840 0.409830 0.381240 -0.529379
O8    O     O_R   0.909840 0.590170 0.381240 -0.529474
O9    O     O_R   0.590170 0.090170 0.618760 -0.616873
O10   O     O_R   0.590170 0.909830 0.618760 -0.616816
O11   O     O_R   0.090170 0.590170 0.618760 -0.616753
O12   O     O_R   0.090170 0.409830 0.618760 -0.617005
O13   O     O_R   0.590190 0.090180 0.381190 -0.604667
O14   O     O_R   0.590190 0.909820 0.381190 -0.604688
O15   O     O_R   0.090190 0.590180 0.381190 -0.604705
O16   O     O_R   0.090190 0.409820 0.381190 -0.604651
F1    F     F_    0.344248 0.000002 0.140396 -0.662169
F2    F     F_    0.844248 0.499881 0.140396 -0.662129

loop_
_geom_bond_atom_site_label_1
_geom_bond_atom_site_label_2
_ccdc_geom_bond_type
C34   O12   A    
Cu2   Cu4   S    
C18   C28   A    
C58   C62   A    
C40   C60   A    
C47   H21   S    
C13   C32   S    
C14   C31   S    
C1    C62   S    
C26   N4    A    
C53   C59   A    
C25   N3    A    
C54   C60   A    
C3    C64   S    
C33   O11   A    
C37   H11   S    
C4    C63   S    
C2    O6    A    
C50   C54   A    
C4    O8    A    
C45   H19   S    
Cu2   N4    S    
C38   C42   A    
C20   C22   A    
C6    C12   A    
C20   H34   S    
C41   H15   S    
C21   H5    S    
C29   N1    A    
C18   C20   A    
C6    H2    S    
Cu1   N3    S    
C9    C13   A    
C5    H1    S    
C38   C58   A    
C11   C15   A    
C12   C16   A    
Cu1   Cu3   S    
Cu2   O11   S    
C52   H26   S    
C10   H28   S    
Cu3   O14   S    
C9    H27   S    
C15   C34   S    
C46   H20   S    
C2    C61   S    
Cu4   O7    S    
C34   O16   A    
C48   H22   S    
C33   O15   A    
Cu1   O9    S    
C18   H32   S    
C49   H23   S    
C44   H18   S    
C31   O9    A    
C44   C46   A    
C46   C50   A    
C13   C53   A    
C8    H4    S    
C36   N4    A    
C43   H17   S    
C40   H14   S    
C42   H16   S    
C39   H13   S    
C10   C14   A    
Cu4   O16   S    
C24   H8    S    
C39   C43   A    
Cu3   N1    S    
C35   H9    S    
C32   O10   A    
C60   C64   A    
C17   C27   A    
C16   C56   A    
C35   N3    A    
C16   C33   S    
C43   C45   A    
C28   N2    A    
C45   C49   A    
C39   C59   A    
C41   C47   A    
C5    C61   A    
C42   C48   A    
Cu2   O4    S    
C57   C61   A    
C17   H31   S    
C7    C63   A    
C8    C64   A    
Cu3   O5    S    
C14   C54   A    
C30   F2    S    
C21   C23   A    
C3    O7    A    
Cu1   O10   S    
C22   C24   A    
C22   H6    S    
C40   C44   A    
C50   H24   S    
C7    C9    A    
C4    O4    A    
Cu1   O2    S    
C19   C21   A    
C26   C28   A    
Cu4   N2    S    
C23   H7    S    
Cu4   O15   S    
C47   C51   A    
C5    C11   A    
C25   C27   A    
C29   C35   A    
C59   C63   A    
C51   H25   S    
C30   C36   A    
C11   H29   S    
C6    C62   A    
C55   C57   A    
C36   H10   S    
C1    O5    A    
C7    H3    S    
C19   H33   S    
C24   C26   A    
Cu4   O8    S    
C38   H12   S    
C3    O3    A    
C49   C53   A    
C29   F1    S    
C2    O2    A    
C17   C19   A    
C56   C58   A    
C51   C55   A    
C23   C25   A    
Cu2   O3    S    
C37   C41   A    
C1    O1    A    
Cu3   O6    S    
C48   C52   A    
C32   O14   A    
C8    C10   A    
Cu2   O12   S    
C30   N2    A    
C12   H30   S    
C31   O13   A    
Cu3   O13   S    
C27   N1    A    
Cu1   O1    S    
C37   C57   A    
C52   C56   A    
C15   C55   A    
