data_mof_unit_24827.cif
_audit_creation_date              2012-12-10T16:52:10-0500
_audit_creation_method            fapswitch 2.2
_symmetry_space_group_name_H-M    P1
_symmetry_Int_Tables_number       1
_space_group_crystal_system       triclinic
_cell_length_a                    7.857845
_cell_length_b                    8.535769
_cell_length_c                    14.865142
_cell_angle_alpha                 92.627628
_cell_angle_beta                  85.074601
_cell_angle_gamma                 93.486049
_cell_volume                      990.698460268

loop_
_atom_site_label
_atom_site_type_symbol
_atom_type_description
_atom_site_fract_x
_atom_site_fract_y
_atom_site_fract_z
_atom_type_partial_charge
C1    C     C_R   0.545230 0.794240 0.497200 0.963422
C2    C     C_R   0.536533 0.649268 0.815817 0.125351
C3    C     C_R   0.495484 0.493063 0.232170 -0.090088
C4    C     C_R   0.504516 0.506935 0.767830 -0.090087
C5    C     C_R   0.531987 0.633743 0.190059 -0.226022
C6    C     C_R   0.468018 0.366254 0.809940 -0.226022
C7    C     C_R   0.541675 0.635380 0.097226 0.102543
C8    C     C_R   0.458331 0.364617 0.902773 0.102544
C9    C     C_R   0.496700 0.497358 0.047029 0.015032
C10   C     C_R   0.503305 0.502638 0.952970 0.015031
C11   C     C_R   0.445907 0.354580 0.090937 0.018927
C12   C     C_R   0.454770 0.205760 0.502801 0.963422
C13   C     C_R   0.554095 0.645416 0.909062 0.018929
C14   C     C_R   0.603207 0.771728 0.054445 -0.182448
C15   C     C_R   0.396800 0.228268 0.945554 -0.182448
C16   C     C_R   0.617565 0.776283 0.960947 0.190275
C17   C     C_R   0.382438 0.223714 0.039052 0.190274
C18   C     C_2   0.569058 0.957811 0.495751 -0.315760
C19   C     C_2   0.430942 0.042189 0.504251 -0.315759
C20   C     C_R   0.501348 0.502907 0.672543 0.906338
C21   C     C_R   0.498652 0.497093 0.327457 0.906340
C22   C     C_R   0.463464 0.350730 0.184183 0.125351
H1    H     H_    0.561807 0.740311 0.229823 0.165982
H2    H     H_    0.438199 0.259686 0.770175 0.165982
H3    H     H_    0.649520 0.872908 0.093977 0.197183
H4    H     H_    0.350488 0.127088 0.906021 0.197186
H5    H     H_    0.699760 0.008199 0.487909 0.201373
H6    H     H_    0.300239 0.991801 0.512094 0.201374
I1    I     I_    0.502416 0.139046 0.250653 -0.319492
I2    I     I_    0.497561 0.860950 0.749353 -0.319495
I3    I     I_    0.782745 0.966410 0.911347 -0.264604
I4    I     I_    0.217252 0.033587 0.088648 -0.264602
I5    I     I_    0.037399 0.286901 0.382300 -0.143162
I6    I     I_    0.962601 0.713100 0.617700 -0.143162
N1    N     N_2   0.950330 0.457950 0.475660 0.018340
N2    N     N_2   0.049670 0.542050 0.524340 0.018340
O1    O     O_R   0.389250 0.738570 0.505970 -0.606891
O2    O     O_R   0.610750 0.261430 0.494030 -0.606892
O3    O     O_R   0.678390 0.711620 0.490370 -0.610978
O4    O     O_R   0.321610 0.288380 0.509630 -0.610978
O5    O     O_R   0.355420 0.513510 0.639950 -0.595988
O6    O     O_R   0.644580 0.486490 0.360050 -0.595988
O7    O     O_R   0.644560 0.486560 0.624350 -0.601229
O8    O     O_R   0.355440 0.513440 0.375650 -0.601228
Zn1   Zn    Zn3+2 0.306940 0.517990 0.510420 1.051894
Zn2   Zn    Zn3+2 0.693060 0.482010 0.489580 1.051893

loop_
_geom_bond_atom_site_label_1
_geom_bond_atom_site_label_2
_ccdc_geom_bond_type
C12   O4    A    
C2    C4    A    
C15   C17   A    
C22   I1    S    
C21   O8    A    
C5    C7    A    
C9    C10   A    
C11   C22   A    
N1    N2    D    
C5    H1    S    
C1    O1    A    
C2    I2    S    
C6    H2    S    
C20   O5    A    
N2    Zn1   S    
C16   I3    S    
C19   H6    S    
C9    C11   A    
C1    C18   S    
O3    Zn2   S    
C12   C19   S    
C8    C10   A    
I5    N1    S    
C8    C15   A    
I6    N2    S    
C14   H3    S    
C12   O2    A    
O4    Zn1   S    
C17   I4    S    
O7    Zn2   S    
C14   C16   A    
O2    Zn2   S    
C3    C21   S    
C1    O3    A    
O1    Zn1   S    
C21   O6    A    
C4    C20   S    
C20   O7    A    
O8    Zn1   S    
C4    C6    A    
C18   C19   D    
O6    Zn2   S    
C13   C16   A    
C7    C9    A    
C2    C13   A    
O5    Zn1   S    
C11   C17   A    
C15   H4    S    
C6    C8    A    
C3    C5    A    
N1    Zn2   S    
C7    C14   A    
C18   H5    S    
C3    C22   A    
C10   C13   A    
