data_mof_unit_67312.cif
_audit_creation_date              2013-03-05T16:05:14-0500
_audit_creation_method            fapswitch 2.2
_symmetry_space_group_name_H-M    P1
_symmetry_Int_Tables_number       1
_space_group_crystal_system       triclinic
_cell_length_a                    8.342151
_cell_length_b                    14.998023
_cell_length_c                    15.2534
_cell_angle_alpha                 98.138404
_cell_angle_beta                  98.195643
_cell_angle_gamma                 98.347576
_cell_volume                      1843.10513936

loop_
_atom_site_label
_atom_site_type_symbol
_atom_site_description
_atom_site_fract_x
_atom_site_fract_y
_atom_site_fract_z
_atom_type_partial_charge
P1    P     P_3+3 0.996570 0.418570 0.288410 0.488100
O1    O     O_2   0.826460 0.445380 0.275370 -0.409056
O2    O     O_3   0.098920 0.448470 0.388920 -0.301949
O3    O     O_3   0.628660 0.613390 0.338240 -0.264878
O4    O     O_2   0.699931 0.548892 0.178799 -0.416096
O5    O     O_3   0.984787 0.298460 0.270714 -0.590416
O6    O     O_3   0.643343 0.715015 0.195760 -0.545673
H1    H     H_    0.563415 0.788682 0.301050 0.096683
C1    C     C_3   0.563295 0.862604 0.187995 -0.072475
H2    H     H_    0.694082 0.895931 0.209862 0.193414
P2    P     P_3+3 0.693070 0.712070 0.580610 0.511386
P3    P     P_3+3 0.109971 0.780241 0.397423 0.466395
O7    O     O_2   0.863170 0.725020 0.553760 -0.402128
O8    O     O_3   0.060910 0.661460 0.386100 -0.350139
O9    O     O_2   0.985030 0.822652 0.448869 -0.404041
O10   O     O_3   0.726599 0.737467 0.698205 -0.512928
O11   O     O_3   0.066310 0.808311 0.289850 -0.536856
C2    C     C_3   0.056604 0.729661 0.225784 0.528419
H3    H     H_    0.943233 0.681095 0.225779 0.171249
H4    H     H_    0.163740 0.695157 0.238811 0.056408
C3    C     C_3   0.051928 0.756126 0.133473 -1.070751
H5    H     H_    0.030814 0.694151 0.081160 0.242443
H6    H     H_    0.951448 0.795403 0.121490 0.282685
C4    C     C_3   0.284800 0.739375 0.665436 0.259546
H7    H     H_    0.399317 0.715194 0.652277 0.108909
H8    H     H_    0.187150 0.720484 0.605220 0.065986
C5    C     C_3   0.317357 0.843804 0.691250 -0.103483
H9    H     H_    0.333249 0.876481 0.631617 0.058245
H10   H     H_    0.209234 0.866961 0.716124 0.105929
Ba1   Ba    Ba6+2 0.844900 0.542440 0.457470 1.633485
C6    C     C_3   0.826823 0.246075 0.241351 0.430692
H11   H     H_    0.729448 0.287499 0.250051 0.082795
C7    C     C_3   0.804765 0.205464 0.140026 -0.154549
H12   H     H_    0.861847 0.257566 0.103780 0.107409
H13   H     H_    0.672143 0.189315 0.112116 0.113093
C8    C     C_3   0.829290 0.681962 0.735454 0.346965
H14   H     H_    0.928287 0.672159 0.696172 0.082119
H15   H     H_    0.754822 0.614551 0.736267 0.078060
C9    C     C_3   0.909173 0.726527 0.831928 -0.373028
H16   H     H_    0.025985 0.701625 0.850306 0.169812
H17   H     H_    0.828308 0.705849 0.879583 0.218351
P4    P     P_3+3 0.193140 0.581510 0.711600 0.509272
O12   O     O_2   0.363260 0.554650 0.724690 -0.306276
O13   O     O_3   0.090800 0.551610 0.611090 -0.411649
O14   O     O_3   0.561050 0.386690 0.661770 -0.388652
O15   O     O_3   0.231685 0.701265 0.736266 -0.533697
P5    P     P_3+3 0.078019 0.218682 0.594233 0.427681
O16   O     O_3   0.598950 0.388690 0.448890 -0.342931
O17   O     O_3   0.128800 0.338610 0.613910 -0.379694
O18   O     O_2   0.219397 0.176259 0.558363 -0.425648
O19   O     O_3   0.073433 0.185005 0.698792 -0.575462
Ba2   Ba    Ba6+2 0.344940 0.457640 0.542540 1.613828
P6    P     P_3+3 0.581087 0.605821 0.220408 0.491660
C10   C     C_3   0.537710 0.772991 0.226316 0.229935
H18   H     H_    0.407458 0.740822 0.203901 0.051353
O20   O     O_3   0.590770 0.611390 0.551120 -0.349170
C11   C     C_3   0.397298 0.323092 0.261950 0.366720
H19   H     H_    0.301107 0.345668 0.298546 0.136276
H20   H     H_    0.501097 0.380063 0.267296 0.120956
C12   C     C_3   0.315465 0.292929 0.165004 -0.476955
H21   H     H_    0.218629 0.233181 0.162576 0.237367
H22   H     H_    0.254856 0.347830 0.142192 0.152954
P7    P     P_3+3 0.497150 0.275605 0.412153 0.441886
O21   O     O_2   0.326540 0.275010 0.446300 -0.356860
O22   O     O_3   0.452375 0.249042 0.295180 -0.617569
H23   H     H_    0.169223 0.799499 0.129710 0.262706
C13   C     C_3   0.221492 0.223942 0.755790 0.348401
H24   H     H_    0.318503 0.186006 0.738041 0.118609
H25   H     H_    0.259746 0.297466 0.751637 0.127608
C14   C     C_3   0.200563 0.217925 0.852435 -0.066289
H26   H     H_    0.321552 0.246394 0.896269 0.167804
P8    P     P_3+3 0.613926 0.394865 0.778771 0.417660
C15   C     C_3   0.678872 0.228059 0.760660 0.589958
H27   H     H_    0.792795 0.269526 0.748131 0.046684
O23   O     O_2   0.484081 0.442132 0.821719 -0.375839
O24   O     O_3   0.579351 0.283344 0.803931 -0.604790
H28   H     H_    0.830508 0.127491 0.794566 0.255710
C16   C     C_3   0.737415 0.163262 0.823332 -0.844830
H29   H     H_    0.637664 0.110730 0.833703 0.257622
H30   H     H_    0.788817 0.202169 0.891106 0.250990
C17   C     C_R   0.360706 0.553422 0.172400 0.081631
H31   H     H_    0.503626 0.620712 0.045132 0.201154
C18   C     C_R   0.103697 0.476056 0.205123 0.129692
C19   C     C_R   0.928213 0.483312 0.768964 -0.518394
C20   C     C_R   0.825222 0.454603 0.827239 0.271619
C21   C     C_R   0.884059 0.466730 0.919829 -0.259753
C22   C     C_R   0.049533 0.506685 0.956375 0.056555
C23   C     C_R   0.150247 0.543911 0.896061 -0.180074
C24   C     C_R   0.118343 0.510284 0.050681 0.068096
C25   C     C_R   0.287344 0.548864 0.081364 -0.091668
C26   C     C_R   0.378356 0.586983 0.022202 -0.288779
C27   C     C_R   0.310236 0.590745 0.934448 0.390331
C28   C     C_R   0.029738 0.471790 0.114517 -0.343172
C29   C     C_R   0.264391 0.520968 0.232766 -0.015982
C30   C     C_R   0.086869 0.531386 0.800295 0.215094
H32   H     H_    0.904399 0.437280 0.095584 0.164828
H33   H     H_    0.880347 0.471811 0.697773 0.169315
H34   H     H_    0.799143 0.441908 0.961440 0.148726
C31   C     C_R   0.326266 0.827293 0.451111 0.188564
H35   H     H_    0.355804 0.702824 0.499805 0.185847
H36   H     H_    0.182282 0.959972 0.386294 0.194371
C32   C     C_R   0.583456 0.794069 0.525556 0.321286
C33   C     C_R   0.773993 0.226945 0.499034 -0.442448
C34   C     C_R   0.874862 0.168745 0.529826 0.306555
C35   C     C_R   0.814217 0.075184 0.522086 -0.294313
C36   C     C_R   0.648459 0.038514 0.483078 0.057858
C37   C     C_R   0.548428 0.099463 0.448706 0.004441
C38   C     C_R   0.574705 0.945755 0.483339 0.010312
C39   C     C_R   0.403454 0.916835 0.448157 -0.029681
C40   C     C_R   0.311955 0.978333 0.412355 -0.176164
C41   C     C_R   0.383555 0.066829 0.410931 -0.170753
C42   C     C_R   0.662262 0.882181 0.521705 -0.237095
C43   C     C_R   0.416806 0.769202 0.492550 -0.421202
C44   C     C_R   0.612811 0.193372 0.457992 0.200936
H37   H     H_    0.790154 0.899576 0.551141 0.163254
H38   H     H_    0.822327 0.299129 0.506702 0.172234
H39   H     H_    0.897513 0.034011 0.549954 0.161614
H40   H     H_    0.304856 0.109792 0.381939 0.178186
N1    N     N_R   0.463697 0.874726 0.759671 0.296780
O25   O     O_R   0.606264 0.894490 0.735560 -0.398352
O26   O     O_R   0.448542 0.900682 0.842631 -0.364235
N2    N     N_2   0.803672 0.174000 0.295320 -0.120542
H41   H     H_    0.694494 0.128754 0.276657 0.169063
C45   C     C_3   0.945970 0.134922 0.327916 -0.705818
H42   H     H_    0.905842 0.070787 0.353017 0.206844
H43   H     H_    0.026249 0.184121 0.383306 0.253906
H44   H     H_    0.020219 0.119111 0.274835 0.263482
N3    N     N_R   0.871080 0.120749 0.122306 0.269633
O27   O     O_R   0.987674 0.116152 0.074774 -0.456309
O28   O     O_R   0.792412 0.045054 0.138321 -0.439797
N4    N     N_2   0.940627 0.825425 0.841988 -0.025272
H45   H     H_    0.993013 0.850601 0.791324 0.215373
C46   C     C_3   0.020173 0.871610 0.930452 -0.763832
H46   H     H_    0.152224 0.865093 0.940962 0.263577
H47   H     H_    0.961474 0.842037 0.982657 0.241637
H48   H     H_    0.008172 0.944883 0.937706 0.264681
N5    N     N_2   0.460460 0.923373 0.225992 -0.126024
H49   H     H_    0.511935 0.954167 0.290405 0.173618
C47   C     C_3   0.395150 0.987099 0.173038 -0.735918
H50   H     H_    0.323454 0.029284 0.212977 0.240567
H51   H     H_    0.310633 0.949943 0.111717 0.247716
H52   H     H_    0.495656 0.033229 0.153829 0.266614
N6    N     N_2   0.429962 0.268022 0.106664 -0.088872
H53   H     H_    0.375120 0.218126 0.053351 0.213175
C48   C     C_3   0.532407 0.342146 0.079327 -0.903754
H54   H     H_    0.625164 0.378235 0.136832 0.279524
H55   H     H_    0.458802 0.391022 0.052479 0.265326
H56   H     H_    0.598293 0.314403 0.026034 0.236044
N7    N     N_2   0.523176 0.844636 0.090326 -0.075470
H57   H     H_    0.413185 0.802140 0.064147 0.202330
C49   C     C_3   0.656110 0.831592 0.041162 -0.586601
H58   H     H_    0.621789 0.842301 0.971140 0.305528
H59   H     H_    0.683422 0.761381 0.040445 0.225626
H60   H     H_    0.767336 0.882339 0.070759 0.240606
N8    N     N_2   0.078900 0.272880 0.876663 -0.099849
H61   H     H_    0.070663 0.328456 0.844306 0.187889
C50   C     C_3   0.083364 0.296791 0.971464 -0.964710
H62   H     H_    0.967252 0.319215 0.984199 0.250228
H63   H     H_    0.188465 0.351950 0.998040 0.265858
H64   H     H_    0.097472 0.237859 0.005484 0.301250
N9    N     N_2   0.147178 0.122701 0.861412 -0.088483
H65   H     H_    0.051292 0.109907 0.896391 0.238459
C51   C     C_3   0.275492 0.070025 0.882583 -0.828083
H66   H     H_    0.224426 0.996100 0.861693 0.272621
H67   H     H_    0.325063 0.083478 0.956068 0.245554
H68   H     H_    0.377427 0.087739 0.846257 0.245695
N10   N     N_2   0.589240 0.179105 0.673738 -0.127751
H69   H     H_    0.525230 0.217697 0.635364 0.213417
C52   C     C_3   0.515683 0.083295 0.662120 -0.856641
H70   H     H_    0.440910 0.068606 0.713685 0.242750
H71   H     H_    0.613431 0.040487 0.663781 0.288060
H72   H     H_    0.430019 0.063507 0.597736 0.267071
N11   N     N_R   0.320898 0.549582 0.325517 0.250517
O29   O     O_R   0.341767 0.636192 0.353672 -0.468805
O30   O     O_R   0.401051 0.499264 0.371950 -0.350415
N12   N     N_R   0.398353 0.655962 0.892369 0.252520
O31   O     O_R   0.359376 0.737107 0.900244 -0.400199
O32   O     O_R   0.545962 0.646733 0.879262 -0.418288

loop_
_geom_bond_atom_site_label_1
_geom_bond_atom_site_label_2
_geom_bond_distance
_ccdc_geom_bond_type
C22   C23   1.446930 A    
P7    O22   1.745650 S    
C50   H62   1.104002 S    
O3    P6    1.768218 S    
C5    H10   1.108766 S    
C2    C3    1.512859 S    
C47   H51   1.110333 S    
C52   H70   1.097863 S    
C32   C42   1.400976 A    
C51   H66   1.111952 S    
C4    C5    1.534039 S    
C15   N10   1.462324 S    
Ba1   O13   2.859022 S    
N3    O27   1.297229 A    
P8    C20   1.854355 S    
C11   H19   1.106005 S    
N10   C52   1.453848 S    
N11   O29   1.287312 A    
C27   N12   1.418651 S    
N5    C47   1.451561 S    
C1    N7    1.456745 S    
C36   C38   1.437960 A    
C41   H40   1.078197 S    
C19   H33   1.082456 S    
Ba1   O16   2.829921 S    
C8    H14   1.101836 S    
C51   H67   1.117011 S    
C4    H8    1.110626 S    
C2    H3    1.106779 S    
N7    C49   1.445330 S    
C12   N6    1.447610 S    
C48   H54   1.100718 S    
C3    H23   1.107112 S    
C47   H52   1.107476 S    
C16   H30   1.106005 S    
O12   Ba2   2.920555 S    
C11   H20   1.109888 S    
N8    C50   1.433510 S    
C36   C37   1.428038 A    
N6    H53   1.026077 S    
C31   C39   1.412269 A    
C38   C39   1.432694 A    
P6    C17   1.888779 S    
P1    O1    1.524104 D    
C15   H27   1.113692 S    
C49   H60   1.105557 S    
C40   C41   1.378613 A    
P3    C31   1.862724 S    
C48   H55   1.107279 S    
P7    C44   1.827094 S    
C1    N5    1.456619 S    
C23   C27   1.416361 A    
P2    Ba1   3.444667 S    
P3    O11   1.752715 S    
C46   H48   1.109339 S    
C49   H58   1.106016 S    
C6    C7    1.553514 S    
C14   H26   1.117899 S    
C1    H2    1.114524 S    
P8    O24   1.761054 S    
O13   Ba2   2.942229 S    
N12   O32   1.298945 A    
O5    C6    1.409204 S    
C23   C30   1.456677 A    
C50   H63   1.100248 S    
C3    H5    1.110905 S    
O14   P8    1.758553 S    
C52   H71   1.108383 S    
C35   H39   1.076816 S    
P4    O13   1.612893 S    
O8    Ba1   2.791821 S    
P8    O23   1.548807 D    
C34   C35   1.403175 A    
N9    C51   1.446873 S    
N9    H65   1.033168 S    
P5    O18   1.548700 D    
N1    O26   1.299719 A    
N8    H61   1.032740 S    
P4    C30   1.902051 S    
O7    Ba1   2.890540 S    
C33   C44   1.388377 A    
C19   C20   1.390106 A    
P5    O17   1.759105 S    
Ba2   O21   2.890740 S    
H1    C10   1.113799 S    
C26   C27   1.389832 A    
C21   C22   1.421693 A    
O16   P7    1.757507 S    
P5    O19   1.743571 S    
O14   Ba2   2.803602 S    
N4    C46   1.444846 S    
H36   C40   1.078865 S    
H28   C16   1.111271 S    
C18   C29   1.387372 A    
Ba1   O20   2.947207 S    
C7    N3    1.463861 S    
H31   C26   1.078193 S    
C14   N8    1.452445 S    
C12   H21   1.108533 S    
P1    O2    1.612923 S    
C19   C30   1.394643 A    
O2    Ba1   2.941386 S    
C13   H24   1.097498 S    
C37   C44   1.412239 A    
P2    O10   1.753089 S    
C6    H11   1.103336 S    
P3    O9    1.546318 D    
C15   C16   1.537713 S    
O17   Ba2   2.792571 S    
C51   H68   1.100509 S    
C7    H12   1.110131 S    
O19   C13   1.401115 S    
C4    H7    1.104123 S    
N1    O25   1.300302 A    
C20   C21   1.404408 A    
N11   O30   1.296560 A    
C45   H44   1.107570 S    
C17   C25   1.423420 A    
N12   O31   1.298425 A    
P3    O8    1.747005 S    
C28   H32   1.076575 S    
C3    H6    1.101457 S    
P4    O15   1.754254 S    
C46   H46   1.110907 S    
C15   O24   1.419010 S    
P4    O12   1.524523 D    
O6    P6    1.753888 S    
N2    C45   1.454677 S    
N4    H45   1.030420 S    
C14   N9    1.464516 S    
N10   H69   1.029226 S    
C48   H56   1.110871 S    
C45   H43   1.107020 S    
N5    H49   1.027947 S    
O4    P6    1.544831 D    
N6    C48   1.448149 S    
Ba1   Ba2   4.600705 S    
C10   H18   1.107024 S    
P5    C34   1.829416 S    
P1    O5    1.769452 S    
C16   H29   1.104839 S    
C37   C41   1.400721 A    
C8    C9    1.539135 S    
H35   C43   1.078179 S    
C6    N2    1.456092 S    
C11   O22   1.393770 S    
C11   C12   1.513444 S    
N3    O28   1.298897 A    
C31   C43   1.392828 A    
C47   H50   1.110753 S    
C1    C10   1.538933 S    
C5    N1    1.459431 S    
C50   H64   1.098642 S    
P1    C18   1.888394 S    
C35   C36   1.421452 A    
O11   C2    1.405809 S    
O1    Ba1   2.920001 S    
C13   C14   1.522578 S    
C4    O15   1.388557 S    
C22   C24   1.461259 A    
C33   H38   1.082714 S    
N2    H41   1.031011 S    
C32   C43   1.386370 A    
N7    H57   1.030184 S    
O2    Ba2   2.859616 S    
C12   H22   1.098433 S    
C17   C29   1.398076 A    
P2    O7    1.525519 D    
C25   C26   1.390342 A    
C9    N4    1.450365 S    
C8    H15   1.109791 S    
P1    Ba1   3.458111 S    
C7    H13   1.105730 S    
P2    C32   1.858447 S    
C2    H4    1.104005 S    
C49   H59   1.108141 S    
C24   C28   1.438138 A    
C21   H34   1.077856 S    
O3    Ba1   2.804261 S    
C29   N11   1.409670 S    
P7    O21   1.583035 D    
C9    H16   1.106837 S    
C38   C42   1.422489 A    
O16   Ba2   2.946365 S    
C9    H17   1.105673 S    
C33   C34   1.381034 A    
C46   H47   1.103962 S    
C52   H72   1.104098 S    
O6    C10   1.405228 S    
C13   H25   1.115889 S    
C24   C25   1.428221 A    
C39   C40   1.399911 A    
C42   H37   1.075808 S    
O10   C8    1.397109 S    
P2    O20   1.592110 S    
Ba2   O20   2.829322 S    
P4    Ba2   3.458709 S    
C45   H42   1.109605 S    
C5    H9    1.107651 S    
C18   C28   1.419580 A    
