data_mof_unit_7970.cif
_audit_creation_date              2012-12-11T14:01:31-0500
_audit_creation_method            fapswitch 2.2
_symmetry_space_group_name_H-M    P1
_symmetry_Int_Tables_number       1
_space_group_crystal_system       monoclinic
_cell_length_a                    19.016515
_cell_length_b                    10.964137
_cell_length_c                    18.780489
_cell_angle_alpha                 90.0
_cell_angle_beta                  89.835144
_cell_angle_gamma                 90.0
_cell_volume                      3915.70965778

loop_
_atom_site_label
_atom_site_type_symbol
_atom_type_description
_atom_site_fract_x
_atom_site_fract_y
_atom_site_fract_z
_atom_type_partial_charge
C1    C     C_R   0.272408 0.042323 0.853541 0.556974
C2    C     C_R   0.727591 0.042320 0.146458 0.557054
C3    C     C_R   0.772409 0.542320 0.853542 0.557054
C4    C     C_R   0.227592 0.542323 0.146459 0.556974
C5    C     C_R   0.487062 0.055948 0.073081 -0.084718
C6    C     C_R   0.512894 0.055948 0.926953 -0.084790
C7    C     C_R   0.987106 0.555948 0.073047 -0.084791
C8    C     C_R   0.012938 0.555948 0.926919 -0.084718
C9    C     C_R   0.992459 0.665981 0.036221 -0.125859
C10   C     C_R   0.007578 0.665981 0.963743 -0.125922
C11   C     C_R   0.492421 0.165981 0.036257 -0.125922
C12   C     C_R   0.507540 0.165981 0.963779 -0.125859
C13   C     C_2   0.248878 0.579829 0.920576 -0.112012
C14   C     C_2   0.751122 0.579829 0.079423 -0.111681
C15   C     C_2   0.748878 0.079829 0.920577 -0.111682
C16   C     C_2   0.251122 0.079829 0.079424 -0.112012
C17   C     C_2   0.250190 0.586692 0.077068 -0.106427
C18   C     C_2   0.749811 0.586689 0.922933 -0.106092
C19   C     C_2   0.750189 0.086689 0.077067 -0.106093
C20   C     C_2   0.249810 0.086692 0.922931 -0.106426
C21   C     C_2   0.294734 0.520649 0.037054 -0.165571
C22   C     C_2   0.705267 0.520647 0.962947 -0.165383
C23   C     C_2   0.794733 0.020647 0.037053 -0.165383
C24   C     C_2   0.205266 0.020650 0.962946 -0.165571
C25   C     C_2   0.303555 0.545496 0.961029 -0.161602
C26   C     C_2   0.696445 0.545496 0.038971 -0.161563
C27   C     C_2   0.803555 0.045496 0.961029 -0.161563
C28   C     C_2   0.196445 0.045496 0.038971 -0.161602
C29   C     C_2   0.485525 0.829176 0.571220 -0.099188
C30   C     C_2   0.487221 0.839661 0.415312 -0.107109
C31   C     C_2   0.012779 0.339661 0.584688 -0.107109
C32   C     C_2   0.014475 0.329176 0.428780 -0.099188
C33   C     C_2   0.467454 0.741939 0.452200 -0.144384
C34   C     C_2   0.452755 0.749584 0.527782 -0.131054
C35   C     C_2   0.047245 0.249584 0.472218 -0.131054
C36   C     C_2   0.032546 0.241939 0.547800 -0.144384
C37   C     C_2   0.243363 0.557719 0.585666 0.041507
C38   C     C_2   0.756663 0.557750 0.414327 0.045186
C39   C     C_2   0.743337 0.057750 0.585673 0.045186
C40   C     C_2   0.256637 0.057719 0.414334 0.041507
C41   C     C_2   0.238427 0.573401 0.426863 -0.017993
C42   C     C_2   0.761588 0.573396 0.573145 -0.017086
C43   C     C_2   0.738412 0.073396 0.426855 -0.017086
C44   C     C_2   0.261573 0.073401 0.573137 -0.017993
C45   C     C_R   0.471565 0.822243 0.853094 0.537445
C46   C     C_R   0.528421 0.822244 0.146916 0.534485
C47   C     C_R   0.971579 0.322244 0.853084 0.534484
C48   C     C_R   0.028435 0.322243 0.146906 0.537446
C49   C     C_2   0.182728 0.565528 0.470945 -0.094960
C50   C     C_2   0.817303 0.565794 0.529074 -0.097110
C51   C     C_2   0.682697 0.065794 0.470926 -0.097110
C52   C     C_2   0.317272 0.065528 0.529055 -0.094959
C53   C     C_2   0.188388 0.593017 0.545895 -0.151344
C54   C     C_2   0.811607 0.593192 0.454114 -0.154124
C55   C     C_2   0.688393 0.093192 0.545886 -0.154124
C56   C     C_2   0.311612 0.093017 0.454105 -0.151344
C57   C     C_R   0.260890 0.636144 0.851440 0.549121
C58   C     C_R   0.739110 0.636146 0.148559 0.547905
C59   C     C_R   0.760890 0.136146 0.851441 0.547905
C60   C     C_R   0.239110 0.136144 0.148560 0.549121
C61   C     C_R   0.273637 0.043529 0.646761 0.552454
C62   C     C_R   0.726353 0.043517 0.353239 0.554095
C63   C     C_R   0.773647 0.543517 0.646761 0.554096
C64   C     C_R   0.226363 0.543529 0.353239 0.552453
C65   C     C_R   0.467841 0.823298 0.646009 0.546160
C66   C     C_R   0.527564 0.824617 0.350592 0.552876
C67   C     C_R   0.972436 0.324617 0.649408 0.552876
C68   C     C_R   0.032159 0.323298 0.353991 0.546160
C69   C     C_R   0.259835 0.633172 0.647477 0.545936
C70   C     C_R   0.740183 0.633139 0.352497 0.551824
C71   C     C_R   0.759817 0.133139 0.647503 0.551824
C72   C     C_R   0.240165 0.133172 0.352523 0.545936
C73   C     C_R   0.500487 0.830590 0.074559 0.001508
C74   C     C_R   0.499454 0.830585 0.925471 0.000759
C75   C     C_R   0.000546 0.330585 0.074528 0.000760
C76   C     C_R   0.999513 0.330590 0.925441 0.001508
C77   C     C_R   0.496740 0.943382 0.037585 0.025378
C78   C     C_R   0.503206 0.943381 0.962445 0.024987
C79   C     C_R   0.996794 0.443381 0.037554 0.024987
C80   C     C_R   0.003260 0.443382 0.962415 0.025378
C81   C     C_R   0.500612 0.720999 0.963618 -0.152513
C82   C     C_R   0.499285 0.721002 0.036418 -0.152347
C83   C     C_R   0.000715 0.221002 0.963582 -0.152347
C84   C     C_R   0.999388 0.220999 0.036381 -0.152513
Cr1   Cr    Cr6+3 0.230530 0.836340 0.748870 1.026782
Cr2   Cr    Cr6+3 0.769470 0.836340 0.251130 1.032016
Cr3   Cr    Cr6+3 0.730530 0.336340 0.748870 1.032016
Cr4   Cr    Cr6+3 0.269470 0.336340 0.251130 1.026782
Cr5   Cr    Cr6+3 0.387420 0.989430 0.750820 1.023961
Cr6   Cr    Cr6+3 0.612580 0.989430 0.249180 1.022424
Cr7   Cr    Cr6+3 0.887420 0.489430 0.750820 1.022424
Cr8   Cr    Cr6+3 0.112580 0.489430 0.249180 1.023961
Cr9   Cr    Cr6+3 0.385640 0.677860 0.749230 1.056656
Cr10  Cr    Cr6+3 0.614360 0.677860 0.250770 1.059226
Cr11  Cr    Cr6+3 0.885640 0.177860 0.749230 1.059226
Cr12  Cr    Cr6+3 0.114360 0.177860 0.250770 1.056656
H1    H     H_    0.498885 0.633077 0.937307 0.137575
H2    H     H_    0.500992 0.633082 0.062734 0.137372
H3    H     H_    0.999009 0.133082 0.937266 0.137372
H4    H     H_    0.001116 0.133077 0.062693 0.137575
H5    H     H_    0.130040 0.548155 0.450999 0.141259
H6    H     H_    0.870022 0.548721 0.549035 0.138705
H7    H     H_    0.629978 0.048721 0.450965 0.138705
H8    H     H_    0.369960 0.048155 0.549001 0.141259
H9    H     H_    0.150717 0.660049 0.564980 0.152577
H10   H     H_    0.849242 0.660279 0.435021 0.154066
H11   H     H_    0.650758 0.160279 0.564979 0.154066
H12   H     H_    0.349283 0.160049 0.435020 0.152576
H13   H     H_    0.291366 0.590939 0.445897 0.110508
H14   H     H_    0.708634 0.590628 0.554093 0.122726
H15   H     H_    0.791366 0.090628 0.445907 0.122726
H16   H     H_    0.208633 0.090939 0.554103 0.110508
H17   H     H_    0.473729 0.060078 0.129028 0.130095
H18   H     H_    0.526232 0.060084 0.871008 0.130630
H19   H     H_    0.973768 0.560084 0.128992 0.130631
H20   H     H_    0.026271 0.560079 0.870972 0.130095
H21   H     H_    0.985849 0.751531 0.064232 0.108752
H22   H     H_    0.014182 0.751531 0.935730 0.108385
H23   H     H_    0.485818 0.251531 0.064270 0.108385
H24   H     H_    0.514151 0.251531 0.935768 0.108752
H25   H     H_    0.324181 0.445068 0.059555 0.152700
H26   H     H_    0.675820 0.445065 0.940446 0.152756
H27   H     H_    0.824180 0.945065 0.059554 0.152756
H28   H     H_    0.175819 0.945068 0.940445 0.152700
H29   H     H_    0.356287 0.538666 0.938984 0.152967
H30   H     H_    0.643712 0.538666 0.061016 0.152957
H31   H     H_    0.856288 0.038666 0.938984 0.152957
H32   H     H_    0.143713 0.038666 0.061016 0.152967
H33   H     H_    0.222497 0.664292 0.054520 0.113722
H34   H     H_    0.777504 0.664290 0.945480 0.113612
H35   H     H_    0.722496 0.164290 0.054519 0.113612
H36   H     H_    0.277503 0.164292 0.945479 0.113722
H37   H     H_    0.195990 0.583011 0.942647 0.112670
H38   H     H_    0.804010 0.583011 0.057352 0.112745
H39   H     H_    0.695990 0.083011 0.942648 0.112745
H40   H     H_    0.304010 0.083011 0.057353 0.112670
H41   H     H_    0.467930 0.651479 0.428543 0.167126
H42   H     H_    0.417766 0.680005 0.549042 0.186638
H43   H     H_    0.082234 0.180005 0.450958 0.186638
H44   H     H_    0.032070 0.151478 0.571457 0.167126
H45   H     H_    0.482691 0.930721 0.437776 0.095778
H46   H     H_    0.520459 0.900118 0.551762 0.088706
H47   H     H_    0.979541 0.400118 0.448238 0.088706
H48   H     H_    0.017309 0.430721 0.562224 0.095778
O1    O     O_R   0.215090 0.709860 0.828130 -0.524953
O2    O     O_R   0.784910 0.709860 0.171870 -0.525358
O3    O     O_R   0.715090 0.209860 0.828130 -0.525358
O4    O     O_R   0.284910 0.209860 0.171870 -0.524954
O5    O     O_R   0.445660 0.919250 0.676780 -0.507791
O6    O     O_R   0.554340 0.919250 0.323220 -0.511510
O7    O     O_R   0.945660 0.419250 0.676780 -0.511510
O8    O     O_R   0.054340 0.419250 0.323220 -0.507791
O9    O     O_R   0.456260 0.718170 0.670000 -0.495122
O10   O     O_R   0.543740 0.718170 0.330000 -0.492271
O11   O     O_R   0.956260 0.218170 0.670000 -0.492271
O12   O     O_R   0.043740 0.218170 0.330000 -0.495122
O13   O     O_R   0.320940 0.626760 0.674370 -0.456534
O14   O     O_R   0.679060 0.626760 0.325630 -0.445847
O15   O     O_R   0.820940 0.126760 0.674370 -0.445847
O16   O     O_R   0.179060 0.126760 0.325630 -0.456534
O17   O     O_3   0.334530 0.834540 0.749640 -0.254239
O18   O     O_3   0.665470 0.834540 0.250360 -0.252853
O19   O     O_3   0.834530 0.334540 0.749640 -0.252852
O20   O     O_3   0.165470 0.334540 0.250360 -0.254240
O21   O     O_R   0.236990 0.958390 0.823710 -0.500115
O22   O     O_R   0.763010 0.958390 0.176290 -0.499928
O23   O     O_R   0.736990 0.458390 0.823710 -0.499928
O24   O     O_R   0.263010 0.458390 0.176290 -0.500114
O25   O     O_R   0.332380 0.074750 0.830850 -0.508180
O26   O     O_R   0.667620 0.074750 0.169150 -0.508627
O27   O     O_R   0.832380 0.574750 0.830850 -0.508628
O28   O     O_R   0.167620 0.574750 0.169150 -0.508179
O29   O     O_R   0.445800 0.917770 0.825070 -0.507787
O30   O     O_R   0.554200 0.917770 0.174930 -0.509260
O31   O     O_R   0.945800 0.417770 0.825070 -0.509259
O32   O     O_R   0.054200 0.417770 0.174930 -0.507788
O33   O     O_R   0.456410 0.716580 0.829970 -0.523891
O34   O     O_R   0.543590 0.716580 0.170030 -0.526971
O35   O     O_R   0.956410 0.216580 0.829970 -0.526970
O36   O     O_R   0.043590 0.216580 0.170030 -0.523892
O37   O     O_R   0.321080 0.625290 0.822650 -0.495968
O38   O     O_R   0.678920 0.625290 0.177350 -0.497734
O39   O     O_R   0.821080 0.125290 0.822650 -0.497734
O40   O     O_R   0.178920 0.125290 0.177350 -0.495969
O41   O     O_R   0.214930 0.711450 0.668160 -0.526213
O42   O     O_R   0.785070 0.711450 0.331840 -0.527214
O43   O     O_R   0.714930 0.211450 0.668160 -0.527214
O44   O     O_R   0.285070 0.211450 0.331840 -0.526213
O45   O     O_R   0.236850 0.959870 0.675420 -0.489127
O46   O     O_R   0.763150 0.959870 0.324580 -0.485829
O47   O     O_R   0.736850 0.459870 0.675420 -0.485829
O48   O     O_R   0.263150 0.459870 0.324580 -0.489127
O49   O     O_R   0.332230 0.076350 0.670880 -0.515871
O50   O     O_R   0.667770 0.076350 0.329120 -0.516915
O51   O     O_R   0.832230 0.576350 0.670880 -0.516915
O52   O     O_R   0.167770 0.576350 0.329120 -0.515871
C85   C     C_2   0.288078 0.449819 0.566950 0.543444
O53   O     O_2   0.264187 0.367971 0.529922 -0.539418
O54   O     O_R   0.356618 0.439987 0.593097 -0.688619
H49   H     H_    0.380875 0.362267 0.577099 0.333420
C86   C     C_2   0.711959 0.449832 0.433043 0.550462
O55   O     O_2   0.735836 0.368033 0.470114 -0.539848
O56   O     O_R   0.643431 0.439949 0.406860 -0.676052
H50   H     H_    0.619208 0.362157 0.422794 0.331805
C87   C     C_2   0.788041 0.949832 0.566957 0.550462
O57   O     O_2   0.764163 0.868033 0.529886 -0.539847
O58   O     O_R   0.856569 0.939949 0.593140 -0.676052
H51   H     H_    0.880792 0.862157 0.577206 0.331805
C88   C     C_2   0.211922 0.949819 0.433050 0.543444
O59   O     O_2   0.235813 0.867971 0.470078 -0.539418
O60   O     O_R   0.143381 0.939987 0.406903 -0.688619
H52   H     H_    0.119125 0.862267 0.422901 0.333420

loop_
_geom_bond_atom_site_label_1
_geom_bond_atom_site_label_2
_ccdc_geom_bond_type
C16   C28   D    
C69   O41   A    
Cr3   O19   S    
O56   H50   S    
C38   C70   S    
C60   O40   A    
C37   C69   S    
C9    H21   S    
C86   O55   D    
C46   O34   A    
C35   C36   S    
Cr2   O22   S    
C53   H9    S    
Cr5   O29   S    
Cr6   O6    S    
C11   H23   S    
Cr10  O38   S    
C57   O37   A    
C81   C82   A    
C3    O23   A    
C62   O46   A    
C77   C78   A    
Cr8   O32   S    
C31   C67   S    
C50   C54   S    
C30   H45   S    
Cr3   O3    S    
Cr6   O18   S    
Cr11  O15   S    
C7    C79   A    
Cr1   O1    S    
C47   C76   S    
C5    C11   A    
C45   O29   A    
C31   C36   D    
C16   C60   S    
C49   C53   S    
C75   C84   A    
C6    C78   A    
C15   H39   S    
Cr1   O45   S    
C64   O52   A    
C24   H28   S    
Cr1   O17   S    
C3    C18   S    
C67   O11   A    
C26   H30   S    
C7    H19   S    
C31   H48   S    
C85   O54   S    
C25   H29   S    
C6    H18   S    
C32   H47   S    
C65   O9    A    
C35   H43   S    
C12   H24   S    
C27   H31   S    
C41   C49   D    
C39   C55   D    
O60   H52   S    
C33   H41   S    
C40   C56   D    
C38   C86   S    
Cr6   O50   S    
Cr8   O8    S    
C69   O13   A    
C46   O30   A    
Cr2   O18   S    
C37   C85   S    
C4    O28   A    
C9    C10   A    
Cr10  O18   S    
C51   C55   S    
C30   C33   D    
C45   O33   A    
Cr1   O41   S    
C32   C68   S    
C37   C53   D    
Cr8   O20   S    
Cr5   O5    S    
C28   H32   S    
O54   H49   S    
Cr10  O14   S    
C41   H13   S    
C61   O45   A    
C86   O56   S    
C48   C75   S    
Cr7   O19   S    
Cr9   O37   S    
Cr12  O40   S    
Cr2   O2    S    
C76   C83   A    
Cr5   O17   S    
C64   O48   A    
C22   H26   S    
C7    C9    A    
C87   O58   S    
C19   H35   S    
C14   C58   S    
Cr3   O23   S    
Cr2   O46   S    
C54   H10   S    
C67   O7    A    
O58   H51   S    
C84   H4    S    
C32   C35   D    
C76   C80   A    
C21   C25   S    
C66   O10   A    
Cr9   O33   S    
Cr3   O43   S    
C14   H38   S    
Cr4   O24   S    
C87   O57   D    
C17   H33   S    
C40   C88   S    
C34   H42   S    
C14   C26   D    
C4    O24   A    
C55   H11   S    
C45   C74   S    
C70   O14   A    
C20   H36   S    
C19   C23   D    
C29   C34   D    
C68   O8    A    
Cr11  O19   S    
C10   H22   S    
Cr7   O51   S    
C57   O1    A    
C15   C27   D    
C83   C84   A    
C38   C54   D    
Cr9   O17   S    
Cr10  O10   S    
Cr5   O49   S    
Cr6   O26   S    
C88   O59   D    
Cr4   O4    S    
Cr7   O31   S    
Cr12  O36   S    
Cr9   O13   S    
C36   H44   S    
C30   C66   S    
C47   O35   A    
C42   C50   D    
C29   C65   S    
C4    C17   S    
C44   H16   S    
Cr11  O35   S    
Cr12  O16   S    
C2    O26   A    
C50   H6    S    
C23   C27   S    
C3    O27   A    
C72   O44   A    
C82   H2    S    
C63   O51   A    
C18   H34   S    
C75   C79   A    
C62   O50   A    
C74   C81   A    
C5    C77   A    
C16   H40   S    
C6    C12   A    
C61   O49   A    
C73   C82   A    
C48   O36   A    
Cr3   O47   S    
Cr4   O48   S    
C2    O22   A    
C52   H8    S    
C1    C20   S    
C39   C71   S    
C40   C72   S    
Cr11  O39   S    
C5    H17   S    
C2    C19   S    
C18   C22   D    
C13   H37   S    
C1    O21   A    
C24   C28   S    
C71   O43   A    
Cr8   O52   S    
C68   O12   A    
Cr10  O34   S    
C44   C52   D    
C23   H27   S    
C11   C12   A    
C58   O2    A    
C66   O6    A    
Cr2   O42   S    
C44   C61   S    
C71   O15   A    
Cr6   O30   S    
C72   O16   A    
Cr7   O27   S    
C58   O38   A    
Cr1   O21   S    
Cr7   O7    S    
Cr9   O9    S    
C42   H14   S    
C70   O42   A    
Cr5   O25   S    
Cr4   O20   S    
C49   H5    S    
C43   C51   D    
Cr12  O12   S    
C81   H1    S    
C13   C25   D    
Cr8   O28   S    
C63   O47   A    
C29   H46   S    
C39   C87   S    
C1    O25   A    
C88   O60   S    
C33   C34   S    
Cr11  O11   S    
C21   H25   S    
C85   O53   D    
C15   C59   S    
C8    H20   S    
C22   C26   S    
C79   C80   A    
C43   H15   S    
Cr12  O20   S    
Cr4   O44   S    
C13   C57   S    
C73   C77   A    
C8    C10   A    
C74   C78   A    
C8    C80   A    
C65   O5    A    
C56   H12   S    
C59   O39   A    
C83   H3    S    
C60   O4    A    
C41   C64   S    
C51   H7    S    
C42   C63   S    
C20   C24   D    
C46   C73   S    
C47   O31   A    
C52   C56   S    
C43   C62   S    
C59   O3    A    
C48   O32   A    
C17   C21   D    
