data_mof_unit_49943.cif
_audit_creation_date              2012-12-10T17:06:15-0500
_audit_creation_method            fapswitch 2.2
_symmetry_space_group_name_H-M    P1
_symmetry_Int_Tables_number       1
_space_group_crystal_system       triclinic
_cell_length_a                    10.602498
_cell_length_b                    10.931633
_cell_length_c                    10.036982
_cell_angle_alpha                 108.653634
_cell_angle_beta                  100.68365
_cell_angle_gamma                 92.205854
_cell_volume                      1077.10690953

loop_
_atom_site_label
_atom_site_type_symbol
_atom_type_description
_atom_site_fract_x
_atom_site_fract_y
_atom_site_fract_z
_atom_type_partial_charge
C1    C     C_R   0.485853 0.255734 0.443590 0.839618
C2    C     C_R   0.514145 0.744265 0.556410 0.839619
C3    C     C_R   0.259545 0.499401 0.498218 0.750002
C4    C     C_R   0.740455 0.500599 0.501782 0.750003
C5    C     C_3   0.047674 0.406322 0.548089 -0.173688
C6    C     C_3   0.952326 0.593678 0.451911 -0.173687
C7    C     C_3   0.937299 0.384174 0.415714 -0.157374
C8    C     C_3   0.062701 0.615826 0.584286 -0.157369
C9    C     C_3   0.878075 0.500849 0.503876 0.035103
C10   C     C_3   0.121924 0.499151 0.496124 0.035105
C11   C     C_3   0.986181 0.523000 0.636249 -0.148876
C12   C     C_3   0.013819 0.477000 0.363750 -0.148875
C13   C     C_2   0.444655 0.122338 0.421798 -0.373783
C14   C     C_2   0.555337 0.877663 0.578200 -0.373781
C15   C     C_2   0.526249 0.051510 0.475629 0.239732
C16   C     C_2   0.473742 0.948483 0.524358 0.239731
C17   C     C_2   0.502213 0.518280 0.080138 0.383477
C18   C     C_2   0.497787 0.481721 0.919863 0.383462
Cu1   Cu    Cu3+1 0.522260 0.521810 0.644920 0.932879
Cu2   Cu    Cu3+1 0.477740 0.478190 0.355080 0.932879
H1    H     H_    0.882809 0.289223 0.347409 0.128061
H2    H     H_    0.117191 0.710777 0.652591 0.128060
H3    H     H_    0.089725 0.329358 0.586950 0.120938
H4    H     H_    0.910275 0.670642 0.413050 0.120939
H5    H     H_    0.972466 0.541801 0.747797 0.120455
H6    H     H_    0.027534 0.458199 0.252203 0.120457
H7    H     H_    0.658796 0.898202 0.593650 0.145530
H8    H     H_    0.341196 0.101804 0.406355 0.145528
N1    N     N_2   0.444270 0.445410 0.137360 -0.052187
N2    N     N_2   0.555730 0.554590 0.862640 -0.052184
O1    O     O_R   0.511880 0.332340 0.577400 -0.589272
O2    O     O_R   0.488120 0.667660 0.422600 -0.589275
O3    O     O_R   0.474280 0.295500 0.332650 -0.553272
O4    O     O_R   0.525720 0.704500 0.667350 -0.553265
O5    O     O_R   0.335640 0.518390 0.622350 -0.594360
O6    O     O_R   0.664360 0.481610 0.377650 -0.594357
O7    O     O_R   0.298050 0.481550 0.377590 -0.624745
O8    O     O_R   0.701950 0.518450 0.622410 -0.624744
N3    N     N_2   0.340471 0.937261 0.533402 -0.444244
H9    H     H_    0.325315 0.917185 0.623298 0.250123
C19   C     C_3   0.249961 0.858937 0.404649 -0.739472
H10   H     H_    0.260533 0.754323 0.384254 0.240119
H11   H     H_    0.263237 0.885828 0.310170 0.227911
H12   H     H_    0.150098 0.875290 0.419752 0.230003
N4    N     N_2   0.659519 0.062729 0.466582 -0.444243
H13   H     H_    0.674673 0.082802 0.376683 0.250119
C20   C     C_3   0.750030 0.141059 0.595333 -0.739463
H14   H     H_    0.739459 0.245673 0.615719 0.240117
H15   H     H_    0.849892 0.124705 0.580230 0.229999
H16   H     H_    0.736753 0.114175 0.689816 0.227912
N5    N     N_2   0.437192 0.357010 0.830567 -0.408932
H17   H     H_    0.374837 0.350735 0.736664 0.275439
C21   C     C_3   0.518641 0.252952 0.826320 -0.582707
H18   H     H_    0.604122 0.269416 0.783745 0.215115
H19   H     H_    0.462616 0.159001 0.759216 0.234346
H20   H     H_    0.554822 0.248350 0.935478 0.236089
N6    N     N_2   0.562813 0.642989 0.169435 -0.408936
H21   H     H_    0.625167 0.649264 0.263339 0.275441
C22   C     C_3   0.481377 0.747056 0.173673 -0.582712
H22   H     H_    0.395913 0.730626 0.216288 0.215134
H23   H     H_    0.445171 0.751631 0.064509 0.236074
H24   H     H_    0.537421 0.841008 0.240740 0.234351
O9    O     O_3   0.621873 0.668248 0.950464 -0.495253
C23   C     C_3   0.748000 0.671052 0.925435 0.242796
H25   H     H_    0.752013 0.714306 0.840018 0.164871
H26   H     H_    0.782973 0.572841 0.895876 0.120932
C24   C     C_3   0.839195 0.756794 0.062315 -0.904478
H27   H     H_    0.838601 0.715712 0.150162 0.250873
H28   H     H_    0.938898 0.762198 0.043422 0.199163
H29   H     H_    0.808699 0.856304 0.095503 0.259060
O10   O     O_3   0.378138 0.331746 0.049536 -0.495257
C25   C     C_3   0.252011 0.328926 0.074567 0.242791
H30   H     H_    0.217020 0.427129 0.104103 0.120926
H31   H     H_    0.248012 0.285691 0.160001 0.164884
C26   C     C_3   0.160826 0.243153 0.937700 -0.904471
H32   H     H_    0.191344 0.143651 0.904533 0.259061
H33   H     H_    0.061126 0.237733 0.956596 0.199161
H34   H     H_    0.161403 0.284216 0.849836 0.250875

loop_
_geom_bond_atom_site_label_1
_geom_bond_atom_site_label_2
_ccdc_geom_bond_type
C4    O6    A    
C17   N1    D    
C19   H10   S    
Cu1   Cu2   S    
Cu1   O1    S    
C6    C9    S    
C1    O3    A    
C20   H15   S    
C21   H18   S    
C5    C11   S    
C6    C12   S    
N6    C22   S    
C11   H5    S    
C15   C16   S    
C1    O1    A    
C2    O2    A    
C8    H2    S    
C13   H8    S    
C18   N2    D    
C14   H7    S    
C2    O4    A    
N4    C20   S    
C22   H22   S    
N2    O9    S    
C19   H11   S    
C25   C26   S    
C18   N5    S    
C20   H16   S    
Cu2   N1    S    
C21   H19   S    
C7    C12   S    
C22   H23   S    
N5    H17   S    
C23   C24   S    
N3    C19   S    
N3    H9    S    
C5    C7    S    
C6    C8    S    
C7    H1    S    
C24   H27   S    
C12   H6    S    
N5    C21   S    
C23   H26   S    
C26   H32   S    
Cu1   O8    S    
C26   H33   S    
C20   H14   S    
C5    H3    S    
C3    O5    A    
C6    H4    S    
C17   C18   S    
C9    C11   S    
C10   C12   S    
Cu2   O3    S    
C25   H31   S    
C4    O8    A    
C13   C15   D    
C19   H12   S    
C14   C16   D    
C1    C13   S    
C15   N4    S    
Cu2   O2    S    
C21   H20   S    
C7    C9    S    
C22   H24   S    
C25   H30   S    
Cu1   O4    S    
C24   H29   S    
C23   H25   S    
C5    C10   S    
C3    C10   S    
Cu1   O5    S    
Cu2   O7    S    
N6    H21   S    
C8    C11   S    
C2    C14   S    
C26   H34   S    
C16   N3    S    
O9    C23   S    
Cu2   O6    S    
N4    H13   S    
O10   C25   S    
C3    O7    A    
C8    C10   S    
C24   H28   S    
C4    C9    S    
Cu1   N2    S    
C17   N6    S    
N1    O10   S    
