data_mof_unit_12074.cif
_audit_creation_date              2012-12-10T17:14:40-0500
_audit_creation_method            fapswitch 2.2
_symmetry_space_group_name_H-M    P1
_symmetry_Int_Tables_number       1
_space_group_crystal_system       triclinic
_cell_length_a                    10.661008
_cell_length_b                    12.983163
_cell_length_c                    11.847117
_cell_angle_alpha                 99.700831
_cell_angle_beta                  93.453383
_cell_angle_gamma                 91.47594
_cell_volume                      1612.34483612

loop_
_atom_site_label
_atom_site_type_symbol
_atom_type_description
_atom_site_fract_x
_atom_site_fract_y
_atom_site_fract_z
_atom_type_partial_charge
C1    C     C_R   0.494518 0.299528 0.478438 0.861541
C2    C     C_R   0.505485 0.700472 0.521561 0.861562
C3    C     C_R   0.569873 0.135316 0.535488 0.052850
C4    C     C_R   0.430138 0.864680 0.464496 0.052768
C5    C     C_R   0.541026 0.030268 0.543411 -0.090605
C6    C     C_R   0.458984 0.969728 0.456573 -0.090637
C7    C     C_R   0.346253 0.444211 0.035466 0.277052
C8    C     C_R   0.653725 0.555859 0.964546 0.277220
C9    C     C_R   0.370498 0.437261 0.151042 0.103021
C10   C     C_R   0.629487 0.562769 0.848958 0.103099
C11   C     C_R   0.564101 0.532844 0.153644 0.303609
C12   C     C_R   0.435892 0.467170 0.846363 0.303672
C13   C     C_R   0.556441 0.521525 0.030201 -0.098266
C14   C     C_R   0.443552 0.478510 0.969807 -0.098203
C15   C     C_R   0.260269 0.504978 0.500872 0.931467
C16   C     C_R   0.739731 0.495026 0.499129 0.931472
C17   C     C_3   0.045397 0.564393 0.595176 0.295591
C18   C     C_3   0.954603 0.435618 0.404828 0.295604
C19   C     C_3   0.966572 0.463103 0.593271 0.277334
C20   C     C_3   0.033427 0.536910 0.406734 0.277316
C21   C     C_3   0.876354 0.493886 0.498821 -0.385669
C22   C     C_3   0.123646 0.506124 0.501183 -0.385705
C23   C     C_3   0.954620 0.595084 0.500811 0.227938
C24   C     C_3   0.045378 0.404927 0.499195 0.227945
C25   C     C_R   0.510392 0.814558 0.535356 -0.197111
C26   C     C_R   0.489612 0.185441 0.464638 -0.197116
C27   C     C_R   0.408417 0.016446 0.365230 0.333617
C28   C     C_R   0.591591 0.983553 0.634756 0.333630
C29   C     C_R   0.411536 0.125071 0.376268 0.355922
C30   C     C_R   0.588464 0.874930 0.623726 0.355891
Cu1   Cu    Cu3+1 0.509400 0.507730 0.615930 1.020287
Cu2   Cu    Cu3+1 0.490600 0.492270 0.384070 1.020274
H1    H     H_    0.701861 0.594158 0.802874 0.224634
H2    H     H_    0.298106 0.405890 0.197123 0.224621
N1    N     N_R   0.523540 0.519360 0.790140 -0.240328
N2    N     N_R   0.476460 0.480640 0.209860 -0.240286
O1    O     O_R   0.506670 0.354460 0.582000 -0.622176
O2    O     O_R   0.493330 0.645540 0.418000 -0.622200
O3    O     O_R   0.490800 0.341410 0.386200 -0.532671
O4    O     O_R   0.509200 0.658590 0.613800 -0.532683
O5    O     O_R   0.324790 0.506500 0.597880 -0.591186
O6    O     O_R   0.675210 0.493500 0.402120 -0.591176
O7    O     O_R   0.308910 0.493440 0.402080 -0.553507
O8    O     O_R   0.691090 0.506560 0.597920 -0.553510
Cl1   Cl    Cl    0.923711 0.413431 0.717607 -0.433428
Cl2   Cl    Cl    0.076295 0.586598 0.282412 -0.433464
Cl3   Cl    Cl    0.104975 0.649051 0.722492 -0.401278
Cl4   Cl    Cl    0.895028 0.350964 0.277509 -0.401316
Cl5   Cl    Cl    0.884780 0.718609 0.500784 -0.525664
Cl6   Cl    Cl    0.115208 0.281399 0.499232 -0.525703
C31   C     C_3   0.301994 0.813777 0.419970 -0.344069
C32   C     C_3   0.225761 0.791284 0.518579 -0.669355
H3    H     H_    0.267830 0.729881 0.561525 0.237067
H4    H     H_    0.218300 0.863540 0.582716 0.282057
H5    H     H_    0.130289 0.763590 0.483817 0.298928
H6    H     H_    0.242545 0.866157 0.377177 0.274862
H7    H     H_    0.311901 0.741327 0.357043 0.259882
C33   C     C_3   0.698025 0.186207 0.579981 -0.344141
C34   C     C_3   0.774235 0.208657 0.481350 -0.669505
H8    H     H_    0.781688 0.136384 0.417245 0.282059
H9    H     H_    0.732157 0.270039 0.438379 0.237142
H10   H     H_    0.869708 0.236345 0.516080 0.298948
H11   H     H_    0.688133 0.258671 0.642879 0.259920
H12   H     H_    0.757474 0.133836 0.622788 0.274871
Cl7   Cl    Cl    0.682097 0.817388 0.723311 -0.411025
Cl8   Cl    Cl    0.317892 0.182613 0.276701 -0.411044
Cl9   Cl    Cl    0.361670 0.941760 0.228833 -0.479890
Cl10  Cl    Cl    0.638346 0.058245 0.771144 -0.479824
C35   C     C_3   0.344775 0.382537 0.779236 -0.314541
C36   C     C_3   0.373223 0.273186 0.804408 -0.683289
H13   H     H_    0.310934 0.213957 0.747274 0.272468
H14   H     H_    0.472358 0.255283 0.787476 0.267784
H15   H     H_    0.357443 0.265680 0.894223 0.279543
H16   H     H_    0.245834 0.401992 0.789376 0.274597
H17   H     H_    0.346529 0.373653 0.687884 0.259741
C37   C     C_3   0.655165 0.617518 0.220783 -0.314407
C38   C     C_3   0.626501 0.726870 0.195692 -0.683047
H18   H     H_    0.688634 0.786181 0.252892 0.272365
H19   H     H_    0.642259 0.734475 0.105901 0.279542
H20   H     H_    0.527289 0.744599 0.212582 0.267699
H21   H     H_    0.653491 0.626336 0.312129 0.259723
H22   H     H_    0.754135 0.598150 0.210582 0.274567
Cl11  Cl    Cl    0.185529 0.424233 0.989543 -0.397764
Cl12  Cl    Cl    0.814388 0.575995 0.010484 -0.397911

loop_
_geom_bond_atom_site_label_1
_geom_bond_atom_site_label_2
_ccdc_geom_bond_type
C7    Cl11  S    
C12   C35   S    
C16   C21   S    
C27   C29   A    
C18   C21   S    
C4    C25   A    
C38   H18   S    
C17   C23   S    
C18   C24   S    
Cu2   N2    S    
C11   N2    A    
C19   C21   S    
C11   C37   S    
C5    C6    A    
C23   Cl5   S    
C25   C30   A    
Cu1   O4    S    
C31   H6    S    
Cu2   O3    S    
C15   C22   S    
C6    C27   A    
C9    N2    A    
C10   N1    A    
C31   H7    S    
Cu2   O2    S    
C10   H1    S    
C16   O8    A    
C18   C20   S    
C32   H5    S    
C1    O1    A    
C34   H8    S    
C13   C14   A    
C33   H12   S    
C32   H4    S    
C38   H19   S    
C24   Cl6   S    
C34   H9    S    
Cu1   O8    S    
C4    C31   S    
C31   C32   S    
C37   C38   S    
C15   O5    A    
C4    C6    A    
C37   H22   S    
C33   C34   S    
C7    C14   A    
Cu1   O1    S    
C5    C28   A    
C2    O2    A    
Cu1   Cu2   S    
C20   C23   S    
C36   H15   S    
C35   H16   S    
C12   N1    A    
C36   H13   S    
C20   C22   S    
C21   C23   S    
C1    C26   S    
Cu1   N1    S    
C16   O6    A    
C32   H3    S    
C38   H20   S    
C33   H11   S    
C7    C9    A    
C34   H10   S    
Cu1   O5    S    
C28   Cl10  S    
C8    Cl12  S    
C3    C26   A    
C17   Cl3   S    
C12   C14   A    
C3    C5    A    
C18   Cl4   S    
C37   H21   S    
C19   Cl1   S    
C17   C22   S    
C28   C30   A    
C19   C24   S    
C15   O7    A    
C11   C13   A    
C9    H2    S    
C17   C19   S    
Cu2   O7    S    
C35   H17   S    
C2    C25   S    
C22   C24   S    
C8    C13   A    
C35   C36   S    
C30   Cl7   S    
C27   Cl9   S    
C1    O3    A    
C29   Cl8   S    
C3    C33   S    
C2    O4    A    
C26   C29   A    
C8    C10   A    
Cu2   O6    S    
C36   H14   S    
C20   Cl2   S    
