data_mof_unit_55546.cif
_audit_creation_date              2013-03-05T16:47:31-0500
_audit_creation_method            fapswitch 2.2
_symmetry_space_group_name_H-M    P1
_symmetry_Int_Tables_number       1
_space_group_crystal_system       triclinic
_cell_length_a                    11.031666
_cell_length_b                    11.048749
_cell_length_c                    10.185289
_cell_angle_alpha                 99.472253
_cell_angle_beta                  99.169207
_cell_angle_gamma                 98.802995
_cell_volume                      1188.2109842

loop_
_atom_site_label
_atom_site_type_symbol
_atom_site_description
_atom_site_fract_x
_atom_site_fract_y
_atom_site_fract_z
_atom_type_partial_charge
O1    O     O_R   0.517830 0.337490 0.617920 -0.628053
O2    O     O_R   0.482170 0.662510 0.382080 -0.561206
O3    O     O_R   0.482150 0.301790 0.382070 -0.555694
O4    O     O_R   0.517850 0.698210 0.617930 -0.556232
C1    C     C_R   0.500334 0.262583 0.498386 0.773331
C2    C     C_R   0.499313 0.737323 0.501299 0.771902
O5    O     O_R   0.337480 0.517860 0.617920 -0.547781
O6    O     O_R   0.662520 0.482140 0.382080 -0.609167
O7    O     O_R   0.301810 0.482160 0.382070 -0.565321
O8    O     O_R   0.698190 0.517840 0.617930 -0.569053
C3    C     C_R   0.262771 0.500962 0.498749 0.774561
C4    C     C_R   0.737456 0.500078 0.501560 0.774716
Cu1   Cu    Cu3+1 0.521120 0.521140 0.639640 0.968194
Cu2   Cu    Cu3+1 0.478880 0.478860 0.360360 0.970957
H1    H     H_    0.143211 0.450247 0.884318 0.177168
H2    H     H_    0.897648 0.604395 0.133436 0.135941
C5    C     C_R   0.177833 0.563460 0.081404 -0.071371
C6    C     C_R   0.843459 0.477021 0.943040 -0.153664
H3    H     H_    0.230591 0.642638 0.053115 0.122781
H4    H     H_    0.795980 0.402759 0.983962 0.117494
C7    C     C_R   0.145974 0.574463 0.208844 -0.096983
C8    C     C_R   0.864167 0.454042 0.810673 -0.075247
H5    H     H_    0.176085 0.662302 0.280375 0.129942
H6    H     H_    0.831486 0.361704 0.748482 0.126039
C9    C     C_R   0.074874 0.471691 0.243516 0.113019
C10   C     C_R   0.929794 0.549884 0.760137 0.117651
C11   C     C_R   0.036161 0.358593 0.150821 -0.148965
C12   C     C_R   0.971891 0.668885 0.841534 -0.152682
H7    H     H_    0.981423 0.279162 0.176982 0.160776
H8    H     H_    0.021507 0.743559 0.803189 0.162636
C13   C     C_R   0.063851 0.349790 0.021817 -0.184625
C14   C     C_R   0.955413 0.689889 0.975222 -0.163555
H9    H     H_    0.026524 0.265238 0.947055 0.137495
H10   H     H_    0.994563 0.779379 0.040976 0.134680
C15   C     C_R   0.132269 0.453040 0.986929 -0.041291
C16   C     C_R   0.895534 0.592507 0.026517 -0.122015
C17   C     C_R   0.913384 0.479057 0.380827 -0.213513
C18   C     C_R   0.087822 0.525646 0.620432 -0.205851
H11   H     H_    0.847372 0.459736 0.286047 0.154934
H12   H     H_    0.155287 0.547569 0.714199 0.190620
C19   C     C_R   0.872173 0.499953 0.504111 -0.051099
C20   C     C_R   0.128510 0.503405 0.497204 -0.055795
C21   C     C_R   0.961807 0.524108 0.625448 -0.002542
C22   C     C_R   0.039605 0.483434 0.376454 0.012550
H13   H     H_    0.395820 0.109008 0.871650 0.159740
H14   H     H_    0.548062 0.851896 0.110593 0.191442
C23   C     C_R   0.309786 0.057573 0.032370 -0.145384
C24   C     C_R   0.651263 0.923741 0.970487 -0.163428
H15   H     H_    0.217684 0.025771 0.969700 0.157255
H16   H     H_    0.738523 0.954218 0.042000 0.166359
C25   C     C_R   0.331536 0.038197 0.164602 -0.191805
C26   C     C_R   0.643224 0.953178 0.842817 -0.184387
H17   H     H_    0.255155 0.993714 0.205309 0.137675
H18   H     H_    0.725547 0.001016 0.814425 0.138050
C27   C     C_R   0.453003 0.070133 0.241414 0.088490
C28   C     C_R   0.527755 0.926070 0.754645 0.087467
C29   C     C_R   0.552055 0.127901 0.188000 0.211374
C30   C     C_R   0.420549 0.864664 0.792004 0.180904
C31   C     C_R   0.528125 0.151780 0.057198 -0.165800
C32   C     C_R   0.431030 0.829564 0.917805 -0.085892
H19   H     H_    0.603695 0.192076 0.012659 0.131152
H20   H     H_    0.349097 0.785958 0.949866 0.132264
C33   C     C_R   0.408974 0.110534 0.978264 -0.169786
C34   C     C_R   0.544967 0.863390 0.008099 -0.083558
C35   C     C_R   0.472851 0.911436 0.379357 -0.226184
C36   C     C_R   0.525348 0.087901 0.619258 -0.237139
H21   H     H_    0.449765 0.843813 0.285326 0.175203
H22   H     H_    0.546008 0.154280 0.714225 0.137752
C37   C     C_R   0.497603 0.871713 0.502410 -0.050167
C38   C     C_R   0.501424 0.128035 0.496155 -0.042746
C39   C     C_R   0.519805 0.961635 0.622922 0.039359
C40   C     C_R   0.475787 0.037560 0.375110 0.029852
N1    N     N_2   0.447120 0.447110 0.150550 -0.309864
N2    N     N_2   0.552880 0.552890 0.849450 -0.311537
C41   C     C_2   0.499966 0.524728 0.079090 0.413772
C42   C     C_2   0.474987 0.500230 0.920957 0.414645
H23   H     H_    0.637377 0.602474 0.904343 0.195958
H24   H     H_    0.396963 0.362907 0.095474 0.195974
I1    I     I_    0.739806 0.166582 0.293996 -0.522474
I2    I     I_    0.240309 0.839577 0.670040 -0.536243
O9    O     O_3   0.352761 0.446161 0.858020 -0.603219
C43   C     C_3   0.343674 0.324090 0.784107 0.131526
H25   H     H_    0.427282 0.283571 0.813502 0.114846
H26   H     H_    0.328643 0.324631 0.675163 0.213004
C44   C     C_3   0.225485 0.238636 0.795327 -0.942511
H27   H     H_    0.141236 0.270610 0.748350 0.248141
H28   H     H_    0.222096 0.142961 0.738679 0.245698
H29   H     H_    0.224078 0.235380 0.902766 0.264963
O10   O     O_3   0.554740 0.646586 0.142456 -0.604924
C45   C     C_3   0.676752 0.654914 0.215499 0.125748
H30   H     H_    0.717173 0.571445 0.184517 0.116109
H31   H     H_    0.676182 0.670006 0.324505 0.213542
C46   C     C_3   0.762491 0.772729 0.204762 -0.934775
H32   H     H_    0.728161 0.856945 0.248255 0.271162
H33   H     H_    0.857265 0.777795 0.264492 0.224855
H34   H     H_    0.769092 0.771577 0.097674 0.261860

loop_
_geom_bond_atom_site_label_1
_geom_bond_atom_site_label_2
_geom_bond_distance
_ccdc_geom_bond_type
C2    C37   1.486052 S    
C36   H22   1.081905 S    
C46   H32   1.109555 S    
C11   H7    1.082530 S    
C19   C21   1.413335 A    
C29   I1    2.121942 S    
C41   C42   1.560632 S    
O9    C43   1.412892 S    
C23   H15   1.083266 S    
C44   H27   1.109932 S    
O5    C3    1.321696 A    
C1    C38   1.484939 S    
N2    C42   1.339122 D    
O1    C1    1.322521 A    
C14   C16   1.394433 A    
C18   C20   1.396056 A    
C23   C33   1.394896 A    
C29   C31   1.392531 A    
C30   C32   1.391260 A    
C3    C20   1.483119 S    
C32   H20   1.080876 S    
O4    Cu1   2.009763 S    
C37   C39   1.407850 A    
C35   H21   1.081132 S    
N2    H23   1.028786 S    
N1    H24   1.028645 S    
C13   H9    1.081811 S    
C25   C27   1.400866 A    
C27   C40   1.458390 S    
C30   I2    2.122340 S    
C24   H16   1.080359 S    
C46   H33   1.111093 S    
Cu1   Cu2   2.756878 S    
N1    C41   1.338917 D    
O2    C2    1.319883 A    
C20   C22   1.408268 A    
C9    C22   1.458451 S    
H1    C15   1.067025 S    
C26   H18   1.083897 S    
C10   C21   1.464377 S    
C44   H28   1.109958 S    
C31   H19   1.082771 S    
C11   C13   1.387151 A    
Cu2   N1    2.071112 S    
C12   C14   1.388804 A    
O4    C2    1.326018 A    
C23   C25   1.387432 A    
H13   C33   1.069352 S    
C5    C7    1.389133 A    
H14   C34   1.068034 S    
C25   H17   1.084028 S    
C14   H10   1.082527 S    
O7    Cu2   2.005671 S    
C4    C19   1.482450 S    
C45   H31   1.096418 S    
C36   C39   1.393958 A    
C24   C26   1.384141 A    
O6    C4    1.324179 A    
C28   C39   1.452128 S    
O7    C3    1.322947 A    
O3    Cu2   2.009763 S    
O8    C4    1.320634 A    
C46   H34   1.102800 S    
C43   H26   1.096648 S    
C27   C29   1.409844 A    
C8    H6    1.083513 S    
O1    Cu1   1.998668 S    
C43   C44   1.520085 S    
C45   C46   1.517888 S    
C44   H29   1.103283 S    
C7    C9    1.406037 A    
O6    Cu2   1.996596 S    
C6    C8    1.391960 A    
C31   C33   1.393218 A    
O3    C1    1.323328 A    
O8    Cu1   2.005671 S    
C42   O9    1.392053 S    
C9    C11   1.398241 A    
C35   C40   1.396872 A    
C10   C12   1.401196 A    
C32   C34   1.392839 A    
C17   C22   1.393935 A    
C7    H5    1.083741 S    
C18   C21   1.396820 A    
C17   H11   1.080898 S    
H2    C16   1.071262 S    
C18   H12   1.080204 S    
C45   H30   1.106281 S    
C36   C38   1.397050 A    
C35   C37   1.395241 A    
C13   C15   1.397384 A    
C12   H8    1.081113 S    
C5    H3    1.080567 S    
C28   C30   1.409463 A    
C6    H4    1.082530 S    
C17   C19   1.398347 A    
O2    Cu2   1.998668 S    
C24   C34   1.397975 A    
C41   O10   1.391082 S    
O5    Cu1   1.996597 S    
Cu1   N2    2.071112 S    
C43   H25   1.106009 S    
C8    C10   1.404962 A    
C38   C40   1.412787 A    
C5    C15   1.392393 A    
O10   C45   1.412123 S    
C6    C16   1.394252 A    
C26   C28   1.396036 A    
