data_mof_unit_8689.cif
_audit_creation_date              2012-12-10T17:02:28-0500
_audit_creation_method            fapswitch 2.2
_symmetry_space_group_name_H-M    P1
_symmetry_Int_Tables_number       1
_space_group_crystal_system       triclinic
_cell_length_a                    10.762702
_cell_length_b                    11.121715
_cell_length_c                    9.92469
_cell_angle_alpha                 110.762217
_cell_angle_beta                  97.983499
_cell_angle_gamma                 92.3255
_cell_volume                      1094.88211591

loop_
_atom_site_label
_atom_site_type_symbol
_atom_type_description
_atom_site_fract_x
_atom_site_fract_y
_atom_site_fract_z
_atom_type_partial_charge
C1    C     C_R   0.492351 0.255389 0.441747 0.811272
C2    C     C_R   0.507652 0.744612 0.558252 0.811281
C3    C     C_2   0.478027 0.118081 0.412257 -0.354314
C4    C     C_2   0.521979 0.881919 0.587738 -0.354312
C5    C     C_2   0.520640 0.067379 0.513010 0.199221
C6    C     C_2   0.479374 0.932618 0.486979 0.199218
C7    C     C_2   0.512228 0.510172 0.080148 0.284357
C8    C     C_2   0.487772 0.489827 0.919851 0.284366
C9    C     C_R   0.263414 0.500523 0.501285 0.793477
C10   C     C_R   0.736585 0.499471 0.498715 0.793470
C11   C     C_R   0.146451 0.736607 0.561678 -0.145503
C12   C     C_R   0.853534 0.263375 0.438203 -0.145543
C13   C     C_R   0.089382 0.850980 0.584874 -0.138174
C14   C     C_R   0.910600 0.148996 0.414954 -0.138172
C15   C     C_R   0.959516 0.849913 0.578893 -0.123469
C16   C     C_R   0.040472 0.150074 0.421002 -0.123522
C17   C     C_R   0.886418 0.734573 0.550386 -0.100264
C18   C     C_R   0.113577 0.265426 0.449603 -0.100278
C19   C     C_R   0.942499 0.617087 0.525571 0.075731
C20   C     C_R   0.057499 0.382909 0.474425 0.075743
C21   C     C_R   0.073885 0.617987 0.530307 0.069803
C22   C     C_R   0.926109 0.382003 0.469658 0.069810
C23   C     C_R   0.870199 0.499217 0.496191 -0.155430
C24   C     C_R   0.129800 0.500778 0.503809 -0.155434
Cu1   Cu    Cu3+1 0.521920 0.521810 0.644910 0.995653
Cu2   Cu    Cu3+1 0.478080 0.478190 0.355090 0.995648
H1    H     H_    0.084736 0.061198 0.402956 0.145205
H2    H     H_    0.915248 0.938788 0.596913 0.145213
H3    H     H_    0.247705 0.742164 0.569153 0.112769
H4    H     H_    0.752276 0.257819 0.430680 0.112793
H5    H     H_    0.146213 0.940721 0.607835 0.152032
H6    H     H_    0.853759 0.059244 0.391905 0.152052
H7    H     H_    0.785841 0.738453 0.547380 0.138887
H8    H     H_    0.214155 0.261554 0.452653 0.138901
H9    H     H_    0.577685 0.941508 0.692025 0.171585
H10   H     H_    0.422313 0.058494 0.307973 0.171590
H11   H     H_    0.627189 0.621687 0.928140 0.223957
H12   H     H_    0.372813 0.378309 0.071859 0.223959
N1    N     N_2   0.445130 0.445420 0.137360 -0.292743
N2    N     N_2   0.554870 0.554580 0.862640 -0.292746
O1    O     O_R   0.511700 0.332340 0.577400 -0.544030
O2    O     O_R   0.488300 0.667660 0.422600 -0.544042
O3    O     O_R   0.474680 0.295500 0.332650 -0.576197
O4    O     O_R   0.525320 0.704500 0.667350 -0.576188
O5    O     O_R   0.338170 0.518410 0.622370 -0.523787
O6    O     O_R   0.661830 0.481590 0.377630 -0.523790
O7    O     O_R   0.301150 0.481570 0.377630 -0.579075
O8    O     O_R   0.698850 0.518430 0.622370 -0.579077
N3    N     N_3   0.389455 0.861199 0.357666 -0.600731
H13   H     H_    0.434558 0.796226 0.280055 0.278441
H14   H     H_    0.316694 0.813115 0.384199 0.227243
N4    N     N_3   0.610568 0.138795 0.642314 -0.600738
H15   H     H_    0.565475 0.203760 0.719939 0.278431
H16   H     H_    0.683325 0.186875 0.615773 0.227259
Br1   Br    Br    0.351093 0.362832 0.799906 -0.545900
Br2   Br    Br    0.648906 0.637169 0.200095 -0.545910

loop_
_geom_bond_atom_site_label_1
_geom_bond_atom_site_label_2
_ccdc_geom_bond_type
C10   O6    A    
C19   C23   A    
C9    C24   S    
C9    O5    A    
Cu1   O5    S    
C10   C23   S    
C11   C13   A    
C2    C4    S    
C11   C21   A    
C20   C22   A    
C3    C5    D    
C3    H10   S    
C16   H1    S    
C12   C14   A    
C4    H9    S    
C7    C8    S    
C5    N4    S    
C18   H8    S    
Cu1   O8    S    
C11   H3    S    
C15   H2    S    
C5    C6    S    
C17   H7    S    
C7    Br2   S    
C2    O2    A    
Cu2   O7    S    
C8    Br1   S    
C1    O1    A    
C19   C21   A    
N4    H16   S    
Cu2   O3    S    
C9    O7    A    
H11   N2    S    
C18   C20   A    
C13   C15   A    
Cu1   N2    S    
C10   O8    A    
H12   N1    S    
C14   C16   A    
Cu2   N1    S    
C4    C6    D    
Cu2   O6    S    
Cu1   O1    S    
C12   C22   A    
C14   H6    S    
N4    H15   S    
Cu2   O2    S    
C16   C18   A    
N3    H13   S    
C21   C24   A    
Cu1   O4    S    
C1    C3    S    
C15   C17   A    
C13   H5    S    
C22   C23   A    
C17   C19   A    
C7    N1    D    
C8    N2    D    
C12   H4    S    
Cu1   Cu2   S    
C1    O3    A    
C6    N3    S    
C20   C24   A    
C2    O4    A    
N3    H14   S    
