data_mof_unit_20919.cif
_audit_creation_date              2012-12-10T17:40:52-0500
_audit_creation_method            fapswitch 2.2
_symmetry_space_group_name_H-M    P1
_symmetry_Int_Tables_number       1
_space_group_crystal_system       triclinic
_cell_length_a                    14.676605
_cell_length_b                    15.670302
_cell_length_c                    9.952139
_cell_angle_alpha                 88.965886
_cell_angle_beta                  93.686563
_cell_angle_gamma                 90.189478
_cell_volume                      2283.74733632

loop_
_atom_site_label
_atom_site_type_symbol
_atom_type_description
_atom_site_fract_x
_atom_site_fract_y
_atom_site_fract_z
_atom_type_partial_charge
Br1   Br    Br    0.153372 0.088976 0.780761 -0.124799
Br2   Br    Br    0.653392 0.588978 0.780747 -0.124615
Br3   Br    Br    0.630249 0.805213 0.852210 -0.171061
Br4   Br    Br    0.622364 0.189045 0.849156 -0.190838
Br5   Br    Br    0.130423 0.305236 0.852284 -0.171069
Br6   Br    Br    0.122479 0.689033 0.849199 -0.190565
Br7   Br    Br    0.267614 0.995734 0.261289 -0.201169
Br8   Br    Br    0.767613 0.495719 0.261256 -0.201132
C1    C     C_R   0.387798 0.873985 0.498065 1.061688
C2    C     C_R   0.699853 0.232635 0.387826 0.576552
C3    C     C_R   0.195544 0.265579 0.391930 0.592407
C4    C     C_R   0.199816 0.732663 0.387823 0.576539
C5    C     C_R   0.682854 0.807217 0.513376 -0.195166
C6    C     C_R   0.683857 0.191412 0.510785 -0.195641
C7    C     C_R   0.182862 0.307223 0.513372 -0.195212
C8    C     C_R   0.183847 0.691416 0.510773 -0.195725
C9    C     C_R   0.331480 0.042527 0.114660 0.226177
C10   C     C_R   0.831489 0.542543 0.114660 0.226160
C11   C     C_R   0.263363 0.081429 0.028835 0.604790
C12   C     C_R   0.387690 0.126129 0.496836 1.051059
C13   C     C_R   0.763379 0.581453 0.028833 0.604810
C14   C     C_R   0.262889 0.069270 0.893258 0.062251
C15   C     C_R   0.762899 0.569275 0.893259 0.062180
C16   C     C_R   0.334685 0.027685 0.841929 0.506388
C17   C     C_R   0.834687 0.527679 0.841934 0.506369
C18   C     C_R   0.418562 0.013906 0.918697 -0.050192
C19   C     C_R   0.918563 0.513904 0.918699 -0.050208
C20   C     C_R   0.417816 0.016880 0.063425 -0.052051
C21   C     C_R   0.917818 0.516883 0.063424 -0.052001
C22   C     C_R   0.577412 0.988736 0.079189 0.117783
C23   C     C_R   0.887810 0.373977 0.498069 1.061590
C24   C     C_R   0.077413 0.488737 0.079189 0.117733
C25   C     C_R   0.617950 0.122512 0.503078 0.953277
C26   C     C_R   0.617800 0.877161 0.504393 0.945073
C27   C     C_R   0.117947 0.622513 0.503076 0.953209
C28   C     C_R   0.117803 0.377163 0.504392 0.944979
C29   C     C_R   0.577589 0.991017 0.936833 0.042453
C30   C     C_R   0.077589 0.491021 0.936832 0.042522
C31   C     C_R   0.408826 0.272927 0.684342 0.511368
C32   C     C_R   0.404960 0.728668 0.694158 0.522840
C33   C     C_R   0.908744 0.772813 0.684503 0.511503
C34   C     C_R   0.887692 0.626129 0.496839 1.051073
C35   C     C_R   0.904929 0.228746 0.694321 0.522835
C36   C     C_R   0.402541 0.318967 0.801960 0.521872
C37   C     C_R   0.396022 0.683138 0.814064 0.547829
C38   C     C_R   0.902404 0.818745 0.802183 0.521741
C39   C     C_R   0.895948 0.183312 0.814300 0.547795
C40   C     C_R   0.816832 0.840526 0.843214 0.420678
C41   C     C_R   0.809642 0.159158 0.850557 0.443081
C42   C     C_R   0.316981 0.340748 0.843053 0.420635
C43   C     C_R   0.309726 0.658979 0.850381 0.443091
C44   C     C_R   0.738518 0.825469 0.758786 0.167268
C45   C     C_R   0.271266 0.216295 0.379844 0.604761
C46   C     C_R   0.733274 0.172856 0.760931 0.183868
C47   C     C_R   0.238624 0.325590 0.758723 0.166966
C48   C     C_R   0.233330 0.672768 0.760857 0.183729
C49   C     C_R   0.747554 0.795732 0.626014 -0.189094
C50   C     C_R   0.745373 0.203191 0.626977 -0.186233
C51   C     C_R   0.247605 0.295782 0.625974 -0.188975
C52   C     C_R   0.245386 0.703171 0.626937 -0.186284
C53   C     C_R   0.329892 0.255319 0.601829 -0.277338
C54   C     C_R   0.328081 0.744465 0.605541 -0.262510
C55   C     C_R   0.829851 0.755277 0.601893 -0.277494
C56   C     C_R   0.275208 0.783132 0.377516 0.605586
C57   C     C_R   0.828078 0.244478 0.605599 -0.262531
C58   C     C_R   0.332726 0.203040 0.489666 -0.222402
C59   C     C_R   0.333228 0.797073 0.491361 -0.229614
C60   C     C_R   0.832728 0.703043 0.489691 -0.222444
C61   C     C_R   0.833253 0.297055 0.491383 -0.229691
C62   C     C_R   0.771297 0.716325 0.379852 0.604835
C63   C     C_R   0.775249 0.283099 0.377526 0.605670
C64   C     C_R   0.695573 0.765607 0.391923 0.592459
F1    F     F_    0.288124 0.187172 0.257610 -0.575713
F2    F     F_    0.989234 0.249619 0.656811 -0.600839
F3    F     F_    0.478693 0.338066 0.880184 -0.493719
F4    F     F_    0.469969 0.667610 0.899586 -0.471756
F5    F     F_    0.978515 0.837732 0.880517 -0.493844
F6    F     F_    0.969870 0.167853 0.899926 -0.471736
F7    F     F_    0.809600 0.872267 0.968102 -0.540922
F8    F     F_    0.799548 0.126931 0.976306 -0.532277
F9    F     F_    0.309805 0.372577 0.967917 -0.540815
F10   F     F_    0.299674 0.626655 0.976087 -0.532267
F11   F     F_    0.635326 0.773337 0.282692 -0.528578
F12   F     F_    0.293038 0.814933 0.254318 -0.543536
F13   F     F_    0.642475 0.224356 0.275898 -0.540674
F14   F     F_    0.135269 0.273287 0.282720 -0.528559
F15   F     F_    0.142422 0.724394 0.275910 -0.540692
F16   F     F_    0.185861 0.113210 0.077085 -0.452414
F17   F     F_    0.685885 0.613247 0.077084 -0.452409
F18   F     F_    0.788174 0.687212 0.257625 -0.575656
F19   F     F_    0.793088 0.314897 0.254330 -0.543458
F20   F     F_    0.312627 0.992069 0.723598 -0.590019
F21   F     F_    0.812630 0.492068 0.723605 -0.590013
F22   F     F_    0.492061 0.254130 0.641763 -0.602427
F23   F     F_    0.489239 0.749588 0.656598 -0.600946
F24   F     F_    0.991999 0.754027 0.641999 -0.602374
H1    H     H_    0.641764 0.985437 0.890074 0.164424
H2    H     H_    0.141765 0.485450 0.890072 0.164530
H3    H     H_    0.641080 0.979547 0.138576 0.180517
H4    H     H_    0.141081 0.479550 0.138575 0.180510
N1    N     N_R   0.498810 1.000000 0.142780 -0.090962
N2    N     N_R   0.998810 0.500000 0.142780 -0.090953
N3    N     N_R   0.498740 1.000000 0.857170 -0.091637
N4    N     N_R   0.998740 0.500000 0.857170 -0.091645
O1    O     O_R   0.408390 0.908380 0.614690 -0.519051
O2    O     O_R   0.591620 0.908390 0.614640 -0.602924
O3    O     O_R   0.091620 0.591610 0.614640 -0.605596
O4    O     O_R   0.091620 0.408390 0.614640 -0.602879
O5    O     O_R   0.591610 0.091610 0.385310 -0.581847
O6    O     O_R   0.591610 0.908390 0.385310 -0.591733
O7    O     O_R   0.091610 0.591610 0.385310 -0.581869
O8    O     O_R   0.091610 0.408390 0.385310 -0.591760
O9    O     O_R   0.408390 0.091620 0.614690 -0.571051
O10   O     O_R   0.908390 0.408380 0.614690 -0.519080
O11   O     O_R   0.908390 0.591620 0.614690 -0.571021
O12   O     O_R   0.408370 0.908380 0.385360 -0.561957
O13   O     O_R   0.408370 0.091620 0.385360 -0.578980
O14   O     O_R   0.908370 0.408380 0.385360 -0.561920
O15   O     O_R   0.908370 0.591620 0.385360 -0.578970
O16   O     O_R   0.591620 0.091610 0.614640 -0.605651
Zn1   Zn    Zn3+2 0.500010 1.000000 0.653130 1.085829
Zn2   Zn    Zn3+2 0.000010 0.500000 0.653130 1.085889
Zn3   Zn    Zn3+2 0.499980 0.000000 0.346870 1.116997
Zn4   Zn    Zn3+2 0.999980 0.500000 0.346870 1.117008

loop_
_geom_bond_atom_site_label_1
_geom_bond_atom_site_label_2
_ccdc_geom_bond_type
C2    F13   S    
C17   F21   S    
O12   Zn3   S    
C47   C51   A    
C28   O4    A    
C10   C13   A    
C30   H2    S    
C6    C25   S    
C29   H1    S    
C39   C41   A    
C13   F17   S    
O15   Zn4   S    
N1    Zn3   S    
C54   C59   A    
C37   F4    S    
C40   F7    S    
C12   C58   S    
C16   C18   A    
O8    Zn4   S    
C8    C27   S    
C12   O9    A    
C4    C56   A    
C34   O15   A    
C33   F24   S    
N4    Zn2   S    
C37   C43   A    
C3    F14   S    
C1    O1    A    
C41   C46   A    
C19   N4    A    
C32   C54   A    
C19   C21   A    
C22   N1    A    
C52   C54   A    
C43   C48   A    
C8    C52   A    
C61   C63   A    
C56   F12   S    
C30   N4    A    
C3    C7    A    
C53   C58   A    
O6    Zn3   S    
C4    C8    A    
C6    C50   A    
Br7   C9    S    
C28   O8    A    
C33   C38   A    
C24   C30   A    
C23   O10   A    
C3    C45   A    
C2    C63   A    
C35   F2    S    
Br1   C14   S    
O11   Zn2   S    
C34   C60   S    
C1    O12   A    
C62   F18   S    
N2    Zn4   S    
C16   F20   S    
C12   O13   A    
C49   C55   A    
C32   C37   A    
C31   C53   A    
C38   C40   A    
C51   C53   A    
C26   O2    A    
C56   C59   A    
C11   C14   A    
C11   F16   S    
C2    C6    A    
O4    Zn2   S    
C29   N3    A    
O5    Zn3   S    
C22   H3    S    
Br8   C10   S    
C48   C52   A    
C22   C29   A    
C36   F3    S    
C1    C59   S    
C23   O14   A    
C18   N3    A    
C50   C57   A    
C40   C44   A    
C35   C57   A    
O1    Zn1   S    
C10   C21   A    
O14   Zn4   S    
C63   F19   S    
C45   C58   A    
C43   F10   S    
C31   F22   S    
C13   C15   A    
C26   O6    A    
C24   N2    A    
C25   O5    A    
C33   C55   A    
C32   F23   S    
N3    Zn1   S    
C7    C28   S    
C27   O7    A    
O16   Zn1   S    
C46   C50   A    
C36   C42   A    
C55   C60   A    
C4    F15   S    
Br4   C46   S    
O7    Zn4   S    
C9    C20   A    
C7    C51   A    
Br5   C47   S    
C45   F1    S    
Br6   C48   S    
C38   F5    S    
Br3   C44   S    
C31   C36   A    
C5    C64   A    
C17   C19   A    
O9    Zn1   S    
C18   C20   A    
C42   C47   A    
O3    Zn2   S    
C41   F8    S    
O13   Zn3   S    
C5    C26   S    
C57   C61   A    
O2    Zn1   S    
C9    C11   A    
C21   N2    A    
C20   N1    A    
C14   C16   A    
C15   C17   A    
C64   F11   S    
C27   O3    A    
C44   C49   A    
O10   Zn2   S    
C24   H4    S    
C34   O11   A    
C23   C61   S    
C5    C49   A    
C25   O16   A    
C60   C62   A    
Br2   C15   S    
C62   C64   A    
C39   F6    S    
C35   C39   A    
C42   F9    S    
