data_mof_unit_6250.cif
_audit_creation_date              2012-12-10T18:58:45-0500
_audit_creation_method            fapswitch 2.2
_symmetry_space_group_name_H-M    P1
_symmetry_Int_Tables_number       1
_space_group_crystal_system       triclinic
_cell_length_a                    12.993469
_cell_length_b                    10.83849
_cell_length_c                    9.572585
_cell_angle_alpha                 89.478405
_cell_angle_beta                  95.575846
_cell_angle_gamma                 91.327028
_cell_volume                      1341.33286966

loop_
_atom_site_label
_atom_site_type_symbol
_atom_type_description
_atom_site_fract_x
_atom_site_fract_y
_atom_site_fract_z
_atom_type_partial_charge
C1    C     C_R   0.499482 0.262587 0.500320 0.789383
C2    C     C_R   0.026837 0.477576 0.561617 0.114945
C3    C     C_R   0.973415 0.516054 0.432986 0.090923
C4    C     C_R   0.865858 0.522540 0.423833 -0.233725
C5    C     C_R   0.865627 0.455532 0.666436 -0.158279
C6    C     C_R   0.972622 0.447542 0.677215 -0.217263
C7    C     C_R   0.515531 0.063349 0.626150 0.140131
C8    C     C_R   0.502699 0.129566 0.500289 -0.095866
C9    C     C_R   0.494025 0.065619 0.372735 -0.215944
C10   C     C_R   0.489191 0.937615 0.372596 -0.226029
C11   C     C_R   0.497791 0.871270 0.499499 -0.097519
C12   C     C_R   0.300806 0.499215 0.474383 0.833196
C13   C     C_R   0.513359 0.935881 0.625955 0.119361
C14   C     C_3   0.450982 0.929778 0.749510 -0.472472
C15   C     C_3   0.454155 0.069551 0.749730 -0.474277
C16   C     C_R   0.587210 0.534254 0.083203 0.068103
C17   C     C_R   0.419789 0.447469 0.064044 0.523103
C18   C     C_R   0.419065 0.451471 0.914732 -0.189665
C19   C     C_R   0.587224 0.532684 0.936286 0.180263
C20   C     C_3   0.646588 0.650812 0.929404 0.290103
C21   C     C_3   0.649768 0.653973 0.088560 -0.165207
C22   C     C_R   0.497100 0.737543 0.499368 0.773073
C23   C     C_R   0.699308 0.498222 0.525688 0.800506
C24   C     C_R   0.811888 0.492519 0.539552 -0.088909
C25   C     C_R   0.188414 0.501342 0.459532 -0.103940
C26   C     C_R   0.027775 0.546724 0.316043 0.436494
C27   C     C_R   0.136228 0.538242 0.332017 -0.304418
C28   C     C_R   0.133813 0.470721 0.573779 -0.270496
Cu1   Cu    Cu3+1 0.499990 0.499980 0.640670 0.946512
Cu2   Cu    Cu3+1 0.500010 0.500020 0.359330 0.966091
H1    H     H_    0.823624 0.550768 0.326485 0.186840
H2    H     H_    0.494133 0.889868 0.844337 0.197550
H3    H     H_    0.377053 0.110915 0.723604 0.195791
H4    H     H_    0.500209 0.109208 0.843301 0.197078
H5    H     H_    0.352597 0.415734 0.849863 0.153391
H6    H     H_    0.599439 0.722740 0.871670 0.111014
H7    H     H_    0.729033 0.645365 0.142283 0.191973
H8    H     H_    0.824922 0.431159 0.756610 0.185422
H9    H     H_    0.013036 0.418165 0.775903 0.131024
H10   H     H_    0.181845 0.563310 0.247563 0.182645
H11   H     H_    0.174583 0.441813 0.672500 0.149624
H12   H     H_    0.485960 0.113929 0.272909 0.155943
H13   H     H_    0.474065 0.891677 0.273217 0.165111
H14   H     H_    0.372007 0.889579 0.723152 0.202030
N1    N     N_R   0.500660 0.500930 0.148010 -0.218132
N2    N     N_R   0.500660 0.500890 0.852110 -0.232320
O1    O     O_R   0.500000 0.319640 0.618810 -0.579144
O2    O     O_R   0.500010 0.319680 0.381230 -0.578008
O3    O     O_R   0.348990 0.499960 0.599490 -0.597462
O4    O     O_R   0.349000 0.500000 0.361910 -0.529270
O5    O     O_R   0.499990 0.680320 0.618770 -0.588800
O6    O     O_R   0.500000 0.680360 0.381190 -0.593683
O7    O     O_R   0.651000 0.500000 0.638090 -0.550420
O8    O     O_R   0.651010 0.500040 0.400510 -0.586378
O9    O     O_3   0.335064 0.398865 0.124164 -0.593217
C29   C     C_3   0.318275 0.272325 0.091240 0.047666
H15   H     H_    0.323292 0.219604 0.191625 0.170069
H16   H     H_    0.376408 0.232474 0.026702 0.107217
C30   C     C_3   0.209416 0.253044 0.017204 -0.365404
H17   H     H_    0.151671 0.284739 0.086634 0.222840
H18   H     H_    0.200996 0.308652 0.918878 0.198290
C31   C     C_3   0.187191 0.117402 0.981686 -0.916422
H19   H     H_    0.242750 0.084219 0.910028 0.255936
H20   H     H_    0.107635 0.106481 0.928731 0.255368
H21   H     H_    0.193228 0.060140 0.078866 0.256798
O10   O     O_3   0.744981 0.633937 0.882319 -0.609698
C32   C     C_3   0.792655 0.750404 0.859888 0.054678
H22   H     H_    0.877104 0.740340 0.880964 0.165840
H23   H     H_    0.770757 0.822782 0.933205 0.149709
C33   C     C_3   0.770773 0.792054 0.706766 -0.349292
H24   H     H_    0.810890 0.730935 0.638332 0.222769
H25   H     H_    0.686837 0.785306 0.674235 0.221381
C34   C     C_3   0.808028 0.924796 0.685683 -0.920334
H26   H     H_    0.766345 0.988613 0.749513 0.257241
H27   H     H_    0.792354 0.951185 0.573391 0.261748
H28   H     H_    0.892525 0.933919 0.716383 0.258308
N3    N     N_3   0.596686 0.761996 0.132300 -0.628385
H29   H     H_    0.516621 0.746203 0.121131 0.238361
H30   H     H_    0.622307 0.778808 0.237254 0.257392
O11   O     O_3   0.972481 0.594766 0.195719 -0.632603
C35   C     C_3   0.019499 0.579207 0.069687 0.054380
H31   H     H_    0.956457 0.560061 0.985400 0.184854
H32   H     H_    0.069567 0.497144 0.070860 0.124411
C36   C     C_3   0.077059 0.698440 0.030991 -0.354808
H33   H     H_    0.023576 0.777055 0.026607 0.216268
H34   H     H_    0.141284 0.721628 0.111874 0.214030
C37   C     C_3   0.120994 0.686961 0.889632 -0.916323
H35   H     H_    0.174045 0.607877 0.891397 0.259855
H36   H     H_    0.164963 0.772743 0.867054 0.257269
H37   H     H_    0.057394 0.673585 0.804606 0.263815

loop_
_geom_bond_atom_site_label_1
_geom_bond_atom_site_label_2
_ccdc_geom_bond_type
O9    C29   S    
C16   C21   S    
C1    C8    S    
C34   H26   S    
Cu2   N1    S    
C19   C20   S    
C36   C37   S    
C37   H35   S    
C12   O3    A    
C19   N2    A    
C7    C8    A    
Cu1   O3    S    
N3    H29   S    
C25   C28   A    
Cu2   O8    S    
C9    H12   S    
Cu1   Cu2   S    
Cu1   O1    S    
Cu2   O2    S    
C36   H34   S    
Cu1   O5    S    
C5    C6    A    
C4    C24   A    
C28   H11   S    
C29   H15   S    
C31   H20   S    
C8    C9    A    
C23   C24   S    
C33   H24   S    
C9    C10   A    
C17   O9    S    
C15   H4    S    
C7    C15   S    
O10   C32   S    
Cu2   O4    S    
C30   H17   S    
C13   C14   S    
C34   H27   S    
C2    C6    A    
C18   N2    A    
C35   H32   S    
C23   O7    A    
N3    H30   S    
C30   H18   S    
C33   H25   S    
C32   H22   S    
C36   H33   S    
C14   H2    S    
C1    O1    A    
C35   H31   S    
C32   H23   S    
C31   H19   S    
C27   H10   S    
C33   C34   S    
C17   C18   A    
C26   C27   A    
C37   H36   S    
C34   H28   S    
C3    C4    A    
C35   C36   S    
C23   O8    A    
C14   H14   S    
C18   H5    S    
C20   O10   S    
Cu2   O6    S    
C30   C31   S    
C31   H21   S    
C10   H13   S    
C14   C15   S    
C3    C26   A    
C17   N1    A    
O11   C35   S    
C16   N1    A    
C12   O4    A    
C1    O2    A    
C25   C27   A    
C12   C25   S    
C11   C22   S    
C29   C30   S    
Cu1   N2    S    
C32   C33   S    
C2    C3    A    
C11   C13   A    
C5    C24   A    
Cu1   O7    S    
C16   C19   A    
C29   H16   S    
C22   O6    A    
C26   O11   S    
C4    H1    S    
C10   C11   A    
C20   H6    S    
C7    C13   A    
C21   H7    S    
C20   C21   S    
C37   H37   S    
C21   N3    S    
C6    H9    S    
C2    C28   A    
C5    H8    S    
C15   H3    S    
C22   O5    A    
