data_mof_unit_17975.cif
_audit_creation_date              2012-12-11T14:50:39-0500
_audit_creation_method            fapswitch 2.2
_symmetry_space_group_name_H-M    P1
_symmetry_Int_Tables_number       1
_space_group_crystal_system       triclinic
_cell_length_a                    20.748617
_cell_length_b                    7.302349
_cell_length_c                    20.200175
_cell_angle_alpha                 89.994375
_cell_angle_beta                  101.817912
_cell_angle_gamma                 89.997213
_cell_volume                      2995.72774793

loop_
_atom_site_label
_atom_site_type_symbol
_atom_type_description
_atom_site_fract_x
_atom_site_fract_y
_atom_site_fract_z
_atom_type_partial_charge
O1    O     O_R   0.423690 0.494470 0.435930 -0.519344
O2    O     O_R   0.576310 0.994470 0.564070 -0.519079
O3    O     O_R   0.556070 0.822310 0.435760 -0.521430
O4    O     O_R   0.443930 0.322310 0.564240 -0.521464
C1    C     C_R   0.575340 0.656504 0.421266 0.710903
C2    C     C_R   0.424663 0.156499 0.578737 0.710662
O5    O     O_R   0.422940 0.824080 0.428040 -0.545264
O6    O     O_R   0.577060 0.324080 0.571960 -0.545301
O7    O     O_R   0.442240 0.995960 0.556300 -0.535572
O8    O     O_R   0.557760 0.495960 0.443700 -0.535617
C3    C     C_R   0.398938 0.655168 0.411488 0.749535
C4    C     C_R   0.601068 0.155146 0.588499 0.749377
O9    O     O_3   0.506490 0.661310 0.542090 -0.378990
O10   O     O_3   0.493510 0.161310 0.457910 -0.379082
V1    V     V_3+5 0.498800 0.935560 0.492190 1.544711
V2    V     V_3+5 0.501200 0.435560 0.507810 1.544532
C5    C     C_R   0.836847 0.095710 0.859274 -0.121013
C6    C     C_R   0.163141 0.595527 0.140733 -0.120916
C7    C     C_R   0.663750 0.139335 0.639118 -0.089886
C8    C     C_R   0.336253 0.639486 0.360863 -0.089595
C9    C     C_R   0.775923 0.017948 0.671587 -0.080977
C10   C     C_R   0.223836 0.519749 0.328576 -0.081086
C11   C     C_R   0.718174 0.053026 0.621290 0.304943
C12   C     C_R   0.281658 0.554487 0.378830 0.304676
C13   C     C_R   0.667819 0.201232 0.705154 -0.222994
C14   C     C_R   0.332345 0.700236 0.294704 -0.223299
C15   C     C_R   0.723833 0.165609 0.756735 0.009431
C16   C     C_R   0.276281 0.664817 0.243167 0.009409
C17   C     C_R   0.777534 0.064565 0.740875 -0.045084
C18   C     C_R   0.222351 0.565203 0.259205 -0.045116
C19   C     C_R   0.831617 0.017843 0.794758 0.264275
C20   C     C_R   0.168177 0.518697 0.205395 0.263594
C21   C     C_R   0.784477 0.198914 0.874386 0.245102
C22   C     C_R   0.215726 0.697387 0.125440 0.244793
C23   C     C_R   0.727170 0.230985 0.823686 -0.071898
C24   C     C_R   0.273112 0.729058 0.176086 -0.071969
H1    H     H_    0.625647 0.273694 0.715826 0.156028
H2    H     H_    0.374666 0.771693 0.283915 0.155889
C25   C     C_3   0.235269 0.316373 0.796703 -0.257313
C26   C     C_3   0.764767 0.816404 0.203324 -0.257197
C27   C     C_3   0.259212 0.963136 0.806232 0.520921
C28   C     C_3   0.740821 0.463178 0.193804 0.520928
C29   C     C_3   0.314026 0.989072 0.762185 0.231225
C30   C     C_3   0.685997 0.489138 0.237838 0.231326
C31   C     C_1   0.378685 0.153396 0.623763 -0.061119
C32   C     C_1   0.621328 0.653412 0.376249 -0.061120
C33   C     C_3   0.203639 0.113534 0.788034 -0.102762
C34   C     C_3   0.796395 0.613551 0.212001 -0.102720
C35   C     C_3   0.281156 0.339843 0.739127 0.141780
C36   C     C_3   0.718873 0.839874 0.260894 0.141777
C37   C     C_3   0.290438 0.142792 0.706312 -0.103181
C38   C     C_3   0.709586 0.642816 0.293713 -0.103201
C39   C     C_3   0.220064 0.087131 0.663196 -0.287105
C40   C     C_3   0.779958 0.587111 0.336835 -0.287123
C41   C     C_3   0.165970 0.082386 0.709872 0.199017
C42   C     C_3   0.834059 0.582381 0.290166 0.199086
C43   C     C_1   0.339434 0.152779 0.660848 0.128699
C44   C     C_1   0.660586 0.652804 0.339172 0.128746
C45   C     C_1   0.157226 0.091590 0.836012 0.091906
C46   C     C_1   0.842808 0.591593 0.164023 0.091830
C47   C     C_1   0.119909 0.084017 0.875075 -0.013707
C48   C     C_1   0.880114 0.584013 0.124950 -0.013898
H3    H     H_    0.205901 0.201808 0.628413 0.132282
H4    H     H_    0.794115 0.701767 0.371619 0.132183
O11   O     O_R   0.942280 0.741210 0.056360 -0.528476
O12   O     O_R   0.057720 0.241210 0.943640 -0.528455
O13   O     O_R   0.077070 0.409690 0.071960 -0.528155
O14   O     O_R   0.922930 0.909690 0.928040 -0.527825
C49   C     C_R   0.101149 0.578890 0.088572 0.814467
C50   C     C_R   0.898840 0.078916 0.911438 0.814067
O15   O     O_R   0.943940 0.411580 0.064250 -0.527371
O16   O     O_R   0.056060 0.911580 0.935750 -0.527398
O17   O     O_R   0.923670 0.239840 0.935920 -0.527627
O18   O     O_R   0.076330 0.739840 0.064080 -0.527878
C51   C     C_R   0.924740 0.579086 0.078557 0.720286
C52   C     C_R   0.075267 0.079088 0.921451 0.719877
O19   O     O_3   0.993540 0.572620 0.957940 -0.380473
O20   O     O_3   0.006460 0.072620 0.042060 -0.380682
V3    V     V_3+5 0.001200 0.298330 0.007800 1.598862
V4    V     V_3+5 0.998800 0.798330 0.992200 1.599133
O21   O     O_3   0.879594 0.894514 0.786606 -0.623494
H5    H     H_    0.856542 0.785933 0.763576 0.306405
O22   O     O_3   0.119912 0.396559 0.213757 -0.623738
H6    H     H_    0.142703 0.287881 0.237004 0.306413
O23   O     O_3   0.286163 0.966189 0.876524 -0.629258
H7    H     H_    0.303165 0.842316 0.891075 0.349499
O24   O     O_3   0.713882 0.466239 0.123510 -0.629358
H8    H     H_    0.696874 0.342378 0.108968 0.349511
C53   C     C_2   0.383592 0.016978 0.806178 0.893956
O25   O     O_2   0.420751 0.135030 0.793009 -0.513954
O26   O     O_R   0.408016 0.889137 0.856693 -0.642849
H9    H     H_    0.454942 0.916126 0.880653 0.327674
C54   C     C_2   0.616435 0.517138 0.193839 0.893933
O27   O     O_2   0.579268 0.635124 0.207041 -0.514301
O28   O     O_R   0.592019 0.389442 0.143280 -0.642748
H10   H     H_    0.545095 0.416490 0.119322 0.327751
O29   O     O_3   0.318242 0.823025 0.728202 -0.613904
H11   H     H_    0.358280 0.823047 0.708254 0.323615
O30   O     O_3   0.681763 0.323074 0.271816 -0.613883
H12   H     H_    0.641719 0.323115 0.291756 0.323625
O31   O     O_3   0.122295 0.228233 0.689772 -0.606395
H13   H     H_    0.101068 0.213279 0.641208 0.334948
O32   O     O_3   0.877725 0.728227 0.310266 -0.606393
H14   H     H_    0.898948 0.713257 0.358832 0.334810
C55   C     C_2   0.118987 0.918384 0.701140 0.870530
O33   O     O_2   0.119536 0.802792 0.657904 -0.501157
O34   O     O_R   0.066993 0.918511 0.735762 -0.659084
H15   H     H_    0.032602 0.821359 0.719189 0.301789
C56   C     C_2   0.881053 0.418386 0.298911 0.870216
O35   O     O_2   0.880484 0.302730 0.342128 -0.501063
O36   O     O_R   0.933075 0.418584 0.264326 -0.659172
H16   H     H_    0.967481 0.321471 0.280931 0.302091
C57   C     C_2   0.175507 0.447106 0.796033 0.885204
O37   O     O_2   0.151860 0.462030 0.846706 -0.554215
O38   O     O_R   0.141508 0.532869 0.738743 -0.569826
H17   H     H_    0.095475 0.568763 0.743302 0.328015
C58   C     C_2   0.824532 0.947111 0.203991 0.885221
O39   O     O_2   0.848181 0.962027 0.153318 -0.554285
O40   O     O_R   0.858527 0.032873 0.261276 -0.569787
H18   H     H_    0.904543 0.068888 0.256698 0.328056
C59   C     C_2   0.260728 0.473506 0.678905 0.919948
O41   O     O_2   0.304246 0.529962 0.651482 -0.525558
O42   O     O_R   0.195783 0.504468 0.646142 -0.600776
H19   H     H_    0.191733 0.567718 0.600858 0.330782
C60   C     C_2   0.739298 0.973510 0.321112 0.919937
O43   O     O_2   0.695778 0.029971 0.348531 -0.525612
O44   O     O_R   0.804243 0.004437 0.353875 -0.600773
H20   H     H_    0.808290 0.067658 0.399159 0.330749
C61   C     C_2   0.216962 0.948213 0.605851 0.888085
O45   O     O_2   0.166754 0.938340 0.561849 -0.524313
O46   O     O_R   0.272760 0.853694 0.596331 -0.636768
H21   H     H_    0.264885 0.781207 0.552591 0.313912
C62   C     C_2   0.783053 0.448156 0.394175 0.888191
O47   O     O_2   0.833258 0.438236 0.438181 -0.524340
O48   O     O_R   0.727251 0.353653 0.403689 -0.636768
H22   H     H_    0.735122 0.281123 0.447426 0.313692
O49   O     O_3   0.790688 0.260845 0.940267 -0.625842
H23   H     H_    0.747180 0.293691 0.949507 0.322261
O50   O     O_3   0.209632 0.758370 0.059452 -0.625795
H24   H     H_    0.253213 0.790030 0.050133 0.322367
C63   C     C_2   0.835173 0.945080 0.650145 0.790615
O51   O     O_2   0.833010 0.796352 0.621912 -0.540340
O52   O     O_R   0.893396 0.047210 0.662447 -0.617071
H25   H     H_    0.930298 0.984073 0.645289 0.327688
C64   C     C_2   0.164380 0.448672 0.350112 0.790748
O53   O     O_2   0.166101 0.300232 0.378490 -0.540485
O54   O     O_R   0.106450 0.552108 0.337674 -0.616992
H26   H     H_    0.069337 0.490097 0.354839 0.328063
C65   C     C_2   0.672277 0.340329 0.840240 0.759372
O55   O     O_2   0.681405 0.500118 0.857784 -0.534382
O56   O     O_R   0.610530 0.259514 0.836346 -0.644850
H27   H     H_    0.577166 0.347576 0.848834 0.332763
C66   C     C_2   0.328300 0.836703 0.159312 0.759702
O57   O     O_2   0.319589 0.996314 0.141374 -0.533917
O58   O     O_R   0.389848 0.754463 0.163448 -0.645010
H28   H     H_    0.423451 0.841397 0.150770 0.333040
O59   O     O_3   0.713097 0.009401 0.553644 -0.640162
H29   H     H_    0.757222 0.996216 0.542958 0.307512
O60   O     O_3   0.286668 0.511862 0.446557 -0.640506
H30   H     H_    0.242546 0.498412 0.457213 0.307680
O61   O     O_3   0.344181 0.403305 0.770764 -0.584953
H31   H     H_    0.339345 0.527337 0.789304 0.346217
O62   O     O_3   0.655850 0.903367 0.229248 -0.584990
H32   H     H_    0.660687 0.027408 0.210709 0.346221
C67   C     C_2   0.280529 0.348380 0.868742 0.866612
O63   O     O_2   0.334210 0.274247 0.884720 -0.496899
O64   O     O_R   0.264350 0.476182 0.914595 -0.643793
H33   H     H_    0.298938 0.486306 0.957906 0.317669
C68   C     C_2   0.719511 0.848458 0.131283 0.866346
O65   O     O_2   0.665838 0.774313 0.115296 -0.497037
O66   O     O_R   0.735681 0.976331 0.085444 -0.643836
H34   H     H_    0.701097 0.986484 0.042130 0.317772
O67   O     O_3   0.229619 0.791660 0.791259 -0.637720
H35   H     H_    0.201338 0.771982 0.824664 0.309193
O68   O     O_3   0.770413 0.291692 0.208796 -0.637695
H36   H     H_    0.798700 0.272004 0.175397 0.309149

loop_
_geom_bond_atom_site_label_1
_geom_bond_atom_site_label_2
_ccdc_geom_bond_type
O14   V4    S    
O15   C51   A    
O24   H8    S    
O4    V2    S    
C67   O63   D    
C2    C31   S    
C15   C17   A    
C58   O39   D    
C68   O66   S    
C68   O65   D    
O28   H10   S    
O1    C3    A    
O16   C52   A    
O2    C4    A    
C2    O7    A    
O15   V3    S    
O61   H31   S    
C12   O60   S    
O48   H22   S    
O23   H7    S    
O5    C3    A    
O12   V3    S    
C55   O34   S    
C31   C43   T    
C29   C53   S    
C60   O43   D    
C5    C21   A    
C41   C55   S    
C25   C33   S    
C61   O45   D    
C28   O68   S    
C65   O56   S    
O60   H30   S    
C64   O53   D    
C30   O30   S    
O20   V4    S    
O52   H25   S    
O29   H11   S    
C22   O50   S    
C46   C48   T    
C26   C34   S    
C30   C54   S    
O32   H14   S    
O54   H26   S    
C13   H1    S    
O59   H29   S    
C66   O57   D    
O62   H32   S    
C21   O49   S    
C25   C57   S    
C36   C38   S    
O34   H15   S    
C37   C43   S    
C53   O26   S    
C54   O27   D    
C11   O59   S    
C35   O61   S    
O49   H23   S    
C30   C38   S    
C6    C49   S    
O5    V1    S    
C26   C58   S    
O56   H27   S    
O12   C52   A    
C5    C50   S    
O6    V2    S    
O11   V4    S    
O18   V4    S    
C32   C44   T    
C17   C19   A    
C27   C29   S    
C28   C30   S    
C26   C68   S    
C64   O54   S    
C38   C40   S    
C24   C66   S    
C34   C46   S    
C39   C41   S    
C47   C52   S    
C27   C33   S    
O50   H24   S    
C40   C42   S    
C3    C8    S    
C45   C47   T    
O31   H13   S    
C8    C12   A    
O42   H19   S    
O13   V3    S    
O4    C2    A    
O64   H33   S    
O1    V2    S    
C58   O40   S    
O20   V3    S    
C14   H2    S    
C35   C37   S    
O67   H35   S    
C40   C62   S    
C9    C17   A    
O21   H5    S    
C37   C39   S    
C25   C67   S    
C7    C11   A    
O22   H6    S    
C10   C64   S    
O6    C4    A    
C35   C59   S    
C50   O17   A    
O17   V3    S    
O19   V3    S    
C49   O18   A    
C36   C60   S    
C28   C34   S    
C61   O46   S    
O2    V1    S    
C6    C22   A    
O66   H34   S    
C16   C24   A    
C59   O41   D    
C38   C44   S    
O14   C50   A    
C25   C35   S    
C9    C11   A    
C62   O47   D    
C5    C19   A    
C10   C12   A    
C48   C51   S    
C66   O58   S    
O46   H21   S    
C42   C56   S    
O26   H9    S    
O3    V1    S    
C33   C41   S    
C57   O37   D    
C1    C32   S    
O19   V4    S    
C34   C42   S    
C20   O22   S    
C27   O67   S    
C10   C18   A    
O36   H16   S    
C36   O62   S    
C29   O29   S    
C42   O32   S    
O3    C1    A    
O11   C51   A    
O40   H18   S    
C13   C15   A    
C27   O23   S    
C55   O33   D    
C41   O31   S    
C14   C16   A    
C19   O21   S    
O30   H12   S    
C15   C23   A    
C63   O52   S    
O7    V1    S    
C9    C63   S    
C1    O8    A    
O16   V4    S    
O68   H36   S    
O8    V2    S    
C65   O55   D    
C18   C20   A    
C39   H3    S    
C29   C37   S    
O38   H17   S    
C54   O28   S    
C8    C14   A    
C26   C36   S    
C56   O36   S    
C4    C7    S    
C16   C18   A    
C21   C23   A    
C6    C20   A    
C22   C24   A    
C7    C13   A    
C59   O42   S    
C33   C45   S    
C39   C61   S    
C40   H4    S    
C67   O64   S    
O9    V2    S    
C56   O35   D    
O58   H28   S    
C60   O44   S    
C62   O48   S    
O10   V1    S    
C28   O24   S    
C23   C65   S    
O13   C49   A    
C53   O25   D    
C63   O51   D    
O44   H20   S    
C57   O38   S    
