data_mof_unit_8897.cif
_audit_creation_date              2013-03-05T16:14:47-0500
_audit_creation_method            fapswitch 2.2
_symmetry_space_group_name_H-M    P1
_symmetry_Int_Tables_number       1
_space_group_crystal_system       triclinic
_cell_length_a                    8.405183
_cell_length_b                    17.207777
_cell_length_c                    19.100282
_cell_angle_alpha                 103.45802
_cell_angle_beta                  92.503989
_cell_angle_gamma                 98.467277
_cell_volume                      2648.67624498

loop_
_atom_site_label
_atom_site_type_symbol
_atom_site_description
_atom_site_fract_x
_atom_site_fract_y
_atom_site_fract_z
_atom_type_partial_charge
P1    P     P_3+3 0.040700 0.421000 0.332140 0.466590
O1    O     O_2   0.873520 0.443690 0.322540 -0.372955
O2    O     O_3   0.122020 0.450920 0.411670 -0.401601
O3    O     O_3   0.663590 0.591680 0.375790 -0.373984
O4    O     O_2   0.719245 0.521623 0.245469 -0.437682
O5    O     O_3   0.011106 0.315268 0.304356 -0.551407
O6    O     O_3   0.715292 0.675548 0.255334 -0.630140
H1    H     H_    0.755319 0.750769 0.359158 0.087055
C1    C     C_3   0.811213 0.819018 0.276812 0.098198
H2    H     H_    0.925821 0.801109 0.261509 0.108157
P2    P     P_3+3 0.677490 0.686860 0.568200 0.487067
P3    P     P_3+3 0.125708 0.738694 0.426286 0.543077
O7    O     O_2   0.853350 0.696990 0.547450 -0.345236
O8    O     O_3   0.086060 0.635230 0.414460 -0.419598
O9    O     O_2   0.972060 0.769273 0.455437 -0.380028
O10   O     O_3   0.697987 0.732883 0.660623 -0.588727
O11   O     O_3   0.131884 0.756548 0.339010 -0.457742
C2    C     C_3   0.085939 0.681900 0.286906 0.549569
H3    H     H_    0.967346 0.651066 0.296376 0.107525
H4    H     H_    0.170482 0.639875 0.291026 0.109548
C3    C     C_3   0.082340 0.693314 0.209490 -0.920946
H5    H     H_    0.957233 0.680168 0.183993 0.236081
H6    H     H_    0.136285 0.755788 0.208296 0.308270
C4    C     C_3   0.265517 0.716681 0.643506 0.399285
H7    H     H_    0.374586 0.688713 0.630923 0.081274
H8    H     H_    0.184156 0.706633 0.593789 0.082587
C5    C     C_3   0.317748 0.807191 0.674874 -0.857565
H9    H     H_    0.385097 0.817962 0.728472 0.282431
H10   H     H_    0.398012 0.833807 0.639155 0.188653
H11   H     H_    0.210117 0.837933 0.681275 0.272725
Ba1   Ba    Ba6+2 0.854170 0.535040 0.467640 1.590960
C6    C     C_3   0.938756 0.281394 0.356893 0.353729
H12   H     H_    0.820553 0.301466 0.366138 0.094295
H13   H     H_    0.018793 0.298382 0.407761 0.111056
C7    C     C_3   0.911804 0.189633 0.329095 -0.832492
H14   H     H_    0.834226 0.171466 0.277525 0.271556
H15   H     H_    0.851677 0.159817 0.368565 0.218195
H16   H     H_    0.029412 0.168376 0.319810 0.271734
C8    C     C_3   0.708817 0.681129 0.706355 0.037388
H17   H     H_    0.817030 0.651295 0.697044 0.107930
H18   H     H_    0.598446 0.635024 0.697856 0.139199
C9    C     C_3   0.722854 0.737117 0.783072 0.541276
H19   H     H_    0.631757 0.778190 0.784175 0.062288
P4    P     P_3+3 0.149010 0.579070 0.667870 0.519735
O12   O     O_2   0.316180 0.556340 0.677510 -0.365129
O13   O     O_3   0.067690 0.549150 0.588340 -0.403223
O14   O     O_3   0.526120 0.408390 0.624220 -0.348625
O15   O     O_3   0.182949 0.684709 0.694832 -0.492753
P5    P     P_3+3 0.064048 0.259474 0.571661 0.486033
O16   O     O_3   0.608980 0.401570 0.457310 -0.407779
O17   O     O_3   0.103650 0.364840 0.585560 -0.400975
O18   O     O_2   0.206905 0.222740 0.536267 -0.419982
O19   O     O_3   0.061428 0.234232 0.655369 -0.507389
Ba2   Ba    Ba6+2 0.335670 0.465030 0.532370 1.599683
P6    P     P_3+3 0.627548 0.588739 0.284124 0.461697
C10   C     C_3   0.709227 0.751070 0.304107 0.690598
H20   H     H_    0.750999 0.828063 0.227063 0.104932
O20   O     O_3   0.580730 0.598500 0.542710 -0.404930
C11   C     C_3   0.462349 0.343114 0.306741 0.426900
H21   H     H_    0.352013 0.364647 0.328056 0.091365
H22   H     H_    0.567504 0.392456 0.323629 0.128723
C12   C     C_3   0.440723 0.320473 0.224637 -0.950839
H23   H     H_    0.331251 0.274126 0.205833 0.278026
H24   H     H_    0.427408 0.374697 0.204273 0.211931
H25   H     H_    0.547905 0.295946 0.202272 0.266462
P7    P     P_3+3 0.511320 0.301035 0.425488 0.451907
O21   O     O_2   0.336360 0.303040 0.452600 -0.352065
O22   O     O_3   0.487910 0.274728 0.330995 -0.557487
H26   H     H_    0.149831 0.651280 0.174782 0.254762
C13   C     C_3   0.092546 0.304612 0.711951 0.466001
H27   H     H_    0.216832 0.335553 0.712326 0.109544
H28   H     H_    0.011985 0.348558 0.706790 0.110351
C14   C     C_3   0.067526 0.281265 0.783451 -0.844825
H29   H     H_    0.130698 0.329537 0.828823 0.207389
H30   H     H_    0.937198 0.271589 0.791491 0.270778
H31   H     H_    0.114038 0.224697 0.784879 0.287306
P8    P     P_3+3 0.559829 0.420343 0.716556 0.467447
C15   C     C_3   0.502207 0.260821 0.688462 0.595543
O23   O     O_2   0.456197 0.483090 0.750847 -0.401812
O24   O     O_3   0.488173 0.330672 0.742946 -0.591802
H32   H     H_    0.440622 0.263433 0.636618 0.053150
H33   H     H_    0.437387 0.129528 0.668129 0.111246
C16   C     C_3   0.416090 0.184319 0.708483 -0.126421
H34   H     H_    0.284717 0.182424 0.705043 0.123716
C17   C     C_R   0.086722 0.524706 0.800785 -0.198309
H35   H     H_    0.203154 0.559719 0.821633 0.199150
C18   C     C_R   0.028472 0.528447 0.730220 0.293600
C19   C     C_R   0.830891 0.449043 0.815015 -0.282247
H36   H     H_    0.743148 0.421246 0.843709 0.139336
C20   C     C_R   0.770817 0.458846 0.748874 0.385872
C21   C     C_R   0.349529 0.551376 0.185304 -0.304294
H37   H     H_    0.415067 0.591969 0.157184 0.200291
C22   C     C_R   0.413111 0.551089 0.254154 0.396155
C23   C     C_R   0.125642 0.450965 0.196471 -0.289274
H38   H     H_    0.027993 0.401895 0.174473 0.167126
C24   C     C_R   0.167659 0.468185 0.271378 0.289383
C25   C     C_R   0.992891 0.477774 0.843241 0.045172
C26   C     C_R   0.870489 0.494463 0.705537 -0.403776
H39   H     H_    0.822439 0.498325 0.653156 0.155619
C27   C     C_R   0.209615 0.496335 0.151728 0.024224
C28   C     C_R   0.316486 0.514914 0.298897 -0.492870
H40   H     H_    0.360263 0.520194 0.354192 0.165328
C29   C     C_R   0.822580 0.369046 0.943086 -0.164715
C30   C     C_R   0.712144 0.348773 0.990999 -0.034685
C31   C     C_R   0.729171 0.393319 0.062447 -0.148807
C32   C     C_R   0.866041 0.451464 0.087307 -0.195021
C33   C     C_R   0.992790 0.459706 0.042550 0.091610
C34   C     C_R   0.952300 0.433770 0.966406 0.065019
C35   C     C_R   0.157436 0.484900 0.070829 -0.031761
C36   C     C_R   0.272981 0.489371 0.018220 0.110374
C37   C     C_R   0.220954 0.481447 0.943640 0.048934
C38   C     C_R   0.055179 0.464224 0.917840 -0.064756
C39   C     C_R   0.441100 0.497353 0.036158 -0.163828
C40   C     C_R   0.552555 0.512789 0.987672 -0.133333
C41   C     C_R   0.500546 0.502893 0.916382 0.048276
C42   C     C_R   0.338249 0.479099 0.894160 -0.106899
H41   H     H_    0.810084 0.330945 0.888991 0.156930
H42   H     H_    0.611322 0.300196 0.972281 0.182351
H43   H     H_    0.638780 0.381525 0.098945 0.145547
H44   H     H_    0.876507 0.486324 0.142356 0.187626
H45   H     H_    0.490741 0.489247 0.086175 0.137027
H46   H     H_    0.680281 0.526566 0.004083 0.142405
H47   H     H_    0.586466 0.509990 0.877783 0.169336
H48   H     H_    0.303303 0.453911 0.838120 0.155610
C43   C     C_2   0.427575 0.721248 0.489896 -0.329200
C44   C     C_3   0.304233 0.778384 0.493955 0.155900
C45   C     C_2   0.381542 0.863146 0.495031 -0.130511
C46   C     C_2   0.542757 0.885843 0.511024 0.125738
C47   C     C_2   0.643194 0.825052 0.524558 -0.168379
C48   C     C_1   0.574768 0.749897 0.521529 0.255827
C49   C     C_R   0.806710 0.133007 0.513262 -0.159160
C50   C     C_R   0.870302 0.214372 0.519896 0.334118
C51   C     C_R   0.620391 0.234290 0.463790 0.271075
C52   C     C_R   0.556152 0.153145 0.456748 -0.259101
C53   C     C_R   0.646963 0.102240 0.483248 0.085897
C54   C     C_2   0.622234 0.970219 0.517972 -0.118972
C55   C     C_2   0.569906 0.017869 0.478206 -0.027725
C56   C     C_R   0.775577 0.264916 0.496589 -0.425051
H49   H     H_    0.463577 0.994655 0.440638 0.168904
H50   H     H_    0.771194 0.844135 0.540368 0.176733
H51   H     H_    0.881595 0.095357 0.532770 0.131631
H52   H     H_    0.729063 0.991573 0.555235 0.135260
H53   H     H_    0.303883 0.906681 0.489036 0.126239
H54   H     H_    0.435096 0.130108 0.431501 0.166613
H55   H     H_    0.390418 0.656711 0.467680 0.165282
H56   H     H_    0.823606 0.328440 0.503866 0.164991
S1    S     S_3+6 0.865262 0.914960 0.340795 0.007090
O25   O     O_2   0.746318 0.969803 0.331874 -0.242944
O26   O     O_2   0.029393 0.953094 0.326339 -0.264720
O27   O     O_3   0.872444 0.903462 0.425609 -0.535430
H57   H     H_    0.943334 0.952636 0.454503 0.352451
N1    N     N_R   0.883368 0.786229 0.800118 0.251281
O28   O     O_R   0.009427 0.752948 0.809467 -0.310453
O29   O     O_R   0.900636 0.864226 0.807911 -0.337437
S2    S     S_3+6 0.675704 0.686056 0.852414 -0.029548
O30   O     O_2   0.681276 0.748258 0.922695 -0.241748
O31   O     O_2   0.508619 0.638250 0.835556 -0.306141
O32   O     O_3   0.811230 0.625222 0.859340 -0.564591
H58   H     H_    0.821686 0.624936 0.911133 0.367816
S3    S     S_3+6 0.508295 0.769778 0.304360 -0.023228
O33   O     O_2   0.420915 0.713259 0.343312 -0.360758
O34   O     O_2   0.495280 0.855011 0.342494 -0.251984
O35   O     O_3   0.430745 0.749977 0.218387 -0.556135
H59   H     H_    0.455751 0.801701 0.203742 0.367809
N2    N     N_R   0.671494 0.254252 0.677545 0.195775
O36   O     O_R   0.752571 0.303630 0.645323 -0.495941
O37   O     O_R   0.732736 0.191713 0.686643 -0.391863
N3    N     N_R   0.471087 0.180288 0.781037 0.290767
O38   O     O_R   0.436128 0.231819 0.837428 -0.382158
O39   O     O_R   0.541890 0.120545 0.789914 -0.308535

loop_
_geom_bond_atom_site_label_1
_geom_bond_atom_site_label_2
_geom_bond_distance
_ccdc_geom_bond_type
P7    O22   1.750286 S    
N2    O36   1.294088 A    
C51   C52   1.394118 A    
C5    H10   1.106799 S    
C2    C3    1.535899 S    
C14   H30   1.106413 S    
C14   H29   1.103539 S    
C31   C32   1.393621 A    
O5    C6    1.392025 S    
S1    O25   1.502314 D    
C4    C5    1.522751 S    
O6    P6    1.780746 S    
O8    Ba1   2.793124 S    
P6    C22   1.841017 S    
C46   C47   1.496859 S    
H1    C10   1.106006 S    
C40   C41   1.375614 A    
C8    H18   1.107489 S    
C51   C56   1.394297 A    
C17   H35   1.076999 S    
C55   H49   1.085632 S    
O16   Ba2   2.970336 S    
Ba1   O20   2.971345 S    
S1    O26   1.503663 D    
C4    H8    1.109664 S    
C2    H3    1.101144 S    
C49   C53   1.412055 A    
C46   C54   1.479489 S    
O2    Ba2   2.801415 S    
C15   O24   1.418423 S    
P3    C44   1.872553 S    
C32   C33   1.406206 A    
C50   C56   1.393450 A    
C41   C42   1.383005 A    
P1    Ba1   3.450182 S    
P1    O1    1.527410 D    
O7    Ba1   2.849431 S    
C36   C37   1.441050 A    
C54   H52   1.083104 S    
C15   C16   1.543052 S    
C37   C38   1.422168 A    
P5    O17   1.749040 S    
Ba1   O13   2.800768 S    
P3    O11   1.765560 S    
C12   H24   1.109197 S    
C33   C34   1.428328 A    
C37   C42   1.393612 A    
C21   C27   1.419381 A    
P4    C18   1.879350 S    
C9    N1    1.462258 S    
C1    H2    1.085570 S    
C2    H4    1.098647 S    
C19   C25   1.415160 A    
C49   H51   1.080151 S    
P1    C24   1.853813 S    
O3    Ba1   2.757497 S    
C18   C26   1.384122 A    
C17   C18   1.432626 A    
P7    O21   1.582750 D    
P2    Ba1   3.431566 S    
C11   H21   1.107741 S    
N2    O37   1.302172 A    
C3    H5    1.108156 S    
S2    O32   1.677313 S    
C33   C35   1.429626 A    
C29   H41   1.078600 S    
O6    C10   1.421076 S    
O19   C13   1.405664 S    
C43   C48   1.324816 D    
C30   C31   1.390735 A    
P4    O13   1.575236 S    
C8    C9    1.543878 S    
C30   H42   1.081898 S    
P8    O23   1.533359 D    
P5    C50   1.833520 S    
P8    C20   1.825624 S    
C11   H22   1.110299 S    
C41   H47   1.068854 S    
P1    O5    1.749146 S    
C4    O15   1.394066 S    
C28   H40   1.081948 S    
C7    H16   1.110863 S    
C4    H7    1.106856 S    
C22   C28   1.391711 A    
C8    H17   1.109783 S    
C25   C38   1.576113 S    
C5    H11   1.110714 S    
Ba2   O21   2.849599 S    
C1    S1    1.793606 S    
C34   C38   1.430289 A    
C3    H26   1.102259 S    
O1    Ba1   2.874931 S    
P1    O2    1.575236 S    
C7    H14   1.110694 S    
S3    O34   1.500190 D    
C23   C24   1.409684 A    
S3    O35   1.678730 S    
C12   H23   1.110571 S    
C11   O22   1.401809 S    
C21   C22   1.399072 A    
P7    C51   1.826853 S    
P2    O10   1.748046 S    
C16   H34   1.098510 S    
P3    O9    1.543142 D    
C23   C27   1.427948 A    
P5    O18   1.547221 D    
O13   Ba2   2.960038 S    
C13   C14   1.525220 S    
O11   C2    1.419457 S    
C1    C10   1.549639 S    
C45   H53   1.085255 S    
C19   H36   1.061374 S    
O2    Ba1   2.959111 S    
S2    O31   1.499889 D    
O16   P7    1.756376 S    
C36   C39   1.418332 A    
C29   C34   1.413044 A    
O14   Ba2   2.756836 S    
N3    O38   1.300995 A    
C19   C20   1.395674 A    
O12   Ba2   2.875556 S    
C26   H39   1.082628 S    
C3    H6    1.109320 S    
O3    P6    1.751481 S    
C43   C44   1.522866 S    
C14   H31   1.106615 S    
C9    H19   1.113603 S    
O14   P8    1.733012 S    
Ba1   O16   2.814372 S    
C45   C46   1.354417 D    
P2    O20   1.570669 S    
P2    C48   1.837230 S    
S1    O27   1.676679 S    
C29   C30   1.395804 A    
C13   H27   1.099361 S    
P4    O12   1.527723 D    
C7    H15   1.106345 S    
C39   C40   1.386662 A    
Ba2   O20   2.813678 S    
P8    O24   1.764271 S    
C53   C55   1.479572 S    
C11   C12   1.521173 S    
C42   H48   1.067213 S    
C12   H25   1.110804 S    
C32   H44   1.075132 S    
O4    P6    1.545305 D    
C6    C7    1.523272 S    
N1    O29   1.300905 A    
C54   C55   1.345206 D    
C52   C53   1.405569 A    
C16   N3    1.461907 S    
O17   Ba2   2.793907 S    
C6    H12   1.107057 S    
C9    S2    1.779961 S    
C47   C48   1.322818 D    
C10   S3    1.765231 S    
P4    O15   1.746356 S    
C43   H55   1.085286 S    
C35   C36   1.434598 A    
S3    O33   1.487629 D    
P2    O7    1.542665 D    
C15   H32   1.110544 S    
O32   H58   0.990534 S    
C47   H50   1.085323 S    
C56   H56   1.082405 S    
C44   C45   1.501950 S    
P5    O19   1.751853 S    
N3    O39   1.300866 A    
C15   N2    1.463968 S    
C1    H20   1.110536 S    
Ba1   Ba2   4.588116 S    
C23   H38   1.078804 S    
O35   H59   0.990224 S    
C17   C25   1.450847 A    
O10   C8    1.394065 S    
C52   H54   1.083674 S    
C40   H46   1.080763 S    
P4    Ba2   3.450806 S    
P3    O8    1.721448 S    
C27   C35   1.546793 S    
C39   H45   1.072634 S    
N1    O28   1.300877 A    
H33   C16   1.112906 S    
S2    O30   1.503605 D    
O27   H57   0.990478 S    
C31   H43   1.082169 S    
C13   H28   1.104411 S    
C24   C28   1.391853 A    
C20   C26   1.381366 A    
C21   H37   1.080278 S    
C49   C50   1.397565 A    
C6    H13   1.111211 S    
C5    H9    1.110393 S    
