data_mof_unit_6221.cif
_audit_creation_date              2012-12-10T20:37:27-0500
_audit_creation_method            fapswitch 2.2
_symmetry_space_group_name_H-M    P1
_symmetry_Int_Tables_number       1
_space_group_crystal_system       triclinic
_cell_length_a                    15.658257
_cell_length_b                    10.802852
_cell_length_c                    9.912736
_cell_angle_alpha                 90.334502
_cell_angle_beta                  88.984999
_cell_angle_gamma                 89.024416
_cell_volume                      1676.23954993

loop_
_atom_site_label
_atom_site_type_symbol
_atom_type_description
_atom_site_fract_x
_atom_site_fract_y
_atom_site_fract_z
_atom_type_partial_charge
C1    C     C_R   0.500794 0.260420 0.499098 0.923889
C2    C     C_3   0.082456 0.501518 0.510813 0.022145
C3    C     C_3   0.963163 0.583561 0.572058 0.440738
C4    C     C_3   0.917135 0.483592 0.492771 0.011189
C5    C     C_3   0.024376 0.604145 0.450993 -0.313048
C6    C     C_3   0.978817 0.500905 0.373743 0.470421
C7    C     C_1   0.173346 0.505953 0.510890 -0.013713
C8    C     C_1   0.826193 0.483010 0.490373 0.075997
C9    C     C_R   0.500125 0.062367 0.613900 -0.035256
C10   C     C_R   0.498383 0.128862 0.495256 -0.238379
C11   C     C_R   0.490909 0.063269 0.371700 0.331625
C12   C     C_R   0.337963 0.501920 0.501408 0.867370
C13   C     C_R   0.478379 0.934930 0.374720 0.366150
C14   C     C_R   0.489541 0.870661 0.497457 -0.303434
C15   C     C_R   0.495840 0.938804 0.614879 -0.083584
C16   C     C_3   0.500389 0.932302 0.766132 0.394846
C17   C     C_3   0.506239 0.074627 0.763499 -0.489075
C18   C     C_R   0.433421 0.450986 0.072369 0.161629
C19   C     C_R   0.567541 0.543339 0.071646 0.373146
C20   C     C_R   0.571304 0.531100 0.927999 0.372156
C21   C     C_R   0.433110 0.452310 0.930311 0.094287
C22   C     C_3   0.342525 0.495315 0.926443 -0.461629
C23   C     C_R   0.495889 0.739287 0.499964 0.909080
C24   C     C_3   0.342525 0.495351 0.079515 -0.475359
C25   C     C_R   0.661939 0.497701 0.498490 0.882925
C26   C     C_3   0.976209 0.385232 0.552290 0.447534
C27   C     C_3   0.037791 0.398578 0.430530 -0.342237
C28   C     C_1   0.248844 0.505231 0.506108 -0.205493
C29   C     C_1   0.750813 0.488993 0.493657 -0.167255
C30   C     C_3   0.022246 0.484458 0.634736 -0.366006
H1    H     H_    0.070356 0.322121 0.373357 0.138662
H2    H     H_    0.560138 0.886021 0.800153 0.100988
H3    H     H_    0.450261 0.124706 0.809520 0.214132
H4    H     H_    0.569591 0.109137 0.793737 0.166863
H5    H     H_    0.335494 0.589086 0.882233 0.222574
H6    H     H_    0.300377 0.424121 0.883059 0.201246
H7    H     H_    0.335508 0.589700 0.123901 0.207450
H8    H     H_    0.299505 0.425238 0.124356 0.205025
H9    H     H_    0.045655 0.695435 0.414265 0.135786
H10   H     H_    0.042220 0.477360 0.741203 0.132694
N1    N     N_R   0.499430 0.499140 0.142800 -0.160448
N2    N     N_R   0.499430 0.499180 0.857150 -0.158274
O1    O     O_R   0.500010 0.316790 0.614690 -0.630098
O2    O     O_R   0.500000 0.316760 0.385350 -0.564201
O3    O     O_R   0.376780 0.500010 0.614650 -0.618081
O4    O     O_R   0.376770 0.499970 0.385310 -0.626286
O5    O     O_R   0.500000 0.683240 0.614650 -0.604127
O6    O     O_R   0.499990 0.683210 0.385310 -0.555571
O7    O     O_R   0.623230 0.500030 0.614690 -0.587995
O8    O     O_R   0.623220 0.499990 0.385350 -0.562296
Zn1   Zn    Zn3+2 0.500010 0.500020 0.653130 0.970059
Zn2   Zn    Zn3+2 0.499990 0.499980 0.346870 1.003860
O9    O     O_3   0.634120 0.593922 0.141786 -0.583009
C31   C     C_3   0.640789 0.721085 0.111808 0.128225
H11   H     H_    0.577241 0.768993 0.112593 0.176350
H12   H     H_    0.672298 0.733990 0.011725 0.164199
C32   C     C_3   0.695803 0.782009 0.217370 -0.805317
H13   H     H_    0.759363 0.734893 0.220226 0.265304
H14   H     H_    0.704905 0.880861 0.191945 0.181096
H15   H     H_    0.664477 0.776117 0.318441 0.262616
O10   O     O_3   0.647608 0.554512 0.861532 -0.619504
C33   C     C_3   0.700735 0.446237 0.861346 0.127463
H16   H     H_    0.741326 0.448717 0.768733 0.196832
H17   H     H_    0.664049 0.358673 0.855345 0.105838
C34   C     C_3   0.761579 0.442789 0.981023 -0.338070
H18   H     H_    0.789438 0.535662 0.996546 0.257802
H19   H     H_    0.726262 0.415775 0.073852 0.246007
C35   C     C_3   0.833942 0.348144 0.957210 -0.947035
H20   H     H_    0.807666 0.255553 0.934671 0.257049
H21   H     H_    0.872961 0.340767 0.049253 0.286629
H22   H     H_    0.875752 0.377204 0.871753 0.283057
O11   O     O_3   0.945274 0.272586 0.602546 -0.604502
C36   C     C_3   0.013808 0.204216 0.657083 0.126068
H23   H     H_    0.042540 0.254678 0.742849 0.134360
H24   H     H_    0.063890 0.183249 0.578692 0.139031
C37   C     C_3   0.980753 0.082718 0.710413 -0.859911
H25   H     H_    0.951923 0.029466 0.627104 0.268122
H26   H     H_    0.034332 0.027778 0.753073 0.200728
H27   H     H_    0.931698 0.100614 0.790818 0.261596
O12   O     O_3   0.951852 0.507617 0.238792 -0.640303
C38   C     C_3   0.023484 0.510440 0.149435 0.094865
H28   H     H_    0.011352 0.446781 0.063775 0.150121
H29   H     H_    0.084688 0.477810 0.194120 0.136020
C39   C     C_3   0.034528 0.640808 0.093763 -0.331950
H30   H     H_    0.978179 0.665538 0.032704 0.227662
H31   H     H_    0.038224 0.708690 0.177753 0.225468
C40   C     C_3   0.115672 0.648752 0.006878 -1.025065
H32   H     H_    0.172782 0.630880 0.069064 0.281235
H33   H     H_    0.119986 0.742808 0.963168 0.268337
H34   H     H_    0.115169 0.579771 0.923549 0.262133
O13   O     O_3   0.913222 0.674554 0.640708 -0.597431
C41   C     C_3   0.964527 0.745785 0.725111 0.115545
H35   H     H_    0.002389 0.811620 0.663707 0.143108
H36   H     H_    0.008685 0.687734 0.785086 0.151322
C42   C     C_3   0.906491 0.817001 0.824081 -0.844108
H37   H     H_    0.867461 0.751433 0.883966 0.257148
H38   H     H_    0.945463 0.872220 0.894107 0.209491
H39   H     H_    0.862717 0.879750 0.768700 0.266194
O14   O     O_3   0.492061 0.124292 0.249064 -0.588729
C43   C     C_3   0.568721 0.093999 0.177690 0.175747
H40   H     H_    0.559798 0.009166 0.115948 0.171558
H41   H     H_    0.624215 0.079320 0.245421 0.111189
C44   C     C_3   0.590968 0.199515 0.083521 -0.872238
H42   H     H_    0.604910 0.283504 0.143577 0.263765
H43   H     H_    0.648329 0.173850 0.021394 0.194885
H44   H     H_    0.536847 0.219934 0.015939 0.248591
O15   O     O_3   0.457632 0.872367 0.257662 -0.637814
C45   C     C_3   0.371741 0.898916 0.224009 0.123048
H45   H     H_    0.363142 0.865691 0.119200 0.196695
H46   H     H_    0.356802 0.000048 0.223749 0.165944
C46   C     C_3   0.308370 0.831017 0.316328 -0.407150
H47   H     H_    0.321799 0.729978 0.310990 0.243036
H48   H     H_    0.315258 0.861847 0.422606 0.198508
C47   C     C_3   0.216484 0.856665 0.274965 -0.986308
H49   H     H_    0.200071 0.956413 0.288876 0.265587
H50   H     H_    0.172555 0.801501 0.338675 0.268509
H51   H     H_    0.207760 0.830849 0.167729 0.277110
O16   O     O_3   0.427090 0.890067 0.839434 -0.603768
C48   C     C_3   0.349548 0.898986 0.768033 0.165678
H52   H     H_    0.347466 0.824190 0.690688 0.146087
H53   H     H_    0.341205 0.990610 0.718878 0.137310
C49   C     C_3   0.274513 0.883395 0.865483 -0.924439
H54   H     H_    0.272576 0.960290 0.940383 0.253442
H55   H     H_    0.213873 0.884824 0.809016 0.211713
H56   H     H_    0.280474 0.793997 0.919224 0.258600

loop_
_geom_bond_atom_site_label_1
_geom_bond_atom_site_label_2
_ccdc_geom_bond_type
C20   N2    A    
C40   H32   S    
C18   C21   A    
C26   O11   S    
C36   H23   S    
C42   H37   S    
C39   C40   S    
C13   O15   S    
O1    Zn1   S    
C47   H49   S    
C42   H39   S    
O9    C31   S    
C22   H5    S    
C26   C27   S    
C12   C28   S    
C18   C24   S    
C8    C29   T    
C3    O13   S    
C37   H26   S    
C5    C6    S    
C32   H14   S    
O3    Zn1   S    
C15   C16   S    
O4    Zn2   S    
C45   H45   S    
C11   O14   S    
C20   O10   S    
O16   C48   S    
C41   H35   S    
C33   H17   S    
C25   O8    A    
C6    O12   S    
C1    O1    A    
C2    C7    S    
C16   C17   S    
C34   H19   S    
O8    Zn2   S    
O15   C45   S    
C37   H27   S    
C2    C27   S    
C44   H44   S    
C9    C10   A    
N1    Zn2   S    
C4    C8    S    
N2    Zn1   S    
O11   C36   S    
O2    Zn2   S    
C21   C22   S    
C36   H24   S    
C17   H3    S    
C43   H41   S    
C38   H29   S    
C38   H28   S    
C48   H53   S    
C25   C29   S    
C31   H12   S    
C4    C26   S    
C23   O5    A    
C27   H1    S    
C46   H47   S    
C39   H30   S    
C44   H43   S    
C18   N1    A    
O13   C41   S    
C35   H20   S    
C32   H15   S    
O5    Zn1   S    
O7    Zn1   S    
C41   C42   S    
C7    C28   T    
C12   O4    A    
C14   C23   S    
C3    C30   S    
C33   H16   S    
C16   O16   S    
C1    O2    A    
C24   H8    S    
C6    C27   S    
C34   C35   S    
C41   H36   S    
C24   H7    S    
C30   H10   S    
C46   H48   S    
C37   H25   S    
C4    C6    S    
C26   C30   S    
C40   H33   S    
C36   C37   S    
C22   C24   S    
C2    C5    S    
C17   H4    S    
C49   H55   S    
C3    C4    S    
C38   C39   S    
C48   C49   S    
C9    C17   S    
C31   H11   S    
C23   O6    A    
C33   C34   S    
C1    C10   S    
C39   H31   S    
O12   C38   S    
C3    C5    S    
C47   H50   S    
C48   H52   S    
C42   H38   S    
C12   O3    A    
C16   H2    S    
C22   H6    S    
C45   C46   S    
C2    C30   S    
C19   C20   A    
C5    H9    S    
C9    C15   A    
O14   C43   S    
C11   C13   A    
C19   O9    S    
C32   H13   S    
C49   H56   S    
C35   H22   S    
C43   H40   S    
C45   H46   S    
C46   C47   S    
C43   C44   S    
O10   C33   S    
C25   O7    A    
C47   H51   S    
C10   C11   A    
C21   N2    A    
O6    Zn2   S    
C35   H21   S    
C34   H18   S    
C40   H34   S    
C44   H42   S    
C14   C15   A    
C49   H54   S    
C13   C14   A    
C19   N1    A    
C31   C32   S    
