data_mof_unit_46200.cif
_audit_creation_date              2012-10-26T18:51:42-0400
_audit_creation_method            fapswitch 2.2
_symmetry_space_group_name_H-M    P1
_symmetry_Int_Tables_number       1
_space_group_crystal_system       triclinic
_cell_length_a                    11.701013
_cell_length_b                    14.833688
_cell_length_c                    14.877239
_cell_angle_alpha                 64.728469
_cell_angle_beta                  104.559121
_cell_angle_gamma                 102.825476
_cell_volume                      2240.63493648

loop_
_atom_site_label
_atom_site_type_symbol
_atom_type_description
_atom_site_fract_x
_atom_site_fract_y
_atom_site_fract_z
_atom_type_partial_charge
C1    C     C_R   0.481253 0.119576 0.312595 0.547515
C2    C     C_R   0.559372 0.611969 0.100601 0.097482
C3    C     C_R   0.677847 0.275284 0.683724 0.060330
C4    C     C_R   0.319329 0.724073 0.317347 0.057457
C5    C     C_R   0.663864 0.202689 0.643020 0.232686
C6    C     C_R   0.335117 0.797258 0.357540 0.233227
C7    C     C_R   0.511387 0.284025 0.509515 0.214674
C8    C     C_R   0.487745 0.715432 0.490557 0.214079
C9    C     C_R   0.538481 0.368960 0.537583 -0.010619
C10   C     C_R   0.458517 0.629980 0.463298 -0.011259
C11   C     C_R   0.611055 0.356288 0.632747 0.008707
C12   C     C_R   0.519270 0.880438 0.687401 0.546114
C13   C     C_R   0.385018 0.642452 0.368561 0.005236
C14   C     C_R   0.492412 0.463441 0.478826 0.035107
C15   C     C_R   0.503676 0.535196 0.522353 0.033377
C16   C     C_R   0.284279 0.999943 0.499959 0.558764
C17   C     C_R   0.715725 0.000048 0.500060 0.557553
C18   C     C_R   0.553081 0.507003 0.624992 -0.150933
C19   C     C_R   0.441670 0.491353 0.376479 -0.120738
C20   C     C_R   0.611785 0.423042 0.677083 -0.112900
C21   C     C_R   0.382389 0.574905 0.324777 -0.097882
C22   C     C_1   0.162429 0.999837 0.499914 0.013604
C23   C     C_R   0.434257 0.322345 0.001520 0.088931
C24   C     C_1   0.837577 0.000153 0.500110 0.013350
C25   C     C_1   0.059914 0.999915 0.499959 -0.008567
C26   C     C_1   0.940093 0.000074 0.500066 -0.008638
C27   C     C_R   0.468690 0.187550 0.205086 0.001837
C28   C     C_R   0.528895 0.812635 0.794816 0.003094
C29   C     C_R   0.409386 0.217531 0.028191 -0.094467
C30   C     C_R   0.569849 0.783592 0.971621 -0.113748
C31   C     C_R   0.425849 0.150981 0.128914 -0.121445
C32   C     C_R   0.559949 0.849757 0.870760 -0.110667
C33   C     C_R   0.497762 0.291207 0.179151 -0.132804
C34   C     C_R   0.546724 0.678641 0.998621 0.062969
C35   C     C_R   0.505783 0.708774 0.820913 -0.125332
C36   C     C_R   0.478204 0.360870 0.078171 0.009223
C37   C     C_R   0.510877 0.639760 0.921977 0.019272
C38   C     C_R   0.500733 0.467084 0.051852 -0.000670
C39   C     C_R   0.483513 0.533613 0.948403 0.008142
C40   C     C_R   0.437397 0.492176 0.874536 -0.107138
C41   C     C_R   0.537588 0.508874 0.125829 -0.076844
C42   C     C_R   0.414119 0.388591 0.899749 0.106181
Cu1   Cu    Cu3+1 0.469550 0.918260 0.475690 1.021266
Cu2   Cu    Cu3+1 0.530450 0.081740 0.524310 1.021993
H1    H     H_    0.545875 0.547927 0.667475 0.099310
H2    H     H_    0.549206 0.463900 0.205498 0.122815
H3    H     H_    0.653388 0.409473 0.754404 0.157312
H4    H     H_    0.339398 0.587773 0.247892 0.160359
H5    H     H_    0.347584 0.408387 0.751204 0.239600
H6    H     H_    0.436713 0.318609 0.816373 0.230932
H7    H     H_    0.535681 0.692241 0.174461 0.238659
H8    H     H_    0.680467 0.688865 0.175281 0.252628
H9    H     H_    0.584082 0.703226 0.629833 0.219799
H10   H     H_    0.663076 0.694669 0.551220 0.226103
H11   H     H_    0.335820 0.303287 0.447264 0.221942
H12   H     H_    0.447760 0.450509 0.333774 0.108239
H13   H     H_    0.417668 0.296196 0.369391 0.221637
H14   H     H_    0.486317 0.683761 0.760329 0.113254
H15   H     H_    0.536569 0.315186 0.240009 0.118401
H16   H     H_    0.577672 0.929882 0.852454 0.161884
H17   H     H_    0.404385 0.071030 0.146954 0.164130
H18   H     H_    0.375378 0.186104 0.971492 0.161980
H19   H     H_    0.595969 0.815747 0.027900 0.127500
H20   H     H_    0.415198 0.538270 0.795632 0.098243
I1    I     I_    0.218974 0.911319 0.283935 -0.252322
I2    I     I_    0.780286 0.088890 0.716813 -0.244504
I3    I     I_    0.803490 0.265099 0.820474 -0.324266
I4    I     I_    0.192916 0.734494 0.180862 -0.336444
N1    N     N_R   0.576230 0.204580 0.560790 -0.217296
N2    N     N_R   0.423770 0.795420 0.439210 -0.217287
N3    N     N_3   0.368507 0.350311 0.821619 -0.614614
N4    N     N_3   0.596373 0.646541 0.181335 -0.634615
N5    N     N_3   0.597376 0.729405 0.555750 -0.554807
N6    N     N_3   0.403006 0.269759 0.443176 -0.555969
O1    O     O_R   0.459870 0.022090 0.338120 -0.486622
O2    O     O_R   0.540130 0.977910 0.661880 -0.487409
O3    O     O_R   0.511290 0.160150 0.379180 -0.505670
O4    O     O_R   0.488710 0.839850 0.620820 -0.506056
O5    O     O_R   0.311490 0.930960 0.479480 -0.474681
O6    O     O_R   0.688510 0.069040 0.520520 -0.474815
O7    O     O_R   0.362910 0.069020 0.520540 -0.462277
O8    O     O_R   0.637090 0.930980 0.479460 -0.462591

loop_
_geom_bond_atom_site_label_1
_geom_bond_atom_site_label_2
_ccdc_geom_bond_type
C19   H12   S    
C15   C18   A    
C34   C37   A    
C1    O3    A    
C31   H17   S    
H6    N3    S    
C27   C33   A    
Cu1   O4    S    
C23   C42   A    
C12   C28   S    
C35   H14   S    
C23   C29   A    
Cu2   O3    S    
C35   C37   A    
C24   C26   T    
C10   C15   A    
C38   C39   A    
C2    C41   A    
Cu1   O5    S    
C33   C36   A    
C7    C9    A    
C17   O8    A    
C4    C13   A    
Cu2   O2    S    
C42   N3    S    
C5    N1    A    
H11   N6    S    
C6    I1    S    
C28   C35   A    
C22   C25   T    
C12   O4    A    
C41   H2    S    
C21   H4    S    
C2    C34   A    
C40   C42   A    
C33   H15   S    
C30   H19   S    
C2    N4    S    
C8    N5    S    
C7    N6    S    
Cu1   O1    S    
C3    I3    S    
C11   C20   A    
C17   C24   S    
C30   C34   A    
C27   C31   A    
C1    O1    A    
C28   C32   A    
C38   C41   A    
C4    C6    A    
Cu2   O7    S    
C39   C40   A    
C4    I4    S    
C9    C14   A    
C25   C26   S    
C17   O6    A    
H13   N6    S    
Cu1   Cu2   S    
H8    N4    S    
H10   N5    S    
Cu2   O6    S    
C13   C21   A    
Cu2   N1    S    
C9    C11   A    
C8    C10   A    
Cu1   N2    S    
C12   O2    A    
H7    N4    S    
C32   H16   S    
C18   H1    S    
C6    N2    A    
C29   H18   S    
C16   C22   S    
C19   C21   A    
C14   C19   A    
H9    N5    S    
C5    I2    S    
C3    C5    A    
C10   C13   A    
C7    N1    A    
C8    N2    A    
C40   H20   S    
C16   O5    A    
C36   C38   A    
C29   C31   A    
C30   C32   A    
C16   O7    A    
C18   C20   A    
C20   H3    S    
C3    C11   A    
C37   C39   A    
C23   C36   A    
H5    N3    S    
C1    C27   S    
Cu1   O8    S    
C14   C15   A    
