data_mof_unit_13569.cif
_audit_creation_date              2012-12-10T17:50:38-0500
_audit_creation_method            fapswitch 2.2
_symmetry_space_group_name_H-M    P1
_symmetry_Int_Tables_number       1
_space_group_crystal_system       triclinic
_cell_length_a                    15.693509
_cell_length_b                    10.551155
_cell_length_c                    9.943749
_cell_angle_alpha                 90.186094
_cell_angle_beta                  89.03318
_cell_angle_gamma                 94.252573
_cell_volume                      1641.76196126

loop_
_atom_site_label
_atom_site_type_symbol
_atom_type_description
_atom_site_fract_x
_atom_site_fract_y
_atom_site_fract_z
_atom_type_partial_charge
C1    C     C_R   0.513966 0.262952 0.499293 0.885957
C2    C     C_R   0.630569 0.076004 0.839138 -0.170984
C3    C     C_R   0.636335 0.945516 0.832202 -0.164951
C4    C     C_R   0.338709 0.508490 0.500544 0.944830
C5    C     C_R   0.608601 0.879135 0.718066 -0.167825
C6    C     C_R   0.570003 0.941158 0.612383 0.108319
C7    C     C_R   0.569298 0.074495 0.615089 0.066267
C8    C     C_R   0.544880 0.135709 0.496580 -0.191137
C9    C     C_R   0.553231 0.070731 0.372635 0.103829
C10   C     C_R   0.539914 0.939710 0.374781 -0.260306
C11   C     C_R   0.537963 0.875587 0.497667 -0.160850
C12   C     C_3   0.084679 0.537326 0.494390 0.146986
C13   C     C_R   0.398341 0.318928 0.148029 -0.210070
C14   C     C_R   0.372473 0.203856 0.091884 -0.303722
C15   C     C_R   0.391642 0.180833 0.957919 -0.004991
C16   C     C_R   0.510976 0.740823 0.499710 0.864951
C17   C     C_R   0.408325 0.290034 0.872206 0.467419
C18   C     C_R   0.452740 0.401899 0.930653 0.052841
C19   C     C_R   0.450335 0.408518 0.075109 0.108885
C20   C     C_R   0.550310 0.584840 0.070459 -0.134806
C21   C     C_R   0.549680 0.585396 0.927969 -0.132887
C22   C     C_R   0.662117 0.503566 0.498958 0.849796
C23   C     C_3   0.978157 0.653334 0.527954 -0.174735
C24   C     C_3   0.967605 0.450394 0.580736 -0.215664
C25   C     C_3   0.024129 0.421889 0.457655 0.127505
C26   C     C_1   0.250679 0.524585 0.500236 -0.200382
C27   C     C_1   0.751494 0.516347 0.496020 -0.189314
C28   C     C_3   0.029012 0.566441 0.617276 -0.179488
C29   C     C_3   0.052646 0.288777 0.428751 -0.442596
C30   C     C_3   0.978233 0.194463 0.388955 -0.342121
C31   C     C_3   0.005647 0.058635 0.385389 -0.898421
C32   C     C_3   0.386076 0.043587 0.908743 -0.418135
C33   C     C_3   0.425128 0.950260 0.004304 -0.346598
C34   C     C_3   0.918551 0.537016 0.491030 0.146011
C35   C     C_3   0.410707 0.814498 0.952169 -0.844552
C36   C     C_3   0.303232 0.203469 0.720925 0.094483
C37   C     C_3   0.246460 0.240794 0.609136 -0.875114
C38   C     C_3   0.938717 0.483645 0.227945 -0.442254
C39   C     C_3   0.009589 0.465285 0.123350 -0.334458
C40   C     C_3   0.972475 0.439121 0.984244 -0.897307
C41   C     C_3   0.587091 0.134594 0.243420 -0.390224
C42   C     C_3   0.673010 0.211174 0.267274 -0.299609
C43   C     C_3   0.701167 0.296597 0.148402 -0.862148
C44   C     C_3   0.035856 0.624853 0.404754 -0.210204
C45   C     C_3   0.974524 0.508582 0.368535 0.132080
C46   C     C_1   0.175805 0.533929 0.497671 -0.086238
C47   C     C_1   0.827147 0.528052 0.493197 -0.087226
C48   C     C_R   0.600329 0.141135 0.730319 -0.170708
H1    H     H_    0.664726 0.896335 0.913586 0.127053
H2    H     H_    0.957010 0.747976 0.556578 0.140718
H3    H     H_    0.053413 0.590437 0.719052 0.144231
H4    H     H_    0.607819 0.243401 0.735577 0.169798
H5    H     H_    0.653431 0.127711 0.926431 0.144097
H6    H     H_    0.059162 0.050789 0.311981 0.262321
H7    H     H_    0.026247 0.030061 0.486533 0.258364
H8    H     H_    0.951045 0.992571 0.354518 0.247873
H9    H     H_    0.924210 0.199360 0.462102 0.221913
H10   H     H_    0.955720 0.217906 0.287619 0.225683
H11   H     H_    0.102965 0.293785 0.348688 0.198657
H12   H     H_    0.623290 0.781465 0.708538 0.148060
H13   H     H_    0.080357 0.254958 0.522459 0.213233
H14   H     H_    0.341861 0.790131 0.933318 0.255033
H15   H     H_    0.447842 0.802457 0.857635 0.283563
H16   H     H_    0.431027 0.748344 0.029434 0.255983
H17   H     H_    0.494583 0.975328 0.013745 0.227060
H18   H     H_    0.395321 0.952280 0.106040 0.220074
H19   H     H_    0.317840 0.010571 0.895669 0.186231
H20   H     H_    0.421611 0.038062 0.811687 0.214289
H21   H     H_    0.260194 0.184520 0.809906 0.138412
H22   H     H_    0.331450 0.116972 0.682792 0.142046
H23   H     H_    0.533179 0.888234 0.280581 0.164974
H24   H     H_    0.284851 0.264238 0.516717 0.248305
H25   H     H_    0.200623 0.158780 0.585612 0.202042
H26   H     H_    0.209818 0.320875 0.643563 0.256836
H27   H     H_    0.927831 0.352327 0.986361 0.261456
H28   H     H_    0.937857 0.521052 0.950294 0.263512
H29   H     H_    0.024998 0.424039 0.911047 0.247350
H30   H     H_    0.054172 0.552110 0.118384 0.219700
H31   H     H_    0.046393 0.384024 0.152025 0.224765
H32   H     H_    0.893105 0.398346 0.231558 0.196279
H33   H     H_    0.902892 0.566016 0.198758 0.205376
H34   H     H_    0.591135 0.655047 0.122991 0.141374
H35   H     H_    0.735344 0.242054 0.071838 0.234451
H36   H     H_    0.645898 0.338747 0.102207 0.269437
H37   H     H_    0.745913 0.375663 0.183437 0.247701
H38   H     H_    0.668457 0.271976 0.357554 0.223479
H39   H     H_    0.723239 0.144911 0.287014 0.201454
H40   H     H_    0.598501 0.062252 0.165009 0.166765
H41   H     H_    0.539563 0.194484 0.200916 0.239409
H42   H     H_    0.383334 0.328872 0.251944 0.227781
H43   H     H_    0.341178 0.131278 0.155886 0.170890
H44   H     H_    0.590931 0.654684 0.875233 0.134213
H45   H     H_    0.937859 0.379408 0.652856 0.143707
H46   H     H_    0.065895 0.696271 0.333430 0.137243
N1    N     N_R   0.499210 0.498800 0.142780 -0.103837
N2    N     N_R   0.499180 0.498720 0.857170 -0.101342
O1    O     O_R   0.500000 0.316780 0.614690 -0.576609
O2    O     O_R   0.499990 0.316750 0.385360 -0.633459
O3    O     O_R   0.376780 0.500000 0.614650 -0.526512
O4    O     O_R   0.376770 0.499980 0.385310 -0.641449
O5    O     O_R   0.500010 0.683250 0.614640 -0.634836
O6    O     O_R   0.500000 0.683220 0.385310 -0.617636
O7    O     O_R   0.623230 0.500020 0.614690 -0.635685
O8    O     O_R   0.623220 0.500000 0.385350 -0.611855
O9    O     O_3   0.369045 0.299785 0.747589 -0.551757
Zn1   Zn    Zn3+2 0.500010 0.500020 0.653130 0.966328
Zn2   Zn    Zn3+2 0.499990 0.499980 0.346870 0.925326

loop_
_geom_bond_atom_site_label_1
_geom_bond_atom_site_label_2
_ccdc_geom_bond_type
C41   H41   S    
C37   H26   S    
C20   H34   S    
C13   H42   S    
C1    C8    S    
C43   H35   S    
C41   C42   S    
C3    H1    S    
C33   H17   S    
C7    C8    A    
C36   H21   S    
C12   C28   S    
C36   C37   S    
C38   C39   S    
C28   H3    S    
C30   H9    S    
C22   O8    A    
C18   C19   A    
O3    Zn1   S    
C38   C45   S    
C37   H25   S    
C29   H11   S    
C8    C9    A    
C35   H16   S    
C42   H38   S    
C31   H8    S    
O7    Zn1   S    
C9    C10   A    
C32   H20   S    
C10   H23   S    
C13   C14   A    
C43   H36   S    
C36   H22   S    
C33   H18   S    
C25   C29   S    
C29   H13   S    
C13   C19   A    
C43   H37   S    
C39   H30   S    
C15   C32   S    
C24   C25   S    
C12   C46   S    
C1    O1    A    
C6    C11   A    
C26   C46   T    
C23   H2    S    
C2    C48   A    
C24   C34   S    
O2    Zn2   S    
C40   H28   S    
C39   H31   S    
C29   C30   S    
C17   O9    S    
C11   C16   S    
C30   C31   S    
C23   C34   S    
C17   C18   A    
O6    Zn2   S    
C34   C45   S    
C23   C28   S    
N1    Zn2   S    
C32   H19   S    
O1    Zn1   S    
C16   O6    A    
C20   N1    A    
C22   C27   S    
C4    O4    A    
C38   H33   S    
C4    O3    A    
C42   C43   S    
C25   C45   S    
C39   C40   S    
C19   N1    A    
C44   C45   S    
C27   C47   T    
O5    Zn1   S    
C15   C17   A    
C41   H40   S    
N2    Zn1   S    
O4    Zn2   S    
C5    H12   S    
C36   O9    S    
C14   C15   A    
C18   N2    A    
C24   C28   S    
C3    C5    A    
C2    H5    S    
C1    O2    A    
C4    C26   S    
C6    C7    A    
C42   H39   S    
C21   N2    A    
C9    C41   S    
C40   H27   S    
C12   C25   S    
C7    C48   A    
C2    C3    A    
C12   C44   S    
C24   H45   S    
C32   C33   S    
C5    C6    A    
C38   H32   S    
C30   H10   S    
C33   C35   S    
C35   H14   S    
C31   H6    S    
C14   H43   S    
C44   H46   S    
C10   C11   A    
C22   O7    A    
C16   O5    A    
C48   H4    S    
C20   C21   A    
C37   H24   S    
C40   H29   S    
C35   H15   S    
C34   C47   S    
C31   H7    S    
O8    Zn2   S    
C23   C44   S    
C21   H44   S    
