data_mof_unit_57429.cif
_audit_creation_date              2012-12-11T21:15:19-0500
_audit_creation_method            fapswitch 2.2
_symmetry_space_group_name_H-M    P1
_symmetry_Int_Tables_number       1
_space_group_crystal_system       triclinic
_cell_length_a                    8.21112
_cell_length_b                    18.774462
_cell_length_c                    27.00308
_cell_angle_alpha                 99.486909
_cell_angle_beta                  92.584231
_cell_angle_gamma                 88.168864
_cell_volume                      4100.3983663

loop_
_atom_site_label
_atom_site_type_symbol
_atom_type_description
_atom_site_fract_x
_atom_site_fract_y
_atom_site_fract_z
_atom_type_partial_charge
Ba1   Ba    Ba6+2 0.160810 0.465630 0.521640 1.641961
Ba2   Ba    Ba6+2 0.649380 0.534380 0.478400 1.643452
C1    C     C_3   0.430254 0.280337 0.700050 -0.365573
C2    C     C_R   0.077923 0.095277 0.452802 0.032226
C3    C     C_R   0.225000 0.071435 0.430293 -0.080222
C4    C     C_3   0.965059 0.270898 0.626688 0.376669
C5    C     C_R   0.286686 0.001556 0.431915 -0.088035
C6    C     C_R   0.200908 0.953622 0.455235 0.032099
C7    C     C_R   0.053344 0.976878 0.478116 0.015692
C8    C     C_R   0.259617 0.882669 0.455213 -0.111935
C9    C     C_R   0.170648 0.832904 0.476379 -0.039870
C10   C     C_R   0.023636 0.856469 0.500422 -0.003487
C11   C     C_R   0.966294 0.928825 0.501420 -0.006232
C12   C     C_3   0.437779 0.305211 0.649476 0.344153
C13   C     C_R   0.222181 0.759796 0.473334 -0.001310
C14   C     C_R   0.125442 0.711241 0.492134 -0.295557
C15   C     C_R   0.985173 0.733929 0.518231 0.046600
C16   C     C_3   0.997086 0.198678 0.644345 -0.366186
C17   C     C_R   0.933893 0.807952 0.523403 -0.046006
C18   C     C_R   0.846561 0.072295 0.500806 -0.006029
C19   C     C_R   0.788608 0.144503 0.501451 -0.006008
C20   C     C_R   0.877503 0.192790 0.477993 -0.047126
C21   C     C_R   0.016565 0.165609 0.451453 -0.038360
C22   C     C_R   0.794690 0.834983 0.549926 -0.042359
C23   C     C_3   0.468374 0.313945 0.396791 0.308050
C24   C     C_R   0.734282 0.905623 0.549083 0.032752
C25   C     C_R   0.819991 0.952808 0.524749 0.007416
C26   C     C_R   0.759600 0.024262 0.524154 0.015209
C27   C     C_R   0.587307 0.929539 0.571621 -0.080485
C28   C     C_3   0.841014 0.622592 0.632074 0.299190
C29   C     C_R   0.525851 0.999485 0.570125 -0.088087
C30   C     C_R   0.611785 0.047450 0.546881 0.031975
C31   C     C_R   0.641104 0.167950 0.525173 -0.041410
C32   C     C_R   0.552585 0.118271 0.546598 -0.107806
C33   C     C_R   0.587669 0.240646 0.527102 -0.002152
C34   C     C_3   0.475671 0.232627 0.379762 -0.391343
C35   C     C_R   0.682724 0.289014 0.507455 -0.300904
C36   C     C_R   0.825052 0.266629 0.482397 0.050689
C37   C     C_R   0.312862 0.452062 0.175994 0.569854
C38   C     C_R   0.149491 0.559334 0.172151 0.663314
C39   C     C_2   0.024336 0.522254 0.268975 -0.050854
C40   C     C_3   0.838293 0.641912 0.689011 -0.360572
C41   C     C_3   0.991136 0.519089 0.323458 -0.063228
C42   C     C_1   0.279381 0.493852 0.336485 -0.006187
C43   C     C_2   0.313721 0.498063 0.289687 -0.060587
C44   C     C_2   0.178484 0.510649 0.252244 0.257586
C45   C     C_3   0.867354 0.722646 0.377642 0.357960
C46   C     C_R   0.296565 0.503339 0.098477 -0.080363
C47   C     C_R   0.359498 0.450694 0.126221 -0.024584
C48   C     C_R   0.468755 0.397652 0.103891 -0.058613
C49   C     C_R   0.188584 0.557283 0.121448 -0.053537
C50   C     C_2   0.146587 0.525667 0.355787 -0.271373
C51   C     C_2   0.646906 0.470324 0.636761 -0.291220
C52   C     C_3   0.982169 0.367931 0.365748 0.299568
C53   C     C_R   0.492628 0.444191 0.974304 0.020617
C54   C     C_R   0.323043 0.554002 0.969497 0.019892
C55   C     C_R   0.429542 0.498029 0.946775 0.049119
C56   C     C_3   0.873071 0.797350 0.362902 -0.372067
C57   C     C_R   0.594924 0.388803 0.949453 -0.102905
C58   C     C_R   0.631285 0.385659 0.899468 -0.060355
C59   C     C_R   0.570720 0.438427 0.872020 -0.023228
C60   C     C_R   0.472954 0.495581 0.895772 -0.080930
C61   C     C_R   0.417875 0.549928 0.868401 -0.034231
C62   C     C_R   0.466342 0.547765 0.818432 0.596611
C63   C     C_R   0.604707 0.434018 0.820941 0.576595
C64   C     C_3   0.013950 0.337691 0.311036 -0.363403
C65   C     C_2   0.738632 0.454012 0.724079 -0.088892
C66   C     C_3   0.749707 0.426252 0.668787 -0.053920
C67   C     C_3   0.354712 0.700418 0.351000 0.259227
C68   C     C_1   0.518013 0.507442 0.655815 0.036149
C69   C     C_2   0.475638 0.508466 0.703041 -0.104766
C70   C     C_2   0.595822 0.484478 0.741368 0.181458
C71   C     C_R   0.450802 0.446876 0.025295 0.020805
C72   C     C_R   0.341249 0.501772 0.047695 0.052372
C73   C     C_R   0.275802 0.554951 0.019939 0.019961
C74   C     C_R   0.514409 0.395975 0.054846 -0.102381
C75   C     C_R   0.122575 0.608506 0.093392 -0.049667
C76   C     C_3   0.332485 0.687060 0.593849 0.316685
C77   C     C_R   0.268103 0.607288 0.940686 -0.098883
C78   C     C_3   0.369455 0.724706 0.300472 0.474107
C79   C     C_R   0.315899 0.605562 0.891606 -0.059884
C80   C     C_R   0.164195 0.607252 0.043836 -0.096088
C81   C     C_3   0.329463 0.768155 0.612110 -0.390034
C82   C     C_R   0.992819 0.048284 0.477455 0.006938
F1    F     F_    0.274841 0.682215 0.264348 -0.688510
H1    H     H_    0.377540 0.359513 0.652065 0.075160
H2    H     H_    0.206586 0.669459 0.583801 0.003571
H3    H     H_    0.408946 0.675107 0.560489 0.062793
H4    H     H_    0.301711 0.276351 0.710035 0.150465
H5    H     H_    0.247033 0.781709 0.643974 0.130679
H6    H     H_    0.285504 0.797409 0.581411 0.056573
H7    H     H_    0.454346 0.786029 0.624964 0.118074
H8    H     H_    0.567796 0.308246 0.640968 -0.055470
H9    H     H_    0.491600 0.319811 0.729318 0.133895
H10   H     H_    0.594126 0.332554 0.407055 0.025172
H11   H     H_    0.392416 0.325456 0.430306 0.058682
H12   H     H_    0.744581 0.685028 0.699732 0.133831
H13   H     H_    0.555455 0.219015 0.347243 0.135933
H14   H     H_    0.525679 0.205421 0.410887 0.055177
H15   H     H_    0.351296 0.212706 0.368544 0.114041
H16   H     H_    0.492605 0.226741 0.698782 0.115251
H17   H     H_    0.930955 0.155683 0.618731 0.069438
H18   H     H_    0.765140 0.722485 0.403130 0.103487
H19   H     H_    0.983242 0.711647 0.397862 -0.045183
H20   H     H_    0.747979 0.816429 0.353243 0.119504
H21   H     H_    0.926761 0.836145 0.394475 0.073227
H22   H     H_    0.948924 0.795609 0.329730 0.153761
H23   H     H_    0.809122 0.593771 0.705513 0.069979
H24   H     H_    0.224644 0.705267 0.360575 -0.025156
H25   H     H_    0.396972 0.643167 0.347698 0.072844
H26   H     H_    0.498487 0.719807 0.289433 0.054402
H27   H     H_    0.013652 0.267658 0.588640 0.082681
H28   H     H_    0.326943 0.781861 0.302939 0.016304
H29   H     H_    0.293210 0.107051 0.411716 0.063996
H30   H     H_    0.400795 0.984707 0.414360 0.071794
H31   H     H_    0.164199 0.655031 0.488428 0.068726
H32   H     H_    0.373484 0.866604 0.437555 0.110017
H33   H     H_    0.081533 0.198942 0.430409 0.098899
H34   H     H_    0.959677 0.661421 0.704439 0.134904
H35   H     H_    0.728880 0.801230 0.570450 0.099085
H36   H     H_    0.518862 0.893939 0.590087 0.064041
H37   H     H_    0.411575 0.016301 0.587590 0.071397
H38   H     H_    0.438068 0.134129 0.563894 0.109395
H39   H     H_    0.830801 0.279695 0.624179 -0.078321
H40   H     H_    0.641356 0.344720 0.509785 0.073050
H41   H     H_    0.438806 0.491823 0.278195 0.127159
H42   H     H_    0.521207 0.357115 0.124523 0.122482
H43   H     H_    0.835923 0.439626 0.749410 0.129322
H44   H     H_    0.708880 0.341467 0.882363 0.123261
H45   H     H_    0.097833 0.386962 0.385084 0.024413
H46   H     H_    0.647839 0.345703 0.967024 0.069429
H47   H     H_    0.601146 0.353822 0.041532 0.069231
H48   H     H_    0.921835 0.527175 0.242885 0.098171
H49   H     H_    0.037196 0.650108 0.109684 0.126517
H50   H     H_    0.189019 0.652005 0.954942 0.070757
H51   H     H_    0.129326 0.184486 0.644379 0.148716
H52   H     H_    0.270369 0.648006 0.871567 0.121994
H53   H     H_    0.351597 0.523245 0.713303 0.145804
H54   H     H_    0.105068 0.648196 0.025269 0.069994
H55   H     H_    0.147573 0.552717 0.394606 0.068790
H56   H     H_    0.891801 0.413303 0.367671 0.035795
H57   H     H_    0.658631 0.457680 0.596402 0.087025
H58   H     H_    0.953849 0.201390 0.682995 0.121661
H59   H     H_    0.718204 0.606172 0.617147 0.010305
H60   H     H_    0.929745 0.577255 0.622316 0.080845
H61   H     H_    0.090394 0.287474 0.308810 0.146560
H62   H     H_    0.079371 0.376880 0.293280 0.071371
H63   H     H_    0.896594 0.325086 0.289830 0.116099
N1    N     N_R   0.212661 0.507258 0.199242 -0.428040
N2    N     N_R   0.556703 0.489338 0.794424 -0.420461
O1    O     O_2   0.106080 0.324280 0.466820 -0.470844
O2    O     O_2   0.659564 0.561793 0.332626 -0.491747
O3    O     O_3   0.846277 0.670863 0.334147 -0.575237
O4    O     O_3   0.859130 0.413620 0.470620 -0.482101
O5    O     O_3   0.459240 0.537930 0.559910 -0.491114
O6    O     O_2   0.583120 0.462390 0.379940 -0.461083
O7    O     O_3   0.400329 0.347269 0.357476 -0.632161
O8    O     O_2   0.560981 0.756645 0.479437 -0.490769
O9    O     O_3   0.451813 0.744227 0.386988 -0.658762
O10   O     O_2   0.360226 0.403331 0.198464 -0.604119
O11   O     O_2   0.674859 0.379808 0.799960 -0.620695
O12   O     O_3   0.396557 0.652818 0.632842 -0.622782
O13   O     O_2   0.060916 0.608132 0.192273 -0.523027
O14   O     O_2   0.429148 0.598425 0.796642 -0.599032
O15   O     O_3   0.376230 0.370290 0.556910 -0.482337
O16   O     O_2   0.248829 0.243438 0.520339 -0.491479
O17   O     O_3   0.919354 0.312860 0.387381 -0.643881
O18   O     O_3   0.356962 0.255639 0.612845 -0.605117
O19   O     O_2   0.227190 0.537650 0.620070 -0.463255
O20   O     O_3   0.971110 0.406970 0.583250 -0.482738
O21   O     O_2   0.079992 0.466616 0.674863 -0.495809
O22   O     O_3   0.041921 0.326230 0.660473 -0.586797
O23   O     O_2   0.704230 0.675760 0.533200 -0.467196
O24   O     O_3   0.951180 0.586390 0.529420 -0.489641
O25   O     O_3   0.434080 0.629720 0.443130 -0.470326
O26   O     O_3   0.885910 0.683555 0.612888 -0.640566
O27   O     O_3   0.351080 0.462080 0.440130 -0.477374
O28   O     O_3   0.839200 0.593040 0.416790 -0.490552
P1    P     P_3+3 0.929380 0.335110 0.452880 0.976262
P2    P     P_3+3 0.398530 0.559060 0.613740 0.997677
P3    P     P_3+3 0.961877 0.409072 0.647684 0.953021
P4    P     P_3+3 0.880940 0.664900 0.547160 0.975703
P5    P     P_3+3 0.833368 0.585178 0.351297 0.994875
P6    P     P_3+3 0.392992 0.276867 0.553756 0.937659
P7    P     P_3+3 0.399435 0.441009 0.376809 0.959895
P8    P     P_3+3 0.416225 0.723222 0.446200 0.922947

loop_
_geom_bond_atom_site_label_1
_geom_bond_atom_site_label_2
_ccdc_geom_bond_type
C76   H2    S    
O17   P1    S    
C32   H38   S    
C53   C57   A    
C3    H29   S    
C74   H47   S    
C71   C72   A    
C63   O11   D    
C4    H39   S    
C52   O17   S    
C62   O14   D    
O24   P4    S    
C21   H33   S    
C39   H48   S    
O27   P7    S    
C55   C60   A    
C4    O22   S    
C43   C44   S    
C42   C43   D    
C79   H52   S    
C81   H7    S    
C57   H46   S    
C24   C25   A    
C60   C61   A    
C54   C77   A    
C61   C79   A    
O9    P8    S    
C16   H58   S    
C33   C35   A    
C35   C36   A    
C22   C24   A    
Ba1   Ba2   S    
Ba2   O23   S    
Ba2   P4    S    
C37   O10   D    
Ba1   P2    S    
C41   C50   S    
C19   C31   A    
C13   C14   A    
C20   C36   A    
O8    P8    D    
Ba1   O20   S    
C28   H59   S    
C54   C55   A    
C10   C17   A    
C51   H57   S    
C16   H17   S    
C5    H30   S    
C63   N2    Am   
Ba1   O5    S    
C51   C66   S    
C7    C11   A    
C67   O9    S    
C9    C13   A    
C15   P4    S    
C46   C49   A    
O3    P5    S    
C14   C15   A    
O18   P6    S    
C27   H36   S    
C39   C44   D    
C16   H51   S    
C68   C69   D    
C36   P1    S    
Ba2   O27   S    
C34   H14   S    
O19   P2    D    
O12   P2    S    
O28   P5    S    
C42   P7    S    
C1    H16   S    
C57   C58   A    
Ba2   O4    S    
C54   C73   A    
C19   C20   A    
C39   C41   S    
Ba1   O4    S    
O22   P3    S    
C67   H24   S    
C52   H45   S    
C51   C68   D    
C14   H31   S    
C28   O26   S    
C42   C50   D    
C69   H53   S    
C35   H40   S    
C4    C16   S    
C13   P8    S    
C66   P3    S    
C22   H35   S    
C45   H18   S    
C72   C73   A    
C65   C66   S    
C46   C72   A    
C26   C30   A    
O16   P6    D    
C12   H1    S    
C38   O13   D    
C40   H12   S    
C3    C5    A    
C2    C21   A    
C6    C7    A    
C18   C26   A    
C33   P6    S    
O6    P7    D    
C62   N2    Am   
C58   C59   A    
C56   H21   S    
C30   C32   A    
O26   P4    S    
C49   C75   A    
C78   F1    S    
C48   C74   A    
Ba2   O25   S    
C67   H25   S    
O1    P1    D    
C29   C30   A    
C2    C82   A    
Ba1   O15   S    
C43   H41   S    
C50   H55   S    
C52   H56   S    
C80   H54   S    
C31   C32   A    
C34   H15   S    
Ba2   O5    S    
C78   H28   S    
O2    P5    D    
C64   H62   S    
C1    C12   S    
C24   C27   A    
C46   C47   A    
C37   C47   A    
O23   P4    D    
C76   O12   S    
C70   N2    S    
C18   C82   A    
O20   P3    S    
C23   O7    S    
C71   C74   A    
C7    C82   A    
C75   H49   S    
C12   O18   S    
C81   H6    S    
C56   H22   S    
C65   C70   D    
C77   H50   S    
O5    P2    S    
C28   H60   S    
C77   C79   A    
C76   H3    S    
C81   H5    S    
Ba2   O6    S    
C45   H19   S    
C12   H8    S    
O15   P6    S    
C64   H63   S    
O21   P3    D    
C28   C40   S    
C29   H37   S    
O7    P7    S    
C2    C3    A    
C58   H44   S    
C76   C81   S    
C34   H13   S    
C9    C10   A    
C73   C80   A    
C23   H10   S    
C52   C64   S    
C38   C49   A    
C45   O3    S    
C37   N1    Am   
C1    H4    S    
C56   H20   S    
C53   C55   A    
C17   C22   A    
Ba1   O24   S    
C27   C29   A    
C8    H32   S    
C65   H43   S    
Ba2   O24   S    
C45   C56   S    
Ba1   P1    S    
C68   P2    S    
C40   H23   S    
C75   C80   A    
C78   H26   S    
C41   P5    S    
C31   C33   A    
C38   N1    Am   
Ba1   O1    S    
C1    H9    S    
C59   C60   A    
C40   H34   S    
C64   H61   S    
C5    C6    A    
C8    C9    A    
C23   C34   S    
C61   C62   A    
C53   C71   A    
C15   C17   A    
C59   C63   A    
C69   C70   S    
C44   N1    S    
C18   C19   A    
C23   H11   S    
C6    C8    A    
C47   C48   A    
Ba1   O19   S    
C25   C26   A    
C20   C21   A    
C11   C25   A    
C67   C78   S    
C4    H27   S    
C48   H42   S    
Ba2   O28   S    
C10   C11   A    
O4    P1    S    
Ba1   O27   S    
O25   P8    S    
