data_mof_unit_22018.cif
_audit_creation_date              2012-12-10T18:07:35-0500
_audit_creation_method            fapswitch 2.2
_symmetry_space_group_name_H-M    P1
_symmetry_Int_Tables_number       1
_space_group_crystal_system       triclinic
_cell_length_a                    11.552973
_cell_length_b                    12.656088
_cell_length_c                    13.165096
_cell_angle_alpha                 82.644466
_cell_angle_beta                  90.549922
_cell_angle_gamma                 102.753545
_cell_volume                      1861.65294997

loop_
_atom_site_label
_atom_site_type_symbol
_atom_type_description
_atom_site_fract_x
_atom_site_fract_y
_atom_site_fract_z
_atom_type_partial_charge
C1    C     C_R   0.482527 0.439070 0.690997 0.851530
C2    C     C_R   0.500848 0.595375 0.200718 -0.048463
C3    C     C_R   0.501386 0.301669 0.836961 -0.186073
C4    C     C_R   0.512448 0.273228 0.941311 -0.136280
C5    C     C_R   0.500030 0.345950 0.009042 -0.134946
C6    C     C_R   0.470379 0.447062 0.973180 0.089195
C7    C     C_R   0.441335 0.467462 0.869465 0.078226
C8    C     C_R   0.468626 0.528705 0.036657 0.090602
C9    C     C_R   0.420578 0.620462 0.000993 0.169140
C10   C     C_R   0.376211 0.630646 0.902429 -0.247545
C11   C     C_R   0.386217 0.555037 0.837343 -0.186717
C12   C     C_R   0.717829 0.501042 0.500338 0.907287
C13   C     C_R   0.515600 0.522488 0.134291 -0.233565
C14   C     C_R   0.454119 0.686243 0.165876 -0.199466
C15   C     C_R   0.469725 0.400277 0.800294 -0.111128
C16   C     C_R   0.357626 0.089993 0.335188 -0.260194
C17   C     C_R   0.638479 0.796883 0.629984 -0.124494
C18   C     C_R   0.682330 0.902578 0.653308 -0.098838
C19   C     C_R   0.638293 0.989560 0.599151 0.182718
C20   C     C_R   0.545376 0.965786 0.527138 -0.056368
C21   C     C_R   0.512468 0.856779 0.503036 0.196740
C22   C     C_R   0.485880 0.044460 0.474888 0.012062
C23   C     C_R   0.511471 0.560692 0.308993 0.854133
C24   C     C_R   0.411207 0.014776 0.392010 0.140118
C25   C     C_R   0.386965 0.908990 0.367312 -0.280294
C26   C     C_R   0.433737 0.830557 0.424471 -0.175280
C27   C     C_R   0.492555 0.149951 0.502476 -0.047510
C28   C     C_R   0.373641 0.194788 0.361274 0.109551
C29   C     C_R   0.282159 0.498896 0.499777 0.880109
C30   C     C_1   0.838930 0.502641 0.500773 -0.192274
C31   C     C_1   0.940875 0.501209 0.500509 -0.001004
C32   C     C_1   0.059044 0.498358 0.499859 0.007662
C33   C     C_1   0.161034 0.497115 0.499506 -0.181906
C34   C     C_R   0.415837 0.699747 0.065329 -0.192472
H1    H     H_    0.441827 0.743314 0.217216 0.149870
H2    H     H_    0.328250 0.885695 0.305265 0.151720
H3    H     H_    0.301790 0.066335 0.271453 0.186650
H4    H     H_    0.534902 0.176649 0.570480 0.166834
H5    H     H_    0.672524 0.729526 0.668501 0.154926
H6    H     H_    0.407745 0.749592 0.404764 0.206369
H7    H     H_    0.335510 0.698080 0.874994 0.153094
H8    H     H_    0.378438 0.769588 0.039153 0.140729
H9    H     H_    0.560739 0.458797 0.162364 0.147249
H10   H     H_    0.521230 0.248139 0.784785 0.154056
H11   H     H_    0.511237 0.319710 0.089045 0.154230
H12   H     H_    0.535675 0.196554 0.969514 0.149371
H13   H     H_    0.348910 0.565192 0.761986 0.174547
N1    N     N_R   0.440320 0.222190 0.444690 -0.151846
N2    N     N_R   0.559060 0.776980 0.554780 -0.123388
O1    O     O_R   0.471500 0.366730 0.627160 -0.614050
O2    O     O_R   0.509620 0.544830 0.662520 -0.619174
O3    O     O_R   0.646490 0.410960 0.482310 -0.604495
O4    O     O_R   0.684610 0.589050 0.517670 -0.603847
O5    O     O_R   0.490380 0.455170 0.337480 -0.637246
O6    O     O_R   0.528500 0.633270 0.372840 -0.629241
O7    O     O_R   0.315390 0.410950 0.482330 -0.635734
O8    O     O_R   0.353510 0.589040 0.517690 -0.630007
Zn1   Zn    Zn3+2 0.474550 0.381080 0.476390 0.933134
Zn2   Zn    Zn3+2 0.525450 0.618920 0.523610 0.933057
N3    N     N_2   0.693577 0.099523 0.609970 -0.323900
H14   H     H_    0.706652 0.118091 0.683710 0.266137
C35   C     C_3   0.790146 0.149579 0.538289 -0.674753
H15   H     H_    0.821651 0.236959 0.548487 0.235368
H16   H     H_    0.759620 0.145126 0.458338 0.233147
H17   H     H_    0.865100 0.107911 0.551521 0.263631
C36   C     C_2   0.776834 0.915899 0.731433 0.392428
H18   H     H_    0.796627 0.843768 0.775751 0.063545
O9    O     O_2   0.835285 0.004974 0.746730 -0.572187
C37   C     C_2   0.314405 0.272334 0.298391 0.401331
H19   H     H_    0.294237 0.341478 0.327928 0.132447
O10   O     O_2   0.284957 0.258520 0.210840 -0.598259

loop_
_geom_bond_atom_site_label_1
_geom_bond_atom_site_label_2
_ccdc_geom_bond_type
C27   N1    A    
C16   C28   A    
C36   O9    D    
C21   C26   A    
C8    C9    A    
C14   C34   A    
C6    C7    A    
C1    C15   S    
C29   O7    A    
O6    Zn2   S    
C19   N3    S    
C18   C36   S    
C1    O1    A    
C11   H13   S    
C19   C20   A    
C34   H8    S    
C35   H16   S    
C16   H3    S    
C32   C33   T    
C35   H15   S    
C7    C15   A    
C17   C18   A    
O4    Zn2   S    
C3    C15   A    
C23   O6    A    
C16   C24   A    
C4    H12   S    
C24   C25   A    
C10   H7    S    
N1    Zn1   S    
C1    O2    A    
C30   C31   T    
C26   H6    S    
C8    C13   A    
C12   O4    A    
O3    Zn1   S    
C21   N2    A    
C12   O3    A    
O7    Zn1   S    
C9    C34   A    
C7    C11   A    
C22   C24   A    
C22   C27   A    
O5    Zn1   S    
C5    C6    A    
C2    C14   A    
C37   H19   S    
C3    H10   S    
O8    Zn2   S    
O2    Zn2   S    
C10   C11   A    
C29   O8    A    
C27   H4    S    
C3    C4    A    
O1    Zn1   S    
C29   C33   S    
C13   H9    S    
C36   H18   S    
C20   C21   A    
C23   O5    A    
N3    C35   S    
C18   C19   A    
C9    C10   A    
C17   N2    A    
C2    C23   S    
C37   O10   D    
C2    C13   A    
C17   H5    S    
N3    H14   S    
C6    C8    A    
C25   H2    S    
C35   H17   S    
C12   C30   S    
C25   C26   A    
C5    H11   S    
C14   H1    S    
C31   C32   S    
C28   N1    A    
C28   C37   S    
C20   C22   A    
C4    C5    A    
N2    Zn2   S    
