data_mof_unit_48112.cif
_audit_creation_date              2012-12-10T18:59:53-0500
_audit_creation_method            fapswitch 2.2
_symmetry_space_group_name_H-M    P1
_symmetry_Int_Tables_number       1
_space_group_crystal_system       triclinic
_cell_length_a                    10.71499
_cell_length_b                    10.675452
_cell_length_c                    9.821608
_cell_angle_alpha                 88.777953
_cell_angle_beta                  90.174396
_cell_angle_gamma                 90.911436
_cell_volume                      1123.06607046

loop_
_atom_site_label
_atom_site_type_symbol
_atom_type_description
_atom_site_fract_x
_atom_site_fract_y
_atom_site_fract_z
_atom_type_partial_charge
C1    C     C_R   0.495069 0.259996 0.501350 0.960974
C2    C     C_R   0.504783 0.739909 0.498683 0.966157
C3    C     C_R   0.872336 0.489729 0.500332 -0.083255
C4    C     C_R   0.127542 0.510166 0.499608 -0.087027
C5    C     C_R   0.938999 0.445347 0.614643 0.010725
C6    C     C_R   0.060828 0.554093 0.385037 0.014355
C7    C     C_R   0.578820 0.071742 0.415961 -0.283700
C8    C     C_R   0.420800 0.927827 0.583939 -0.231022
C9    C     C_R   0.586516 0.943471 0.413169 0.565448
C10   C     C_R   0.414364 0.056103 0.588442 0.549418
C11   C     C_R   0.504871 0.872269 0.496810 -0.214654
C12   C     C_R   0.494782 0.127462 0.503248 -0.223925
C13   C     C_R   0.596981 0.552928 0.070973 -0.012015
C14   C     C_R   0.402568 0.448061 0.928994 -0.033999
C15   C     C_R   0.596557 0.553643 0.927022 -0.019573
C16   C     C_R   0.403285 0.446690 0.072946 -0.063891
C17   C     C_R   0.260171 0.506497 0.499553 0.913396
C18   C     C_R   0.739772 0.493321 0.500438 0.920547
C19   C     C_R   0.210215 0.812547 0.167974 0.507351
C20   C     C_R   0.791411 0.182062 0.826291 0.462235
C21   C     C_R   0.167896 0.743180 0.282260 -0.239928
C22   C     C_R   0.834236 0.253435 0.713633 -0.181365
C23   C     C_R   0.118301 0.621700 0.267132 0.086225
C24   C     C_R   0.881449 0.375538 0.731050 0.081595
C25   C     C_R   0.112190 0.569849 0.137088 -0.177345
C26   C     C_R   0.884679 0.426084 0.861772 -0.176242
C27   C     C_R   0.157006 0.637820 0.023839 -0.238106
C28   C     C_R   0.839193 0.356209 0.973395 -0.211197
C29   C     C_R   0.205940 0.758755 0.039137 -0.104079
C30   C     C_R   0.792602 0.234644 0.955823 -0.158693
C31   C     C_R   0.933164 0.540955 0.386013 -0.156713
C32   C     C_R   0.066613 0.459280 0.614115 -0.151362
H1    H     H_    0.238479 0.811348 0.950294 0.203012
H2    H     H_    0.759320 0.180830 0.043476 0.179136
H3    H     H_    0.673545 0.596916 0.871691 0.165716
H4    H     H_    0.326208 0.403547 0.128235 0.157121
H5    H     H_    0.169395 0.784637 0.381962 0.175935
H6    H     H_    0.834882 0.213137 0.613362 0.171882
H7    H     H_    0.072580 0.476967 0.123603 0.154880
H8    H     H_    0.922354 0.519476 0.877016 0.156789
H9    H     H_    0.152665 0.597198 0.923852 0.158586
H10   H     H_    0.841180 0.395886 0.073917 0.154591
H11   H     H_    0.880979 0.576095 0.298770 0.185472
H12   H     H_    0.118649 0.424712 0.701678 0.186479
H13   H     H_    0.640984 0.129094 0.352856 0.201311
H14   H     H_    0.359174 0.870258 0.647465 0.188727
H15   H     H_    0.675241 0.593909 0.124622 0.170482
H16   H     H_    0.323755 0.408353 0.875204 0.156078
N1    N     N_R   0.499970 0.499970 0.857200 -0.092342
N2    N     N_R   0.500030 0.500030 0.142800 -0.095537
O1    O     O_R   0.499990 0.316750 0.614620 -0.563129
O2    O     O_R   0.500010 0.683250 0.385380 -0.571625
O3    O     O_R   0.499990 0.316780 0.385290 -0.632165
O4    O     O_R   0.500010 0.683220 0.614710 -0.612476
O5    O     O_R   0.316760 0.500000 0.614660 -0.628426
O6    O     O_R   0.683240 0.500000 0.385340 -0.630062
O7    O     O_R   0.316760 0.500020 0.385330 -0.622083
O8    O     O_R   0.683240 0.499980 0.614670 -0.623127
Zn1   Zn    Zn3+2 0.500000 0.499980 0.653120 1.019330
Zn2   Zn    Zn3+2 0.500000 0.500020 0.346880 1.007457
S1    S     S_3+6 0.260947 0.969263 0.182848 0.015611
O9    O     O_2   0.179686 0.050987 0.094578 -0.291958
O10   O     O_2   0.252310 0.010026 0.327913 -0.322996
O11   O     O_3   0.409397 0.982936 0.128963 -0.500423
H17   H     H_    0.431546 0.072754 0.138722 0.384919
S2    S     S_3+6 0.743438 0.024657 0.808041 0.062200
O12   O     O_2   0.610299 0.008211 0.853533 -0.249665
O13   O     O_2   0.754263 0.986663 0.662312 -0.269314
O14   O     O_3   0.834727 0.931690 0.904595 -0.490983
H18   H     H_    0.814597 0.952297 0.999648 0.381689
S3    S     S_3+6 0.705958 0.878175 0.314577 0.033582
O15   O     O_2   0.765413 0.773211 0.394008 -0.335503
O16   O     O_2   0.650559 0.829052 0.185253 -0.280527
O17   O     O_3   0.815596 0.987727 0.275873 -0.570576
H19   H     H_    0.889258 0.940163 0.246967 0.394476
S4    S     S_3+6 0.302792 0.121286 0.697562 0.065842
O18   O     O_2   0.240269 0.229320 0.626790 -0.329996
O19   O     O_2   0.205449 0.024486 0.737789 -0.271568
O20   O     O_3   0.376766 0.170881 0.837970 -0.526494
H20   H     H_    0.310073 0.180615 0.906291 0.389337

loop_
_geom_bond_atom_site_label_1
_geom_bond_atom_site_label_2
_ccdc_geom_bond_type
S2    O13   D    
O5    Zn1   S    
C27   C29   A    
S4    O20   S    
C20   C30   A    
C31   H11   S    
C7    H13   S    
C20   S2    S    
C19   C21   A    
C24   C26   A    
C14   N1    A    
C22   H6    S    
C29   H1    S    
C3    C18   S    
S1    O10   D    
C1    O3    A    
O2    Zn2   S    
C10   S4    S    
C18   O8    A    
C17   O5    A    
C18   O6    A    
C5    C32   A    
C23   C25   A    
C6    C31   A    
O14   H18   S    
C1    C12   S    
C2    C11   S    
C10   C12   A    
C15   H3    S    
O3    Zn2   S    
O4    Zn1   S    
C21   C23   A    
C7    C12   A    
O17   H19   S    
C30   H2    S    
S4    O19   D    
S4    O18   D    
C4    C6    A    
C2    O4    A    
C13   H15   S    
O7    Zn2   S    
C14   H16   S    
O8    Zn1   S    
C13   N2    A    
S1    O11   S    
C9    C11   A    
C27   H9    S    
C32   H12   S    
C3    C31   A    
C1    O1    A    
C4    C32   A    
C2    O2    A    
C4    C17   S    
C20   C22   A    
C13   C15   A    
C22   C24   A    
O1    Zn1   S    
C19   C29   A    
S3    O16   D    
C7    C9    A    
C9    S3    S    
C16   N2    A    
C3    C5    A    
S3    O17   S    
C25   C27   A    
C26   C28   A    
N1    Zn1   S    
N2    Zn2   S    
O11   H17   S    
C28   C30   A    
S3    O15   D    
C25   H7    S    
C26   H8    S    
C5    C24   S    
C19   S1    S    
C8    C11   A    
C6    C23   S    
C28   H10   S    
S2    O12   D    
C14   C16   A    
C15   N1    A    
S1    O9    D    
C8    H14   S    
O20   H20   S    
S2    O14   S    
O6    Zn2   S    
C21   H5    S    
C8    C10   A    
C16   H4    S    
C17   O7    A    
