data_mof_unit_61767.cif
_audit_creation_date              2012-10-26T17:38:07-0400
_audit_creation_method            fapswitch 2.2
_symmetry_space_group_name_H-M    P1
_symmetry_Int_Tables_number       1
_space_group_crystal_system       triclinic
_cell_length_a                    29.407228
_cell_length_b                    29.40732
_cell_length_c                    38.889
_cell_angle_alpha                 89.992083
_cell_angle_beta                  89.992095
_cell_angle_gamma                 90.05502
_cell_volume                      33630.7152106

loop_
_atom_site_label
_atom_site_type_symbol
_atom_type_description
_atom_site_fract_x
_atom_site_fract_y
_atom_site_fract_z
_atom_type_partial_charge
C1    C     C_R   0.499975 0.914403 0.000003 0.540097
C2    C     C_1   0.229241 0.500052 0.999998 -0.005451
C3    C     C_R   0.999996 0.500009 0.895114 0.004050
C4    C     C_R   0.999991 0.500005 0.604975 -0.001239
C5    C     C_R   0.500002 0.999992 0.604895 0.008091
C6    C     C_R   0.000009 0.500000 0.395102 0.003014
C7    C     C_R   0.500911 0.999847 0.395098 0.002993
C8    C     C_R   0.504057 0.994624 0.284799 0.325513
C9    C     C_R   0.000013 0.499991 0.284766 0.323352
C10   C     C_R   0.500000 0.999996 0.715240 0.327264
C11   C     C_R   0.999985 0.500012 0.715382 0.328157
C12   C     C_R   0.999989 0.500014 0.784906 0.325133
C13   C     C_1   0.500107 0.229234 0.000016 -0.005835
C14   C     C_R   0.500004 0.000000 0.784760 0.327270
C15   C     C_R   0.000009 0.499987 0.215234 0.323354
C16   C     C_R   0.505376 0.995943 0.215201 0.325514
C17   C     C_1   0.499922 0.863325 0.000023 -0.061645
C18   C     C_1   0.136678 0.500053 1.000000 -0.059823
C19   C     C_1   0.500084 0.136674 0.000047 -0.061445
C20   C     C_1   0.863322 0.499947 0.999997 -0.059875
C21   C     C_1   0.999947 0.363322 0.499999 -0.059398
C22   C     C_1   0.636675 0.000078 0.499977 -0.061667
C23   C     C_1   0.000053 0.636678 0.500001 -0.059451
C24   C     C_1   0.770759 0.499948 0.999989 -0.005555
C25   C     C_1   0.363326 0.999916 0.499953 -0.061467
C26   C     C_1   0.499901 0.820974 0.000010 -0.049441
C27   C     C_1   0.179030 0.500059 0.999997 -0.046488
C28   C     C_1   0.500107 0.179024 0.000035 -0.049267
C29   C     C_1   0.820970 0.499941 0.999992 -0.046568
C30   C     C_1   0.999941 0.320969 0.499994 -0.045999
C31   C     C_1   0.679026 0.000099 0.499990 -0.049446
C32   C     C_1   0.000059 0.679031 0.500000 -0.046080
C33   C     C_1   0.320976 0.999893 0.499964 -0.049272
C34   C     C_3   0.463035 0.920724 0.102400 -0.261804
C35   C     C_1   0.999947 0.270758 0.499991 -0.004965
C36   C     C_3   0.411736 0.926729 0.097860 -0.421298
C37   C     C_3   0.075484 0.457108 0.102862 -0.260181
C38   C     C_3   0.066851 0.406205 0.098031 -0.419499
C39   C     C_3   0.530380 0.080222 0.103168 -0.258440
C40   C     C_3   0.581296 0.083771 0.095732 -0.419176
C41   C     C_3   0.924514 0.542871 0.102877 -0.260142
C42   C     C_3   0.933142 0.593776 0.098041 -0.419629
C43   C     C_3   0.462924 0.921389 0.897117 -0.276564
C44   C     C_3   0.500929 0.887880 0.905568 -0.434370
C45   C     C_3   0.921916 0.461973 0.897154 -0.261194
C46   C     C_1   0.729235 0.000097 0.500008 -0.006184
C47   C     C_3   0.926814 0.410739 0.902829 -0.420692
C48   C     C_3   0.537105 0.078600 0.897095 -0.276620
C49   C     C_3   0.499107 0.112107 0.905567 -0.434356
C50   C     C_3   0.078073 0.538049 0.897127 -0.261194
C51   C     C_3   0.073171 0.589281 0.902799 -0.420713
C52   C     C_3   0.956232 0.425083 0.603025 -0.255294
C53   C     C_3   0.905331 0.430986 0.596257 -0.416257
C54   C     C_3   0.578611 0.037075 0.602882 -0.276595
C55   C     C_3   0.612120 0.999071 0.594432 -0.434322
C56   C     C_3   0.043746 0.574929 0.602998 -0.255292
C57   C     C_1   0.000053 0.729241 0.500000 -0.005069
C58   C     C_3   0.094649 0.569030 0.596227 -0.416233
C59   C     C_3   0.421400 0.962895 0.602905 -0.276651
C60   C     C_3   0.387892 0.000893 0.594433 -0.434309
C61   C     C_3   0.042905 0.424523 0.397138 -0.260146
C62   C     C_3   0.093806 0.433164 0.401968 -0.419581
C63   C     C_3   0.419775 0.969628 0.396832 -0.258423
C64   C     C_3   0.416222 0.918712 0.404268 -0.419218
C65   C     C_3   0.957117 0.575479 0.397122 -0.260108
C66   C     C_3   0.906213 0.566843 0.401958 -0.419712
C67   C     C_3   0.579280 0.036957 0.397601 -0.261786
C68   C     C_1   0.270767 0.999893 0.499984 -0.005797
C69   C     C_3   0.573280 0.088257 0.402141 -0.421345
C70   C     C_3   0.469722 0.917009 0.178994 -0.263695
C71   C     C_3   0.506988 0.881042 0.182569 -0.426850
C72   C     C_3   0.078061 0.462204 0.179492 -0.264083
C73   C     C_3   0.115439 0.497986 0.183746 -0.426101
C74   C     C_3   0.546389 0.072468 0.179746 -0.266670
C75   C     C_3   0.593503 0.057577 0.192026 -0.436448
C76   C     C_3   0.921947 0.537763 0.179509 -0.264115
C77   C     C_3   0.884573 0.501976 0.183779 -0.426165
C78   C     C_3   0.461662 0.922153 0.820473 -0.269597
C79   C     C_1   0.499918 0.728407 0.999986 -0.004299
C80   C     C_3   0.411530 0.930358 0.812428 -0.438501
C81   C     C_3   0.921230 0.464092 0.820295 -0.269211
C82   C     C_3   0.886611 0.501735 0.813421 -0.433899
C83   C     C_3   0.538341 0.077849 0.820449 -0.269580
C84   C     C_3   0.588472 0.069650 0.812387 -0.438533
C85   C     C_3   0.078747 0.535943 0.820267 -0.269224
C86   C     C_3   0.113368 0.498304 0.813388 -0.433881
C87   C     C_3   0.943086 0.434473 0.679680 -0.266724
C88   C     C_3   0.900709 0.458805 0.693121 -0.435480
C89   C     C_3   0.577847 0.038338 0.679527 -0.269523
C90   C     C_1   0.271599 0.500042 0.000000 -0.004154
C91   C     C_3   0.569643 0.088470 0.687571 -0.438592
C92   C     C_3   0.056881 0.565552 0.679653 -0.266727
C93   C     C_3   0.099258 0.541225 0.693095 -0.435462
C94   C     C_3   0.422150 0.961659 0.679551 -0.269506
C95   C     C_3   0.430349 0.911529 0.687613 -0.438623
C96   C     C_3   0.037808 0.421945 0.320507 -0.264080
C97   C     C_3   0.002031 0.384562 0.316254 -0.426109
C98   C     C_3   0.427527 0.953618 0.320254 -0.266659
C99   C     C_3   0.442414 0.906503 0.307974 -0.436464
C100  C     C_3   0.962225 0.578047 0.320490 -0.264112
C101  C     C_1   0.500090 0.271592 0.000008 -0.003923
C102  C     C_3   0.998007 0.615426 0.316221 -0.426173
C103  C     C_3   0.582994 0.030271 0.321006 -0.263697
C104  C     C_3   0.618958 0.993001 0.317431 -0.426850
C105  C     C_R   0.085598 0.500019 0.000005 0.538355
C106  C     C_1   0.728401 0.499958 0.999989 -0.004269
C107  C     C_1   0.999958 0.228401 0.499991 -0.003753
C108  C     C_1   0.771593 0.000082 0.500014 -0.004221
C109  C     C_1   0.000042 0.771599 0.500002 -0.003868
C110  C     C_1   0.228408 0.999910 0.499992 -0.003845
C111  C     C_1   0.499945 0.678191 0.999987 -0.038837
C112  C     C_1   0.321813 0.500026 0.000003 -0.038690
C113  C     C_1   0.500060 0.321808 0.000005 -0.038538
C114  C     C_1   0.678187 0.499973 0.999991 -0.038806
C115  C     C_1   0.999973 0.178186 0.499991 -0.038368
C116  C     C_R   0.500027 0.085597 0.000022 0.541243
C117  C     C_1   0.821809 0.000055 0.500013 -0.038711
C118  C     C_1   0.000027 0.821813 0.500004 -0.038484
C119  C     C_1   0.178192 0.999940 0.499995 -0.038412
C120  C     C_1   0.499970 0.635831 0.999991 -0.039569
C121  C     C_1   0.364172 0.500014 0.000005 -0.039429
C122  C     C_1   0.500034 0.364169 0.000005 -0.039355
C123  C     C_1   0.635828 0.499986 0.999993 -0.039529
C124  C     C_1   0.999986 0.135827 0.499993 -0.039188
C125  C     C_1   0.864169 0.000030 0.500008 -0.039426
C126  C     C_1   0.000014 0.864173 0.500005 -0.039287
C127  C     C_R   0.914402 0.499981 0.000006 0.538342
C128  C     C_1   0.135831 0.999966 0.499995 -0.039212
C129  C     C_R   0.415270 0.500001 0.000002 0.542590
C130  C     C_R   0.500005 0.415269 0.000002 0.542592
C131  C     C_R   0.584729 0.499999 0.999998 0.542539
C132  C     C_R   0.499995 0.584731 0.999997 0.542522
C133  C     C_R   0.915269 0.000005 0.500002 0.542463
C134  C     C_R   0.000001 0.915271 0.500002 0.542486
C135  C     C_R   0.084731 0.999994 0.499998 0.542531
C136  C     C_R   0.999999 0.084729 0.499998 0.542537
C137  C     C_R   0.499984 0.999515 0.066918 0.552497
C138  C     C_R   0.999980 0.414402 0.500004 0.538655
C139  C     C_R   1.000000 0.499997 0.066926 0.552345
C140  C     C_R   0.500003 1.000000 0.933070 0.556669
C141  C     C_R   1.000000 0.500003 0.933079 0.553387
C142  C     C_R   0.999997 0.500000 0.566947 0.551482
C143  C     C_R   0.500000 0.999997 0.566930 0.556698
C144  C     C_R   0.000003 0.500000 0.433073 0.552404
C145  C     C_R   0.500485 0.000016 0.433082 0.552522
C146  C     C_R   0.483824 0.960189 0.122663 -0.001378
C147  C     C_R   0.036830 0.479725 0.122882 -0.000593
C148  C     C_R   0.518274 0.036912 0.122996 -0.001199
C149  C     C_R   0.585597 0.000025 0.499997 0.540119
C150  C     C_R   0.963172 0.520252 0.122890 -0.000562
C151  C     C_R   0.481347 0.962284 0.877122 0.001773
C152  C     C_R   0.962266 0.481395 0.877133 -0.000363
C153  C     C_R   0.518670 0.037711 0.877111 0.001778
C154  C     C_R   0.037721 0.518628 0.877120 -0.000363
C155  C     C_R   0.976480 0.465115 0.622977 -0.002089
C156  C     C_R   0.537716 0.018653 0.622877 0.001750
C157  C     C_R   0.023497 0.534899 0.622964 -0.002090
C158  C     C_R   0.462288 0.981330 0.622889 0.001755
C159  C     C_R   0.020281 0.463174 0.377117 -0.000601
C160  C     C_R   0.000020 0.585598 0.500004 0.538642
C161  C     C_R   0.463086 0.981729 0.377004 -0.001205
C162  C     C_R   0.979742 0.536824 0.377110 -0.000570
C163  C     C_R   0.539812 0.016172 0.377337 -0.001381
C164  C     C_R   0.486609 0.958635 0.159120 0.016536
C165  C     C_R   0.037506 0.481048 0.159392 0.016789
C166  C     C_R   0.522538 0.034725 0.159403 0.018995
C167  C     C_R   0.962500 0.518924 0.159400 0.016833
C168  C     C_R   0.481893 0.962052 0.840602 0.018822
C169  C     C_R   0.962043 0.481969 0.840612 0.017692
C170  C     C_R   0.518118 0.037947 0.840591 0.018821
C171  C     C_R   0.414403 0.999973 0.499978 0.541266
C172  C     C_R   0.037939 0.518060 0.840599 0.017690
C173  C     C_R   0.974008 0.466877 0.659458 0.018149
C174  C     C_R   0.537948 0.018106 0.659397 0.018800
C175  C     C_R   0.025963 0.533144 0.659445 0.018147
C176  C     C_R   0.462053 0.981882 0.659409 0.018798
C177  C     C_R   0.018958 0.462497 0.340608 0.016776
C178  C     C_R   0.465273 0.977465 0.340597 0.018990
C179  C     C_R   0.981070 0.537497 0.340600 0.016820
C180  C     C_R   0.541367 0.013387 0.340880 0.016530
C181  C     C_R   0.505414 0.996149 0.177203 0.030994
C182  C     C_1   0.499903 0.770765 0.999992 -0.006222
C183  C     C_R   0.000005 0.499986 0.177326 0.027298
C184  C     C_R   0.500005 0.000000 0.822669 0.029932
C185  C     C_R   0.999990 0.500015 0.822746 0.031289
C186  C     C_R   0.999985 0.500011 0.677401 0.033754
C187  C     C_R   0.500000 0.999995 0.677331 0.029915
C188  C     C_R   0.000014 0.499995 0.322673 0.027282
C189  C     C_R   0.503851 0.994586 0.322798 0.030987
C190  C     C_R   0.500153 0.999089 0.104902 0.003002
C191  C     C_R   0.000000 0.499991 0.104898 0.003043
C192  C     C_R   0.500008 0.999998 0.895105 0.008106
Cu1   Cu    Cu3+1 0.542440 0.000000 0.000000 0.900249
Cu2   Cu    Cu3+1 0.500000 0.500000 0.965730 0.939833
Cu3   Cu    Cu3+1 0.000000 0.000000 0.534270 0.941391
Cu4   Cu    Cu3+1 0.000000 0.000000 0.465730 0.939787
Cu5   Cu    Cu3+1 1.000000 0.542440 0.000000 0.895614
Cu6   Cu    Cu3+1 0.457560 0.000000 0.000000 0.898676
Cu7   Cu    Cu3+1 1.000000 0.457560 0.000000 0.895710
Cu8   Cu    Cu3+1 0.042440 0.500000 0.500000 0.895103
Cu9   Cu    Cu3+1 0.500000 0.042440 0.500000 0.898473
Cu10  Cu    Cu3+1 0.957560 0.500000 0.500000 0.895008
Cu11  Cu    Cu3+1 0.500000 0.957560 0.500000 0.900044
Cu12  Cu    Cu3+1 0.500000 0.500000 0.034270 0.939817
H1    H     H_    0.403983 0.958608 0.083841 0.180105
H2    H     H_    0.108802 0.461983 0.115517 0.135776
H3    H     H_    0.907537 0.568400 0.167129 0.136244
H4    H     H_    0.391820 0.935435 0.836469 0.149304
H5    H     H_    0.397408 0.900530 0.798544 0.134693
H6    H     H_    0.407637 0.960876 0.795874 0.175575
H7    H     H_    0.479913 0.915951 0.796076 0.171449
H8    H     H_    0.465799 0.889365 0.834090 0.137819
H9    H     H_    0.857036 0.487427 0.799340 0.134384
H10   H     H_    0.901822 0.529092 0.797529 0.185750
H11   H     H_    0.874339 0.516838 0.837857 0.146360
H12   H     H_    0.931907 0.449106 0.795384 0.159513
H13   H     H_    0.593683 0.052606 0.082674 0.176718
H14   H     H_    0.904105 0.435545 0.833542 0.138773
H15   H     H_    0.608189 0.064570 0.836420 0.149255
H16   H     H_    0.602587 0.099481 0.798494 0.134692
H17   H     H_    0.592363 0.039136 0.795834 0.175564
H18   H     H_    0.520082 0.084054 0.796059 0.171456
H19   H     H_    0.534206 0.110635 0.834064 0.137821
H20   H     H_    0.142942 0.512618 0.799298 0.134389
H21   H     H_    0.098158 0.470949 0.797503 0.185760
H22   H     H_    0.125645 0.483199 0.837823 0.146382
H23   H     H_    0.068066 0.550931 0.795358 0.159508
H24   H     H_    0.587696 0.113339 0.078635 0.137306
H25   H     H_    0.095870 0.564491 0.833506 0.138774
H26   H     H_    0.877153 0.433575 0.704735 0.130523
H27   H     H_    0.882810 0.476405 0.671802 0.152685
H28   H     H_    0.909516 0.484069 0.713170 0.179994
H29   H     H_    0.931216 0.405053 0.664583 0.137500
H30   H     H_    0.961687 0.418706 0.701369 0.169086
H31   H     H_    0.564566 0.108180 0.663531 0.149196
H32   H     H_    0.599470 0.102592 0.701455 0.134701
H33   H     H_    0.539125 0.092364 0.704125 0.175517
H34   H     H_    0.584049 0.020087 0.703924 0.171490
H35   H     H_    0.601030 0.088806 0.119665 0.142956
H36   H     H_    0.610635 0.034201 0.665910 0.137887
H37   H     H_    0.122812 0.566459 0.704697 0.130518
H38   H     H_    0.117160 0.523622 0.671778 0.152702
H39   H     H_    0.090452 0.515964 0.713153 0.180000
H40   H     H_    0.068749 0.594971 0.664546 0.137492
H41   H     H_    0.038277 0.581320 0.701341 0.169081
H42   H     H_    0.435430 0.891811 0.663580 0.149147
H43   H     H_    0.400518 0.897413 0.701506 0.134699
H44   H     H_    0.460864 0.907638 0.704166 0.175506
H45   H     H_    0.415946 0.979918 0.703941 0.171498
H46   H     H_    0.512066 0.082032 0.078281 0.150175
H47   H     H_    0.389364 0.965795 0.665936 0.137890
H48   H     H_    0.989742 0.372200 0.341539 0.141598
H49   H     H_    0.017064 0.355464 0.302069 0.136581
H50   H     H_    0.972344 0.397189 0.301549 0.187219
H51   H     H_    0.050168 0.432155 0.294677 0.157814
H52   H     H_    0.068449 0.407545 0.332887 0.136391
H53   H     H_    0.412834 0.888322 0.296725 0.131064
H54   H     H_    0.455810 0.886150 0.329772 0.152335
H55   H     H_    0.469017 0.908964 0.287906 0.179505
H56   H     H_    0.395823 0.948974 0.334975 0.138513
H57   H     H_    0.517975 0.110964 0.116719 0.127301
H58   H     H_    0.417039 0.974486 0.297886 0.167281
H59   H     H_    0.010292 0.627792 0.341500 0.141576
H60   H     H_    0.982980 0.644523 0.302028 0.136369
H61   H     H_    0.027696 0.602793 0.301517 0.187243
H62   H     H_    0.949867 0.567835 0.294665 0.157734
H63   H     H_    0.931585 0.592453 0.332870 0.136234
H64   H     H_    0.648635 0.006500 0.303013 0.135464
H65   H     H_    0.605234 0.963313 0.303278 0.186431
H66   H     H_    0.630809 0.981080 0.342944 0.141541
H67   H     H_    0.573680 0.042650 0.294995 0.158469
H68   H     H_    0.965188 0.599801 0.083734 0.179625
H69   H     H_    0.598449 0.060513 0.333265 0.136358
H70   H     H_    0.904666 0.608991 0.083255 0.135573
H71   H     H_    0.935635 0.611397 0.123178 0.137487
H72   H     H_    0.919547 0.526870 0.077329 0.153113
H73   H     H_    0.397864 0.897701 0.082905 0.136042
H74   H     H_    0.891198 0.537989 0.115541 0.135694
H75   H     H_    0.526878 0.904311 0.922187 0.166765
H76   H     H_    0.486612 0.858159 0.919477 0.141397
H77   H     H_    0.517576 0.875682 0.881669 0.150893
H78   H     H_    0.445894 0.931566 0.921236 0.171666
H79   H     H_    0.435295 0.903639 0.883216 0.136487
H80   H     H_    0.957721 0.403008 0.918041 0.180571
H81   H     H_    0.896745 0.397827 0.917091 0.135617
H82   H     H_    0.929204 0.392316 0.878022 0.138710
H83   H     H_    0.917878 0.478889 0.922461 0.151055
H84   H     H_    0.394255 0.927914 0.123114 0.138502
H85   H     H_    0.889239 0.469032 0.884079 0.136500
H86   H     H_    0.473164 0.095672 0.922196 0.166800
H87   H     H_    0.513433 0.141820 0.919471 0.141269
H88   H     H_    0.482451 0.124319 0.881676 0.150944
H89   H     H_    0.554150 0.068412 0.921204 0.171497
H90   H     H_    0.564726 0.096355 0.883179 0.136461
H91   H     H_    0.042265 0.597005 0.918019 0.180548
H92   H     H_    0.103240 0.602193 0.917051 0.135624
H93   H     H_    0.070775 0.607709 0.877991 0.138709
H94   H     H_    0.082117 0.521127 0.922434 0.151051
H95   H     H_    0.479100 0.917131 0.076740 0.151068
H96   H     H_    0.110749 0.530997 0.884043 0.136512
H97   H     H_    0.898430 0.464091 0.583636 0.177131
H98   H     H_    0.893300 0.403347 0.579057 0.135637
H99   H     H_    0.885442 0.429301 0.620390 0.140687
H100  H     H_    0.973557 0.420229 0.577964 0.153058
H101  H     H_    0.963008 0.392411 0.616297 0.125534
H102  H     H_    0.595690 0.973122 0.577813 0.166743
H103  H     H_    0.641841 0.013387 0.580523 0.141440
H104  H     H_    0.624319 0.982424 0.618331 0.150946
H105  H     H_    0.568434 0.054105 0.578764 0.171637
H106  H     H_    0.469657 0.887494 0.114710 0.136999
H107  H     H_    0.596361 0.064704 0.616784 0.136470
H108  H     H_    0.101556 0.535921 0.583618 0.177154
H109  H     H_    0.106680 0.596664 0.579014 0.135633
H110  H     H_    0.114534 0.570725 0.620357 0.140680
H111  H     H_    0.026426 0.579777 0.577937 0.153063
H112  H     H_    0.036965 0.607603 0.616260 0.125516
H113  H     H_    0.404328 0.026836 0.577804 0.166779
H114  H     H_    0.358179 0.986568 0.580529 0.141312
H115  H     H_    0.375681 0.017549 0.618324 0.150997
H116  H     H_    0.431587 0.945850 0.578796 0.171468
H117  H     H_    0.034802 0.400186 0.083734 0.179605
H118  H     H_    0.403645 0.935274 0.616821 0.136443
H119  H     H_    0.099820 0.465213 0.416264 0.179522
H120  H     H_    0.109025 0.404694 0.416761 0.135702
H121  H     H_    0.111432 0.435657 0.376829 0.137587
H122  H     H_    0.026898 0.419553 0.422688 0.153102
H123  H     H_    0.038034 0.391204 0.384483 0.135753
H124  H     H_    0.447385 0.906323 0.417326 0.176689
H125  H     H_    0.386653 0.912315 0.421365 0.137271
H126  H     H_    0.411185 0.898978 0.380335 0.142936
H127  H     H_    0.417967 0.987942 0.421719 0.150174
H128  H     H_    0.095323 0.390991 0.083238 0.135772
H129  H     H_    0.389034 0.982035 0.383281 0.127294
H130  H     H_    0.900192 0.534797 0.416265 0.179543
H131  H     H_    0.890993 0.595316 0.416744 0.135503
H132  H     H_    0.888592 0.564348 0.376821 0.137452
H133  H     H_    0.973117 0.580449 0.422670 0.153084
H134  H     H_    0.961994 0.608796 0.384458 0.135672
H135  H     H_    0.541401 0.096011 0.416160 0.180079
H136  H     H_    0.602309 0.102125 0.417096 0.135994
H137  H     H_    0.572096 0.105738 0.376887 0.138476
H138  H     H_    0.582871 0.020892 0.423260 0.151066
H139  H     H_    0.064360 0.388578 0.123170 0.137623
H140  H     H_    0.612509 0.030332 0.385290 0.136994
H141  H     H_    0.518908 0.869190 0.157056 0.141551
H142  H     H_    0.493487 0.851366 0.196988 0.135454
H143  H     H_    0.536678 0.894764 0.196722 0.186434
H144  H     H_    0.457344 0.926324 0.205006 0.158472
H145  H     H_    0.439477 0.901557 0.166735 0.136367
H146  H     H_    0.127799 0.510277 0.158461 0.141635
H147  H     H_    0.144539 0.482958 0.197931 0.136568
H148  H     H_    0.102808 0.527672 0.198451 0.187224
H149  H     H_    0.067852 0.449842 0.205322 0.157817
H150  H     H_    0.080452 0.473114 0.077311 0.153132
H151  H     H_    0.092465 0.431566 0.167112 0.136401
H152  H     H_    0.611687 0.087156 0.203275 0.131074
H153  H     H_    0.613854 0.044179 0.170228 0.152365
H154  H     H_    0.591039 0.030975 0.212094 0.179507
H155  H     H_    0.551036 0.104172 0.165025 0.138515
H156  H     H_    0.525522 0.082958 0.202114 0.167277
H157  H     H_    0.872209 0.489689 0.158499 0.141613
H158  H     H_    0.855474 0.516999 0.197972 0.136355
H159  H     H_    0.897210 0.472289 0.198483 0.187249
H160  H     H_    0.932157 0.550123 0.205334 0.157737
N1    N     N_R   0.476840 0.023621 0.232886 -0.244029
N2    N     N_R   0.472083 0.028303 0.732900 -0.250970
N3    N     N_R   0.018829 0.465005 0.733077 -0.253491
N4    N     N_R   0.527919 0.971691 0.732901 -0.250999
N5    N     N_R   0.028220 0.528009 0.267095 -0.249547
N6    N     N_R   0.476381 0.023162 0.267114 -0.244035
N7    N     N_R   0.971804 0.471971 0.267112 -0.249566
N8    N     N_R   0.532474 0.966884 0.267103 -0.258291
N9    N     N_R   0.028025 0.528200 0.232888 -0.249557
N10   N     N_R   0.533113 0.967523 0.232897 -0.258288
N11   N     N_R   0.971995 0.471776 0.232904 -0.249538
N12   N     N_R   0.471697 0.027917 0.767099 -0.250960
N13   N     N_R   0.981320 0.535112 0.767285 -0.250137
N14   N     N_R   0.528309 0.972081 0.767099 -0.250989
N15   N     N_R   0.018655 0.464915 0.767289 -0.250118
N16   N     N_R   0.981142 0.535020 0.733073 -0.253512
O1    O     O_R   0.535830 0.937970 0.000040 -0.483198
O2    O     O_R   0.562030 0.035830 0.500040 -0.491708
O3    O     O_R   0.964170 0.562030 0.500040 -0.486416
O4    O     O_R   0.437970 0.964170 0.500040 -0.491275
O5    O     O_R   0.964170 0.437970 0.499960 -0.486852
O6    O     O_R   0.437970 0.035830 0.499960 -0.483170
O7    O     O_R   0.035830 0.562030 0.499960 -0.486847
O8    O     O_R   0.562030 0.964170 0.499960 -0.483206
O9    O     O_R   0.535830 0.999940 0.049970 -0.499861
O10   O     O_R   0.000060 0.535830 0.049970 -0.503356
O11   O     O_R   0.464170 0.000060 0.049970 -0.504465
O12   O     O_R   0.062030 0.535830 0.000040 -0.486332
O13   O     O_R   0.999940 0.464170 0.049970 -0.503347
O14   O     O_R   0.464170 0.999940 0.950030 -0.506067
O15   O     O_R   0.999940 0.535830 0.950030 -0.503049
O16   O     O_R   0.535830 0.000060 0.950030 -0.506299
O17   O     O_R   0.000060 0.464170 0.950030 -0.503040
O18   O     O_R   0.035830 0.499940 0.549970 -0.501702
O19   O     O_R   0.500060 0.035830 0.549970 -0.506084
O20   O     O_R   0.964170 0.500060 0.549970 -0.501711
O21   O     O_R   0.499940 0.964170 0.549970 -0.506316
O22   O     O_R   0.964170 0.499940 0.450030 -0.503364
O23   O     O_R   0.464170 0.062030 0.000040 -0.483162
O24   O     O_R   0.499940 0.035830 0.450030 -0.504464
O25   O     O_R   0.035830 0.500060 0.450030 -0.503355
O26   O     O_R   0.500060 0.964170 0.450030 -0.499862
O27   O     O_R   0.437960 0.499970 0.028950 -0.483982
O28   O     O_R   0.500030 0.437960 0.028950 -0.483883
O29   O     O_R   0.562040 0.500030 0.028950 -0.484056
O30   O     O_R   0.499970 0.562040 0.028950 -0.484103
O31   O     O_R   0.562040 0.499970 0.971050 -0.484012
O32   O     O_R   0.499970 0.437960 0.971050 -0.484032
O33   O     O_R   0.437960 0.500030 0.971050 -0.484010
O34   O     O_R   0.937970 0.464170 0.000040 -0.486326
O35   O     O_R   0.500030 0.562040 0.971050 -0.483985
O36   O     O_R   0.937960 0.999970 0.528950 -0.483821
O37   O     O_R   0.000030 0.937960 0.528950 -0.483766
O38   O     O_R   0.062040 0.000030 0.528950 -0.483867
O39   O     O_R   0.999970 0.062040 0.528950 -0.483764
O40   O     O_R   0.062040 0.999970 0.471050 -0.483980
O41   O     O_R   0.999970 0.937960 0.471050 -0.484186
O42   O     O_R   0.937960 0.000030 0.471050 -0.484202
O43   O     O_R   0.000030 0.062040 0.471050 -0.484112
O44   O     O_R   0.464170 0.937970 0.999960 -0.491696
O45   O     O_R   0.937970 0.535830 0.999960 -0.486708
O46   O     O_R   0.535830 0.062030 0.999960 -0.491264
O47   O     O_R   0.062030 0.464170 0.999960 -0.486669
O48   O     O_R   0.035830 0.437970 0.500040 -0.486376

loop_
_geom_bond_atom_site_label_1
_geom_bond_atom_site_label_2
_ccdc_geom_bond_type
C88   H26   S    
C48   C153  S    
C101  C113  S    
C37   H2    S    
C38   H117  S    
C51   H93   S    
C116  O46   A    
C127  O34   A    
Cu2   O35   S    
C53   H98   S    
C40   H35   S    
C93   H38   S    
C95   H42   S    
C4    C142  S    
C5    C143  S    
C81   H12   S    
C74   H156  S    
C2    C90   T    
C54   H107  S    
C67   H138  S    
C50   H96   S    
C41   H74   S    
C149  O2    A    
C57   C109  T    
C113  C122  T    
C97   H50   S    
C136  O43   A    
Cu6   O44   S    
C66   H132  S    
Cu3   O37   S    
C134  O37   A    
C83   H19   S    
C119  C128  T    
C25   C171  S    
C131  O31   A    
C59   C60   S    
C71   H142  S    
C63   H127  S    
C89   C174  S    
C143  O19   A    
C160  O3    A    
C15   N11   A    
C109  C118  S    
C10   N2    A    
Cu5   O12   S    
C45   C47   S    
C92   C175  S    
Cu6   O11   S    
N3    N15   A    
Cu9   O2    S    
C165  C183  A    
C85   H25   S    
C58   H108  S    
Cu11  O4    S    
C39   H57   S    
C128  C135  S    
C178  C189  A    
C179  C188  A    
C99   H54   S    
C7    C163  A    
Cu4   O42   S    
C72   H151  S    
C43   C44   S    
N4    N14   A    
C37   C38   S    
C14   N14   A    
C22   C31   T    
C91   H33   S    
C139  O13   A    
C160  O7    A    
C68   C110  T    
C37   C147  S    
C58   H109  S    
Cu2   O32   S    
C59   H116  S    
C60   H115  S    
C43   H79   S    
C26   C182  S    
C88   H28   S    
C1    O1    A    
C129  O27   A    
C36   H84   S    
C78   H8    S    
C48   H90   S    
C80   H6    S    
Cu8   O25   S    
Cu10  O5    S    
C63   C161  S    
Cu10  O20   S    
Cu6   O23   S    
C170  C184  A    
C89   H34   S    
Cu2   O33   S    
C72   C73   S    
C75   H154  S    
C87   H29   S    
C79   C182  T    
C84   H17   S    
C54   H105  S    
C50   H94   S    
Cu11  O21   S    
C175  C186  A    
C54   C156  S    
C34   C146  S    
C100  H62   S    
C73   H146  S    
C12   C185  S    
Cu8   O48   S    
C3    C154  A    
C42   H68   S    
C66   H130  S    
C35   C107  T    
C82   H11   S    
C42   H70   S    
C77   H159  S    
C4    C155  A    
C126  C134  S    
Cu8   Cu10  S    
C5    C158  A    
C45   H85   S    
C55   H103  S    
C15   N9    A    
C62   H121  S    
Cu8   O18   S    
Cu3   O36   S    
C69   H135  S    
C65   H133  S    
C3    C141  S    
Cu4   O41   S    
C85   C86   S    
Cu7   O13   S    
C7    C161  A    
C177  C188  A    
C14   N12   A    
C180  C189  A    
C59   C158  S    
C78   C80   S    
C12   N13   A    
C91   H31   S    
Cu5   Cu7   S    
C103  C180  S    
C164  C181  A    
C84   H16   S    
C95   H43   S    
C104  H65   S    
C4    C157  A    
C147  C191  A    
N13   N16   A    
C31   C46   S    
C46   C108  T    
C153  C170  A    
C149  O8    A    
C89   C91   S    
C38   H139  S    
C23   C160  S    
Cu9   Cu11  S    
C89   H36   S    
C49   H86   S    
Cu2   O31   S    
C75   H152  S    
C148  C190  A    
C70   H144  S    
C71   H143  S    
C96   H52   S    
C20   C127  S    
Cu9   O19   S    
N2    N12   A    
C39   C40   S    
C64   H126  S    
C73   H148  S    
C146  C164  A    
Cu10  O22   S    
C171  O6    A    
Cu3   Cu4   S    
C136  O39   A    
C103  H67   S    
C40   H24   S    
C56   C157  S    
C174  C187  A    
C82   H9    S    
C135  O40   A    
C98   H58   S    
C83   C84   S    
C99   H55   S    
C172  C185  A    
Cu2   Cu12  S    
C129  O33   A    
C67   H140  S    
C19   C28   T    
C51   H92   S    
C2    C27   S    
C62   H119  S    
C114  C123  T    
C144  O22   A    
C151  C192  A    
C80   H4    S    
C98   C99   S    
C81   C169  S    
C59   H118  S    
C24   C106  T    
C6    C144  S    
Cu4   O43   S    
C52   C53   S    
C97   H49   S    
C158  C176  A    
C54   C55   S    
C108  C117  S    
C47   H82   S    
C110  C119  S    
Cu5   O15   S    
C78   C168  S    
Cu10  O3    S    
C8    N6    A    
C61   H123  S    
C53   H97   S    
C112  C121  T    
C93   H37   S    
C44   H76   S    
C39   H46   S    
C19   C116  S    
C86   H22   S    
C77   H157  S    
C56   C58   S    
C16   N1    A    
C34   C36   S    
Cu11  O8    S    
C61   C62   S    
C141  O15   A    
C104  H66   S    
Cu11  O26   S    
C63   C64   S    
C67   C163  S    
Cu12  O29   S    
C70   H145  S    
C86   H21   S    
C52   H101  S    
C49   H88   S    
Cu1   O16   S    
C117  C125  T    
C33   C68   S    
C25   C33   T    
C7    C145  S    
C87   C88   S    
C144  O25   A    
C16   N10   A    
C40   H13   S    
C11   C186  S    
C148  C166  A    
C41   C42   S    
C71   H141  S    
Cu7   O17   S    
C9    C188  S    
C52   C155  S    
C12   N15   A    
C156  C174  A    
C3    C152  A    
C105  O12   A    
C32   C57   S    
C60   H114  S    
C34   H106  S    
C139  C191  S    
Cu4   O40   S    
C130  O28   A    
C135  O38   A    
C99   H53   S    
C125  C133  S    
Cu1   Cu6   S    
C63   H129  S    
C143  O21   A    
C24   C29   S    
Cu12  O27   S    
C150  C191  A    
C102  H61   S    
C15   C183  S    
C39   C148  S    
C13   C28   S    
C70   C71   S    
C85   H23   S    
C96   C177  S    
C58   H110  S    
C133  O36   A    
C22   C149  S    
C120  C132  S    
C133  O42   A    
C21   C138  S    
Cu6   O14   S    
Cu7   O47   S    
C64   H124  S    
C87   C173  S    
C140  O14   A    
C8    N8    A    
C53   H99   S    
C93   H39   S    
C75   H153  S    
C124  C136  S    
C16   C181  S    
C130  O32   A    
C41   C150  S    
C6    C159  A    
C70   C164  S    
C74   H155  S    
C11   N16   A    
C8    C189  S    
C142  O18   A    
C50   C51   S    
C138  O5    A    
C66   H131  S    
Cu3   O38   S    
C103  H69   S    
N5    N9    A    
C42   H71   S    
C48   C49   S    
N7    N11   A    
C74   C166  S    
C43   C151  S    
C176  C187  A    
C115  C124  T    
C123  C131  S    
C1    C17   S    
Cu1   O9    S    
C121  C129  S    
C137  O9    A    
C132  O30   A    
C92   H41   S    
C5    C156  A    
C21   C30   T    
C45   H83   S    
C45   C152  S    
C23   C32   T    
C152  C169  A    
C150  C167  A    
C92   C93   S    
C36   H1    S    
C94   C95   S    
C132  O35   A    
C88   H27   S    
C103  C104  S    
C161  C178  A    
C78   H7    S    
C48   H89   S    
C94   C176  S    
C80   H5    S    
C171  O4    A    
C140  O16   A    
C141  O17   A    
C72   C165  S    
C52   H100  S    
C81   H14   S    
C90   C112  S    
C94   H47   S    
C81   C82   S    
C134  O41   A    
C87   H30   S    
C30   C35   S    
C106  C114  S    
C17   C26   T    
C61   C159  S    
C142  O20   A    
C73   H147  S    
Cu9   O24   S    
C151  C168  A    
C83   C170  S    
C145  O24   A    
C69   H137  S    
C76   C167  S    
C139  O10   A    
C105  O47   A    
C82   H10   S    
C83   H18   S    
C167  C183  A    
C34   H95   S    
C6    C162  A    
N8    N10   A    
C168  C184  A    
C65   C162  S    
C116  O23   A    
C127  O45   A    
C147  C165  A    
C55   H104  S    
C51   H91   S    
C76   H3    S    
C62   H120  S    
C9    N5    A    
C155  C173  A    
C69   H136  S    
Cu5   O45   S    
C44   H75   S    
C65   H134  S    
C166  C181  A    
C86   H20   S    
C159  C177  A    
C137  O11   A    
C97   H48   S    
C56   H112  S    
C20   C29   T    
C173  C186  A    
C85   C172  S    
C74   C75   S    
C76   C77   S    
Cu8   O7    S    
C47   H81   S    
Cu7   O34   S    
Cu9   O6    S    
C11   N3    A    
C91   H32   S    
C137  C190  S    
C111  C120  T    
C67   C69   S    
C61   H122  S    
C84   H15   S    
C95   H44   S    
C43   H78   S    
Cu1   O46   S    
C96   C97   S    
C100  C102  S    
C10   C187  S    
C154  C172  A    
C38   H128  S    
C107  C115  S    
C162  C179  A    
C41   H72   S    
N1    N6    A    
C157  C175  A    
Cu12  O30   S    
C140  C192  S    
C102  H60   S    
C49   H87   S    
C98   C178  S    
C13   C101  T    
C94   H45   S    
Cu3   O39   S    
C98   H56   S    
C77   H158  S    
C102  H59   S    
C18   C27   T    
C104  H64   S    
C96   H51   S    
Cu1   O1    S    
C14   C184  S    
C64   H125  S    
C56   H111  S    
C10   N4    A    
Cu5   O10   S    
C100  H63   S    
C145  O26   A    
C79   C111  S    
C18   C105  S    
C169  C185  A    
C76   H160  S    
C92   H40   S    
C50   C154  S    
C44   H77   S    
C37   H150  S    
C131  O29   A    
C72   H149  S    
C55   H102  S    
C36   H73   S    
C47   H80   S    
Cu12  O28   S    
C138  O48   A    
C9    N7    A    
C65   C66   S    
C163  C180  A    
C146  C190  A    
C118  C126  T    
C1    O44   A    
C100  C179  S    
C122  C130  S    
C60   H113  S    
C153  C192  A    
