data_mof_unit_8872.cif
_audit_creation_date              2012-12-11T20:41:37-0500
_audit_creation_method            fapswitch 2.2
_symmetry_space_group_name_H-M    P1
_symmetry_Int_Tables_number       1
_space_group_crystal_system       triclinic
_cell_length_a                    8.302675
_cell_length_b                    18.869281
_cell_length_c                    27.067029
_cell_angle_alpha                 97.168411
_cell_angle_beta                  92.620411
_cell_angle_gamma                 86.474673
_cell_volume                      4196.26320032

loop_
_atom_site_label
_atom_site_type_symbol
_atom_type_description
_atom_site_fract_x
_atom_site_fract_y
_atom_site_fract_z
_atom_type_partial_charge
Ba1   Ba    Ba6+2 0.852670 0.466460 0.522850 1.788474
Ba2   Ba    Ba6+2 0.337150 0.533490 0.477140 1.741969
C1    C     C_3   0.719241 0.201946 0.643803 -0.260176
C2    C     C_R   0.919073 0.569879 0.182484 0.624844
C3    C     C_2   0.742159 0.525163 0.271727 -0.045283
C4    C     C_3   0.109749 0.312406 0.650905 0.341326
C5    C     C_3   0.699711 0.518092 0.324763 -0.104976
C6    C     C_1   0.983588 0.489355 0.342916 0.047281
C7    C     C_2   0.021794 0.488330 0.295467 -0.162465
C8    C     C_2   0.895323 0.508436 0.257024 0.205713
C9    C     C_R   0.006955 0.504654 0.103465 -0.142502
C10   C     C_R   0.017159 0.441285 0.126475 -0.018748
C11   C     C_R   0.060206 0.376355 0.098043 -0.047750
C12   C     C_3   0.636111 0.275201 0.639820 0.854652
C13   C     C_R   0.962308 0.570141 0.132156 -0.053364
C14   C     C_2   0.848679 0.522441 0.359210 0.189947
C15   C     C_2   0.351105 0.486658 0.643391 -0.324169
C16   C     C_3   0.101883 0.287844 0.702055 -0.260923
C17   C     C_R   0.130520 0.434332 0.972896 0.033941
C18   C     C_R   0.054091 0.563353 0.976176 0.029365
C19   C     C_R   0.112467 0.497840 0.949247 0.004318
C20   C     C_R   0.189889 0.370754 0.944511 -0.089500
C21   C     C_R   0.225928 0.369033 0.894714 -0.042965
C22   C     C_R   0.207314 0.430769 0.870781 -0.025736
C23   C     C_3   0.552072 0.643897 0.632641 0.790007
C24   C     C_R   0.151375 0.495367 0.897942 -0.087238
C25   C     C_R   0.133542 0.557206 0.873626 -0.103758
C26   C     C_R   0.180094 0.554648 0.823490 0.725818
C27   C     C_R   0.243598 0.428712 0.820077 0.648151
C28   C     C_3   0.203131 0.313132 0.404453 0.259671
C29   C     C_2   0.424230 0.455529 0.729763 0.421238
C30   C     C_3   0.445951 0.435951 0.673818 -0.086958
C31   C     C_1   0.210525 0.515572 0.658911 0.030941
C32   C     C_2   0.165582 0.516097 0.705866 0.488996
C33   C     C_2   0.280084 0.487539 0.744820 0.140452
C34   C     C_3   0.634516 0.655549 0.684191 0.559857
C35   C     C_R   0.088963 0.436089 0.023763 0.037308
C36   C     C_R   0.041630 0.502296 0.051770 0.033040
C37   C     C_R   0.030757 0.566182 0.028772 -0.001624
C38   C     C_R   0.094344 0.373624 0.047993 -0.094637
C39   C     C_R   0.966467 0.634150 0.110270 0.413578
C40   C     C_3   0.205658 0.233585 0.385097 0.403358
C41   C     C_R   0.016309 0.622682 0.948782 0.381358
C42   C     C_R   0.064183 0.619850 0.899232 -0.087723
C43   C     C_R   0.005825 0.631377 0.060007 -0.104209
C44   C     C_2   0.402232 0.296658 0.516047 0.145175
C45   C     C_3   0.074431 0.685072 0.342205 0.831900
C46   C     C_3   0.265105 0.246436 0.513227 -0.004596
C47   C     C_2   0.330550 0.170653 0.517604 -0.087243
C48   C     C_2   0.483390 0.150130 0.503443 -0.031399
C49   C     C_2   0.587954 0.206127 0.489096 -0.110892
C50   C     C_1   0.532324 0.274007 0.491395 0.121902
C51   C     C_R   0.651984 0.933215 0.492654 0.474513
C52   C     C_3   0.011403 0.683091 0.583813 0.390269
C53   C     C_R   0.544693 0.073718 0.500483 0.482185
C54   C     C_R   0.616136 0.807475 0.509304 -0.097400
C55   C     C_R   0.666353 0.735094 0.506359 0.013591
C56   C     C_3   0.126695 0.697134 0.290953 -0.210630
C57   C     C_R   0.903140 0.757218 0.463057 0.051749
C58   C     C_R   0.854098 0.830344 0.465784 -0.149576
C59   C     C_R   0.708279 0.856173 0.488722 -0.066984
C60   C     C_R   0.806889 0.710318 0.482424 -0.267126
C61   C     C_3   0.000692 0.763945 0.597696 0.534524
C62   C     C_3   0.682392 0.369270 0.370774 0.281041
C63   C     C_3   0.717405 0.338584 0.317331 -0.337126
C64   C     C_3   0.553106 0.716933 0.369460 0.364509
C65   C     C_3   0.574314 0.789742 0.352240 0.252453
C66   C     C_R   0.983460 0.443758 0.177460 0.586819
F1    F     F_    0.333896 0.196811 0.406387 -0.740827
F2    F     F_    0.890940 0.782678 0.634682 -0.675148
F3    F     F_    0.485086 0.276870 0.659558 -0.756230
F4    F     F_    0.387905 0.645267 0.638013 -0.726315
F5    F     F_    0.597007 0.602540 0.712006 -0.675720
F6    F     F_    0.908162 0.683845 0.341185 -0.747348
F7    F     F_    0.018882 0.546043 0.719691 -0.628971
H1    H     H_    0.623821 0.281547 0.599572 -0.042637
H2    H     H_    0.839114 0.198166 0.626876 0.089749
H3    H     H_    0.801624 0.290488 0.317217 0.146161
H4    H     H_    0.774252 0.378037 0.297727 0.059527
H5    H     H_    0.603378 0.323302 0.296810 0.124381
H6    H     H_    0.644940 0.159793 0.623557 0.083905
H7    H     H_    0.595894 0.590494 0.614692 -0.041965
H8    H     H_    0.593491 0.708393 0.703758 0.065358
H9    H     H_    0.767507 0.654103 0.680810 0.059868
H10   H     H_    0.734845 0.192652 0.683496 0.126801
H11   H     H_    0.221314 0.264186 0.713607 0.196923
H12   H     H_    0.218847 0.225830 0.344078 0.078261
H13   H     H_    0.128470 0.632432 0.350135 0.035413
H14   H     H_    0.257155 0.706401 0.292021 0.132973
H15   H     H_    0.106398 0.648878 0.264182 0.100010
H16   H     H_    0.057581 0.744097 0.278029 0.158282
H17   H     H_    0.662164 0.703273 0.392213 0.031364
H18   H     H_    0.445595 0.720842 0.392780 0.022679
H19   H     H_    0.679281 0.785836 0.327865 0.164296
H20   H     H_    0.599968 0.829758 0.385018 -0.030377
H21   H     H_    0.997286 0.344633 0.643681 0.068258
H22   H     H_    0.143118 0.471578 0.283989 0.125140
H23   H     H_    0.090999 0.211084 0.393613 0.026623
H24   H     H_    0.067203 0.326668 0.114449 0.125961
H25   H     H_    0.270329 0.318596 0.874999 0.127826
H26   H     H_    0.212269 0.320866 0.959674 0.072685
H27   H     H_    0.122968 0.320944 0.029294 0.073415
H28   H     H_    0.647050 0.537328 0.244679 0.096158
H29   H     H_    0.212554 0.346943 0.651196 0.005172
H30   H     H_    0.039988 0.666477 0.879826 0.130709
H31   H     H_    0.024799 0.681641 0.046892 0.143222
H32   H     H_    0.394644 0.495158 0.607492 0.133147
H33   H     H_    0.249052 0.132026 0.527108 0.109350
H34   H     H_    0.890613 0.664494 0.572237 -0.113781
H35   H     H_    0.707561 0.190638 0.475531 0.116652
H36   H     H_    0.507783 0.825783 0.528988 0.113114
H37   H     H_    0.929466 0.866499 0.450609 0.111162
H38   H     H_    0.066426 0.334273 0.729465 0.105714
H39   H     H_    0.847127 0.654743 0.481964 0.097458
H40   H     H_    0.010585 0.247245 0.701508 0.110883
H41   H     H_    0.327107 0.331357 0.405613 0.043701
H42   H     H_    0.152468 0.322502 0.442079 -0.017105
H43   H     H_    0.354895 0.830600 0.350369 0.321514
H44   H     H_    0.622011 0.403207 0.748432 0.333054
H45   H     H_    0.094502 0.669864 0.552634 -0.030614
H46   H     H_    0.942790 0.738653 0.117971 0.311158
H47   H     H_    0.903402 0.716105 0.944770 0.317289
H48   H     H_    0.784502 0.538812 0.425914 0.296385
H49   H     H_    0.364171 0.351964 0.578913 0.272473
H50   H     H_    0.961753 0.791141 0.564878 -0.094739
H51   H     H_    0.121050 0.782476 0.611318 0.056159
H52   H     H_    0.795609 0.388212 0.389576 -0.001913
H53   H     H_    0.590018 0.414310 0.370789 0.005822
N1    N     N_R   0.934623 0.507549 0.204903 -0.440860
N2    N     N_R   0.234232 0.490633 0.796921 -0.406485
N3    N     N_R   0.505481 0.955026 0.511375 -0.234298
N4    N     N_R   0.452944 0.023552 0.515137 -0.233320
N5    N     N_R   0.691590 0.052108 0.481829 -0.229173
N6    N     N_R   0.744159 0.983362 0.477979 -0.230023
O1    O     O_2   0.914730 0.537460 0.618690 -0.463053
O2    O     O_2   0.238547 0.752791 0.469734 -0.515900
O3    O     O_3   0.127290 0.740644 0.377586 -0.641005
O4    O     O_3   0.146720 0.537410 0.558510 -0.481300
O5    O     O_3   0.553920 0.415280 0.473710 -0.455216
O6    O     O_2   0.383540 0.672140 0.526840 -0.444921
O7    O     O_3   0.586543 0.700129 0.606117 -0.653673
O8    O     O_2   0.366500 0.553266 0.327155 -0.527509
O9    O     O_3   0.535007 0.665089 0.327892 -0.559634
O10   O     O_2   0.995007 0.388748 0.197230 -0.590572
O11   O     O_2   0.283270 0.371319 0.796468 -0.581818
O12   O     O_3   0.622731 0.315177 0.394188 -0.615769
O13   O     O_2   0.866783 0.625065 0.206314 -0.503665
O14   O     O_2   0.173984 0.609670 0.803826 -0.501087
O15   O     O_3   0.666360 0.409390 0.586570 -0.452786
O16   O     O_2   0.778024 0.464963 0.675994 -0.392425
O17   O     O_3   0.068222 0.651545 0.625682 -0.535970
O18   O     O_3   0.728578 0.328411 0.666578 -0.655949
O19   O     O_2   0.806150 0.327840 0.473120 -0.484536
O20   O     O_3   0.073640 0.373350 0.561550 -0.493772
O21   O     O_2   0.933086 0.249920 0.536958 -0.506747
O22   O     O_3   0.436282 0.812360 0.325436 -0.686706
O23   O     O_3   0.130041 0.252578 0.614824 -0.588212
O24   O     O_3   0.536763 0.434849 0.765216 -0.654609
O25   O     O_3   0.938025 0.699373 0.138924 -0.657372
O26   O     O_3   0.919954 0.680524 0.968834 -0.733349
O27   O     O_3   0.848705 0.564163 0.404419 -0.707065
O28   O     O_3   0.400917 0.360891 0.546190 -0.714498
O29   O     O_2   0.274960 0.462520 0.381280 -0.478905
O30   O     O_3   0.042980 0.462530 0.441480 -0.465211
O31   O     O_3   0.523340 0.590550 0.413420 -0.490073
O32   O     O_3   0.105863 0.349152 0.371365 -0.687018
O33   O     O_3   0.635780 0.584660 0.526290 -0.496747
O34   O     O_3   0.116060 0.626590 0.438450 -0.439603
P1    P     P_3+3 0.084800 0.558370 0.611580 1.152364
P2    P     P_3+3 0.628800 0.338360 0.458800 1.043531
P3    P     P_3+3 0.097541 0.279804 0.555377 0.965426
P4    P     P_3+3 0.104900 0.441570 0.388420 1.004862
P5    P     P_3+3 0.096602 0.719811 0.437653 0.996607
P6    P     P_3+3 0.654749 0.412196 0.651139 1.035722
P7    P     P_3+3 0.568478 0.674203 0.541671 1.000845
P8    P     P_3+3 0.530367 0.580611 0.348330 1.010457

loop_
_geom_bond_atom_site_label_1
_geom_bond_atom_site_label_2
_ccdc_geom_bond_type
C19   C24   A    
C3    H28   S    
O32   P4    S    
C63   H4    S    
C52   H45   S    
C1    H10   S    
C12   F3    S    
C65   O22   S    
C31   P1    S    
C18   C41   A    
C55   C60   A    
C28   H41   S    
C42   H30   S    
O31   P8    S    
C10   C66   A    
C24   C25   A    
C16   H11   S    
C20   H26   S    
Ba2   O5    S    
C17   C19   A    
C22   C24   A    
C32   C33   S    
C35   C38   A    
C40   H23   S    
C27   O11   D    
C36   C37   A    
H48   O27   S    
C52   C61   S    
Ba1   O33   S    
C34   H8    S    
C44   C50   D    
Ba1   P2    S    
C54   C55   A    
O5    P2    S    
O15   P6    S    
C22   C27   A    
C11   C38   A    
C17   C35   A    
C55   P7    S    
C9    C13   A    
C25   C42   A    
C29   C30   S    
Ba1   O30   S    
C6    C7    D    
C62   H53   S    
O19   P2    D    
C1    H6    S    
C65   H19   S    
C21   C22   A    
H43   O22   S    
C51   N3    A    
C4    H29   S    
C7    C8    S    
C54   H36   S    
Ba1   O5    S    
C32   F7    S    
C37   C43   A    
O18   P6    S    
C21   H25   S    
C57   C58   A    
C6    C14   D    
C63   H5    S    
C39   O25   S    
O4    P1    S    
C65   H20   S    
C66   N1    Am   
C15   C31   D    
O9    P8    S    
C16   H38   S    
C31   C32   D    
C47   H33   S    
H49   O28   S    
O34   P5    S    
C4    C16   S    
C44   C46   S    
C26   O14   D    
C49   C50   D    
Ba2   O4    S    
C17   C20   A    
C13   C39   A    
C41   O26   S    
C52   O17   S    
Ba2   O30   S    
C3    C5    S    
C18   C37   A    
C64   H17   S    
C64   O9    S    
C53   N5    A    
C2    O13   D    
C30   P6    S    
C40   F1    S    
C52   H34   S    
C58   C59   A    
C12   H1    S    
C11   H24   S    
C9    C36   A    
Ba1   O19   S    
C41   C42   A    
O3    P5    S    
C35   C36   A    
C58   H37   S    
C46   P3    S    
C27   N2    Am   
C33   N2    S    
C61   F2    S    
C62   H52   S    
C5    P8    S    
C45   O3    S    
C48   C49   S    
C23   F4    S    
C10   C11   A    
Ba1   O15   S    
O29   P4    D    
C56   H15   S    
Ba2   O31   S    
C28   O32   S    
C61   H50   S    
C1    C12   S    
C64   H18   S    
C46   C47   S    
O16   P6    D    
C53   N4    A    
C49   H35   S    
C4    H21   S    
O12   P2    S    
H46   O25   S    
N5    N6    A    
C29   C33   D    
O30   P4    S    
C50   P2    S    
N3    N4    A    
C1    H2    S    
Ba2   O34   S    
C4    O23   S    
C43   H31   S    
O33   P7    S    
C56   H16   S    
O2    P5    D    
C5    C14   S    
C57   C60   A    
C7    H22   S    
C63   H3    S    
O6    P7    D    
C62   O12   S    
C54   C59   A    
Ba2   O29   S    
C51   C59   S    
C23   O7    S    
C51   N6    A    
C45   F6    S    
C57   P5    S    
C16   H40   S    
C66   O10   D    
O8    P8    D    
C9    C10   A    
C60   H39   S    
C2    N1    Am   
C28   H42   S    
C14   O27   S    
C48   C53   S    
O17   P1    S    
Ba2   O6    S    
C45   H13   S    
C2    C13   A    
C15   H32   S    
C8    N1    S    
C3    C8    D    
C39   C43   A    
C62   C63   S    
C45   C56   S    
C23   H7    S    
C34   H9    S    
H44   O24   S    
Ba1   Ba2   S    
Ba1   P1    S    
O20   P3    S    
C64   C65   S    
C26   N2    Am   
O1    P1    D    
Ba1   O20   S    
C56   H14   S    
C29   O24   S    
C34   F5    S    
C23   C34   S    
C38   H27   S    
O21   P3    D    
C61   H51   S    
C18   C19   A    
C47   C48   D    
C44   O28   S    
C12   O18   S    
C25   C26   A    
O7    P7    S    
C15   C30   S    
H47   O26   S    
C20   C21   A    
C28   C40   S    
C40   H12   S    
Ba1   O1    S    
Ba2   O33   S    
O23   P3    S    
Ba1   O4    S    
C6    P4    S    
Ba2   P4    S    
