data_mof_unit_39983.cif
_audit_creation_date              2012-12-11T15:36:01-0500
_audit_creation_method            fapswitch 2.2
_symmetry_space_group_name_H-M    P1
_symmetry_Int_Tables_number       1
_space_group_crystal_system       triclinic
_cell_length_a                    7.060292
_cell_length_b                    12.166952
_cell_length_c                    35.57041
_cell_angle_alpha                 89.583441
_cell_angle_beta                  91.461327
_cell_angle_gamma                 89.927223
_cell_volume                      3054.49993386

loop_
_atom_site_label
_atom_site_type_symbol
_atom_type_description
_atom_site_fract_x
_atom_site_fract_y
_atom_site_fract_z
_atom_type_partial_charge
O1    O     O_R   0.379730 0.148600 0.662710 -0.548902
O2    O     O_R   0.620270 0.851400 0.337290 -0.550566
O3    O     O_R   0.120270 0.648600 0.337290 -0.548536
O4    O     O_R   0.879730 0.351400 0.662710 -0.549131
O5    O     O_R   0.722480 0.134490 0.741330 -0.524514
O6    O     O_R   0.277520 0.865510 0.258670 -0.508472
O7    O     O_R   0.777520 0.634490 0.258670 -0.516824
O8    O     O_R   0.222480 0.365510 0.741330 -0.531687
O9    O     O_R   0.892880 0.345890 0.741600 -0.501797
O10   O     O_R   0.107120 0.654110 0.258400 -0.519306
O11   O     O_R   0.607120 0.845890 0.258400 -0.509164
O12   O     O_R   0.392880 0.154110 0.741600 -0.499121
C1    C     C_R   0.554866 0.109466 0.753501 0.828425
C2    C     C_R   0.447433 0.891785 0.246840 0.828734
C3    C     C_R   0.945575 0.612222 0.245519 0.833855
C4    C     C_R   0.053177 0.386168 0.754886 0.828132
O13   O     O_R   0.709490 0.135560 0.662990 -0.551532
O14   O     O_R   0.290510 0.864440 0.337010 -0.550412
O15   O     O_R   0.790510 0.635560 0.337010 -0.550013
O16   O     O_R   0.209490 0.364440 0.662990 -0.548681
C5    C     C_R   0.540165 0.108530 0.651073 0.648493
C6    C     C_R   0.461573 0.891931 0.348797 0.646969
C7    C     C_R   0.959987 0.607756 0.348788 0.652859
C8    C     C_R   0.038257 0.392726 0.651351 0.654842
O17   O     O_3   0.552800 0.316610 0.702160 -0.370792
O18   O     O_3   0.447200 0.683390 0.297840 -0.374218
O19   O     O_3   0.947200 0.816610 0.297840 -0.372123
O20   O     O_3   0.052800 0.183390 0.702160 -0.373930
V1    V     V_3+5 0.827630 0.234380 0.702160 1.534362
V2    V     V_3+5 0.172370 0.765620 0.297840 1.535746
V3    V     V_3+5 0.672370 0.734380 0.297840 1.530852
V4    V     V_3+5 0.327630 0.265620 0.702160 1.532910
C9    C     C_R   0.968255 0.673005 0.911678 0.541765
C10   C     C_R   0.985707 0.327878 0.089739 0.550130
C11   C     C_R   0.507650 0.164966 0.085179 0.551712
C12   C     C_R   0.549593 0.848148 0.919235 0.543323
O21   O     O_2   0.886360 0.574145 0.916282 -0.528343
O22   O     O_2   0.991756 0.437111 0.083287 -0.540741
O23   O     O_2   0.541835 0.058014 0.078405 -0.544174
O24   O     O_2   0.601381 0.951721 0.927875 -0.540684
N1    N     N_R   0.025849 0.708671 0.876524 -0.531942
N2    N     N_R   0.970642 0.287203 0.125961 -0.526583
N3    N     N_R   0.482275 0.200536 0.121537 -0.528764
N4    N     N_R   0.542003 0.814182 0.882190 -0.534147
C13   C     C_R   0.069082 0.819151 0.872633 0.558873
C14   C     C_R   0.964914 0.175114 0.131466 0.565191
C15   C     C_R   0.447197 0.310120 0.127660 0.549734
C16   C     C_R   0.500757 0.705638 0.874545 0.605869
C17   C     C_R   0.037094 0.660147 0.806080 -0.053366
C18   C     C_R   0.056672 0.349394 0.192050 -0.034337
C19   C     C_R   0.571243 0.144166 0.188163 -0.017907
C20   C     C_R   0.654237 0.863116 0.817476 -0.049421
C21   C     C_R   0.050654 0.580827 0.777528 -0.271915
C22   C     C_R   0.053947 0.430792 0.220099 -0.291203
C23   C     C_R   0.561489 0.069214 0.218409 -0.267962
C24   C     C_R   0.648903 0.932689 0.785757 -0.273149
C25   C     C_R   0.022186 0.438263 0.824116 0.444034
C26   C     C_R   0.846303 0.541991 0.180313 0.434917
C27   C     C_R   0.374456 0.947027 0.179481 0.420578
C28   C     C_R   0.485112 0.069469 0.821179 0.421053
C29   C     C_R   0.057316 0.516044 0.852030 -0.184525
C30   C     C_R   0.842294 0.457744 0.153740 -0.137010
C31   C     C_R   0.383020 0.022516 0.149609 -0.160990
C32   C     C_R   0.488971 0.999070 0.852550 -0.143421
C33   C     C_R   0.041494 0.629794 0.844906 0.298917
C34   C     C_R   0.954547 0.363245 0.157654 0.244434
C35   C     C_R   0.481244 0.122099 0.153050 0.259626
C36   C     C_R   0.566071 0.892806 0.851113 0.301359
C37   C     C_R   0.019663 0.852645 0.939285 -0.020286
C38   C     C_R   0.988640 0.143039 0.064063 -0.037115
C39   C     C_R   0.465953 0.351266 0.060815 -0.039374
C40   C     C_R   0.485390 0.662475 0.941293 -0.037104
C41   C     C_R   0.983484 0.740582 0.943659 -0.043778
C42   C     C_R   0.998873 0.257069 0.058684 -0.037528
C43   C     C_R   0.501177 0.239503 0.054441 -0.032069
C44   C     C_R   0.509623 0.774570 0.948964 -0.036625
C45   C     C_R   0.955516 0.698293 0.979812 -0.119899
C46   C     C_R   0.018586 0.298784 0.022228 -0.118491
C47   C     C_R   0.527905 0.204490 0.017470 -0.116862
C48   C     C_R   0.499941 0.810040 0.986312 -0.118883
C49   C     C_R   0.053523 0.892854 0.903071 -0.061714
C50   C     C_R   0.964278 0.102303 0.100633 -0.076495
C51   C     C_R   0.431349 0.385524 0.097500 -0.093406
C52   C     C_R   0.481075 0.628008 0.903788 -0.043660
C53   C     C_R   0.040466 0.468141 0.785901 -0.196126
C54   C     C_R   0.950788 0.529026 0.214658 -0.219485
C55   C     C_R   0.458867 0.970900 0.214729 -0.205830
C56   C     C_R   0.555647 0.034573 0.786721 -0.190282
H1    H     H_    0.082072 0.483973 0.879974 0.193541
H2    H     H_    0.758278 0.469879 0.128304 0.187788
H3    H     H_    0.308509 0.004171 0.123583 0.186656
H4    H     H_    0.423928 0.026752 0.877715 0.186352
H5    H     H_    0.931607 0.611247 0.984252 0.166260
H6    H     H_    0.023747 0.386559 0.016986 0.164298
H7    H     H_    0.556628 0.118958 0.011521 0.168492
H8    H     H_    0.516614 0.896125 0.993215 0.167445
C57   C     C_R   0.974083 0.955183 0.038477 -0.005549
C58   C     C_R   0.040878 0.039490 0.965293 0.016152
C59   C     C_R   0.470330 0.470231 0.963102 0.001338
C60   C     C_R   0.433090 0.541974 0.037888 -0.016924
C61   C     C_R   0.026555 0.112896 0.996211 0.023364
C62   C     C_R   0.982071 0.882048 0.007270 0.021161
C63   C     C_R   0.455409 0.620900 0.008598 0.022826
C64   C     C_R   0.482902 0.392215 0.993167 0.021614
C65   C     C_R   0.997942 0.070006 0.032832 0.081512
C66   C     C_R   0.014715 0.924956 0.970783 0.103404
C67   C     C_R   0.469602 0.584377 0.971105 0.080495
C68   C     C_R   0.461344 0.428670 0.030513 0.080321
C69   C     C_R   0.936148 0.918166 0.075217 -0.065141
C70   C     C_R   0.079475 0.076761 0.928674 -0.085878
C71   C     C_R   0.457491 0.438503 0.925143 -0.082700
C72   C     C_R   0.379604 0.571743 0.074291 -0.054708
C73   C     C_R   0.932888 0.989839 0.105561 -0.020709
C74   C     C_R   0.077326 0.005941 0.898096 -0.089772
C75   C     C_R   0.458332 0.516199 0.896159 -0.036003
C76   C     C_R   0.375024 0.494077 0.103290 0.023794
O25   O     O_2   0.958656 0.132850 0.166500 -0.547096
O26   O     O_2   0.132452 0.859627 0.840037 -0.542453
O27   O     O_2   0.475448 0.671821 0.838755 -0.532622
O28   O     O_2   0.428174 0.347638 0.162853 -0.558533
C77   C     C_R   0.958605 0.766845 0.011025 -0.168685
C78   C     C_R   0.033020 0.228621 0.991704 -0.165827
C79   C     C_R   0.518468 0.279058 0.987405 -0.167642
C80   C     C_R   0.469680 0.735058 0.015516 -0.166439
H9    H     H_    0.134279 0.417308 0.246075 0.142271
H10   H     H_    0.057533 0.607842 0.748501 0.125024
H11   H     H_    0.714921 0.906017 0.760219 0.137540
H12   H     H_    0.632300 0.088739 0.244888 0.138372
H13   H     H_    0.143809 0.277427 0.197095 0.191630
H14   H     H_    0.021776 0.743476 0.796336 0.167530
H15   H     H_    0.723658 0.784779 0.815339 0.155339
H16   H     H_    0.651817 0.218807 0.192285 0.176301
H17   H     H_    0.899558 0.957044 0.132879 0.217377
H18   H     H_    0.098033 0.040409 0.870388 0.211512
H19   H     H_    0.444277 0.488064 0.867483 0.187810
H20   H     H_    0.324092 0.518834 0.130400 0.198280
H21   H     H_    0.905005 0.834007 0.081353 0.192401
H22   H     H_    0.117288 0.160332 0.923022 0.190215
H23   H     H_    0.441816 0.353916 0.917250 0.190434
H24   H     H_    0.334635 0.654123 0.080650 0.185925
H25   H     H_    0.939314 0.726352 0.037647 0.155092
H26   H     H_    0.044851 0.268501 0.964747 0.151240
H27   H     H_    0.545233 0.246217 0.959952 0.161399
H28   H     H_    0.468233 0.767939 0.043617 0.161794
C81   C     C_R   0.968212 0.528985 0.379720 -0.034587
C82   C     C_R   0.021883 0.472781 0.620808 -0.036931
C83   C     C_R   0.532032 0.030019 0.620374 -0.032404
C84   C     C_R   0.477581 0.971566 0.379149 -0.033284
C85   C     C_R   0.028480 0.347598 0.404225 -0.160273
C86   C     C_R   0.063753 0.655007 0.596023 -0.161376
C87   C     C_R   0.473569 0.848445 0.596838 -0.160463
C88   C     C_R   0.437671 0.154096 0.402967 -0.161728
C89   C     C_R   0.026483 0.421076 0.374080 -0.169460
C90   C     C_R   0.079377 0.581244 0.626002 -0.168178
C91   C     C_R   0.475138 0.921995 0.626583 -0.168718
C92   C     C_R   0.421515 0.080331 0.373385 -0.168402
C93   C     C_R   0.913213 0.562300 0.415294 -0.205206
C94   C     C_R   0.950370 0.439313 0.585762 -0.206343
C95   C     C_R   0.585999 0.063400 0.584539 -0.203242
C96   C     C_R   0.548168 0.937778 0.414454 -0.203596
C97   C     C_R   0.957758 0.497681 0.447288 0.099641
C98   C     C_R   0.978701 0.504362 0.553504 0.098333
C99   C     C_R   0.542610 0.998338 0.552853 0.100642
C100  C     C_R   0.521208 0.003361 0.446406 0.099579
C101  C     C_R   0.996734 0.385542 0.440795 0.098752
C102  C     C_R   0.016610 0.616877 0.559747 0.099205
C103  C     C_R   0.504737 0.886194 0.560039 0.098696
C104  C     C_R   0.484302 0.116000 0.439472 0.098933
C105  C     C_R   0.967824 0.539893 0.484898 0.015711
C106  C     C_R   0.975279 0.462171 0.515868 0.017037
C107  C     C_R   0.532771 0.039956 0.514894 0.013546
C108  C     C_R   0.525285 0.961770 0.484391 0.015571
C109  C     C_R   0.995106 0.346636 0.507657 0.045493
C110  C     C_R   0.986656 0.655649 0.492976 0.042813
C111  C     C_R   0.506147 0.846406 0.493410 0.043777
C112  C     C_R   0.514223 0.155589 0.506012 0.040968
C113  C     C_R   0.007870 0.312065 0.470518 -0.185405
C114  C     C_R   0.012747 0.690445 0.530010 -0.187200
C115  C     C_R   0.494124 0.812361 0.530784 -0.189139
C116  C     C_R   0.488698 0.189915 0.468742 -0.190526
H29   H     H_    0.035015 0.226078 0.464606 0.165428
H30   H     H_    0.039402 0.776691 0.535767 0.166090
H31   H     H_    0.467723 0.726422 0.537262 0.165899
H32   H     H_    0.462615 0.276186 0.462417 0.166629
H33   H     H_    0.876883 0.361721 0.584276 0.125746
H34   H     H_    0.837503 0.639037 0.417301 0.125980
H35   H     H_    0.620904 0.859852 0.416307 0.126432
H36   H     H_    0.660807 0.140276 0.582146 0.127098
H37   H     H_    0.128660 0.609388 0.653368 0.102219
H38   H     H_    0.062081 0.392969 0.346302 0.100165
H39   H     H_    0.373039 0.108732 0.345847 0.102075
H40   H     H_    0.440293 0.893821 0.654526 0.102587
H41   H     H_    0.061170 0.262024 0.399197 0.122816
H42   H     H_    0.096227 0.740840 0.600831 0.122657
H43   H     H_    0.441754 0.762848 0.602372 0.122290
H44   H     H_    0.406185 0.240072 0.397652 0.121992
S1    S     S_3+6 0.891534 0.324604 0.839987 0.078590
O29   O     O_2   0.998814 0.268816 0.871487 -0.331242
O30   O     O_2   0.712348 0.367652 0.855897 -0.310646
O31   O     O_3   0.836285 0.234225 0.806306 -0.451028
H45   H     H_    0.832031 0.162519 0.819585 0.366829
S2    S     S_3+6 0.755069 0.668141 0.163683 0.037957
O32   O     O_2   0.886551 0.708904 0.134371 -0.314353
O33   O     O_2   0.566047 0.651555 0.145038 -0.343676
O34   O     O_3   0.732594 0.762224 0.197029 -0.455592
H46   H     H_    0.702408 0.830544 0.182874 0.373936
S3    S     S_3+6 0.242289 0.827426 0.172490 0.041790
O35   O     O_2   0.050240 0.854290 0.186403 -0.323973
O36   O     O_2   0.232051 0.800326 0.131349 -0.335160
O37   O     O_3   0.329465 0.719567 0.197092 -0.464141
H47   H     H_    0.258350 0.655350 0.187289 0.372940
S4    S     S_3+6 0.371785 0.196393 0.824902 0.019916
O38   O     O_2   0.179081 0.177317 0.808222 -0.336153
O39   O     O_2   0.361004 0.228096 0.865450 -0.349949
O40   O     O_3   0.474948 0.297519 0.800429 -0.457068
H48   H     H_    0.411768 0.365825 0.808435 0.355616
C117  C     C_2   0.032379 0.258142 0.535928 0.339296
H49   H     H_    0.115575 0.273685 0.561196 0.030145
O41   O     O_2   0.974340 0.164785 0.530702 -0.526838
C118  C     C_2   0.010376 0.744344 0.464502 0.341693
H50   H     H_    0.083365 0.729289 0.438742 0.031053
O42   O     O_2   0.952754 0.837396 0.470080 -0.526535
C119  C     C_2   0.468707 0.757505 0.465782 0.344211
H51   H     H_    0.384532 0.772654 0.440544 0.028760
O43   O     O_2   0.527725 0.664284 0.471534 -0.525698
C120  C     C_2   0.490066 0.244759 0.533856 0.346906
H52   H     H_    0.416448 0.230247 0.559624 0.029500
O44   O     O_2   0.548006 0.337588 0.527715 -0.525417

loop_
_geom_bond_atom_site_label_1
_geom_bond_atom_site_label_2
_ccdc_geom_bond_type
C13   O26   S    
C26   C30   A    
C94   C98   A    
C103  C115  A    
C107  C108  A    
O1    C5    A    
C58   C70   A    
C23   H12   S    
S1    O31   S    
C96   C100  A    
O13   V1    S    
C105  C106  A    
C72   H24   S    
O3    C7    A    
C119  H51   S    
C10   N2    A    
C72   C76   A    
C40   C44   A    
C83   C95   A    
C118  O42   D    
C28   C56   A    
C76   H20   S    
C71   H23   S    
C64   C79   A    
O34   H46   S    
C7    C81   S    
C11   C43   A    
C18   C22   A    
C43   C47   A    
C17   C33   A    
C32   C36   A    
O20   V1    S    
O9    C4    A    
C2    C55   S    
O10   C3    A    
N2    C14   A    
O4    C8    A    
O11   C2    A    
C87   C103  A    
C24   C56   A    
C113  H29   S    
C86   C102  A    
C101  C113  A    
C69   H21   S    
C84   C96   A    
C24   H11   S    
C87   H43   S    
S1    O30   D    
C85   C89   A    
C86   H42   S    
C12   C44   A    
C85   H41   S    
C98   C102  A    
O37   H47   S    
O16   C8    A    
O31   H45   S    
S2    O34   S    
C98   C106  A    
C49   C74   A    
C38   C42   A    
S3    O37   S    
C105  C110  A    
S4    O40   S    
C37   C41   A    
C102  C114  A    
C71   C75   A    
C15   C51   A    
C48   H8    S    
C62   C77   A    
C83   C91   A    
C110  C114  A    
O5    V1    S    
C57   C62   A    
C20   C36   A    
C108  C111  A    
O9    V1    S    
C97   C105  A    
O17   V4    S    
O7    C3    A    
C59   C64   A    
O15   V3    S    
O18   V3    S    
O8    C4    A    
C73   H17   S    
C39   C68   A    
O12   V4    S    
O19   V2    S    
C61   C65   A    
C21   C53   A    
C48   C80   A    
S1    O29   D    
C59   C67   A    
C38   C50   A    
C63   C80   A    
C26   C54   A    
C12   N4    A    
C118  H50   S    
C88   C104  A    
C29   H1    S    
C16   O27   S    
C39   C51   A    
C89   H38   S    
O17   V1    S    
C22   H9    S    
C31   C35   A    
C60   C68   A    
O7    V3    S    
S2    O32   D    
C88   H44   S    
O19   V3    S    
S3    O35   D    
O8    V4    S    
C115  H31   S    
C88   C92   A    
C12   O24   S    
C85   C101  A    
C93   H34   S    
C27   C55   A    
C91   H40   S    
C22   C54   A    
C30   C34   A    
O15   C7    A    
N1    C33   S    
C99   C107  A    
C117  H49   S    
C104  C116  A    
C47   C79   A    
C60   C63   A    
O13   C5    A    
C16   C52   A    
C14   O25   S    
O2    V3    S    
C95   H36   S    
O3    V2    S    
C11   O23   S    
O40   H48   S    
C47   H7    S    
C18   H13   S    
C77   H25   S    
O6    C2    A    
C81   C93   A    
O10   V2    S    
C82   C90   A    
C40   C67   A    
O20   V4    S    
C99   C103  A    
C19   H16   S    
C59   C71   A    
C119  O43   D    
C74   H18   S    
C19   C35   A    
N1    C13   A    
S4    O38   D    
C107  C112  A    
C28   S4    S    
C40   C52   A    
S2    O33   D    
C10   C42   A    
C37   C49   A    
O14   V2    S    
C100  C104  A    
C9    C41   A    
C15   O28   S    
O6    V2    S    
C90   H37   S    
S4    O39   D    
C60   C72   A    
C52   C75   A    
C120  O44   D    
C3    C54   S    
C86   C90   A    
C4    C53   S    
C95   C99   A    
N4    C36   S    
C110  C118  S    
C78   H26   S    
C79   H27   S    
C94   H33   S    
C93   C97   A    
C64   C68   A    
C11   N3    A    
C61   C78   A    
S3    O36   D    
O16   V4    S    
C27   S3    S    
C81   C89   A    
C100  C108  A    
C70   C74   A    
C111  C119  S    
C25   S1    S    
C10   O22   S    
C20   H15   S    
O5    C1    A    
C51   C76   A    
C13   C49   A    
C44   C48   A    
C50   C73   A    
C6    C84   S    
C38   C65   A    
C14   C50   A    
O4    V1    S    
C111  C115  A    
C37   C66   A    
C18   C34   A    
C25   C29   A    
C82   C94   A    
C69   C73   A    
C114  H30   S    
C58   C61   A    
C112  C120  S    
C17   H14   S    
C27   C31   A    
C87   C91   A    
C58   C66   A    
C28   C32   A    
C9    N1    A    
O14   C6    A    
C57   C69   A    
C57   C65   A    
N4    C16   A    
C8    C82   S    
O2    C6    A    
C39   C43   A    
C75   H19   S    
C46   H6    S    
C17   C21   A    
C30   H2    S    
C1    C56   S    
C45   H5    S    
C25   C53   A    
C62   C66   A    
C19   C23   A    
O1    V4    S    
C29   C33   A    
C23   C55   A    
C117  O41   D    
C46   C78   A    
C9    O21   S    
C45   C77   A    
C21   H10   S    
C70   H22   S    
O11   V3    S    
C92   H39   S    
C116  H32   S    
C112  C116  A    
O12   C1    A    
C26   S2    S    
C41   C45   A    
N3    C35   S    
C120  H52   S    
C42   C46   A    
C31   H3    S    
N2    C34   S    
C32   H4    S    
C109  C117  S    
C80   H28   S    
C5    C83   S    
C63   C67   A    
C84   C92   A    
C96   H35   S    
C109  C113  A    
N3    C15   A    
C106  C109  A    
C97   C101  A    
C20   C24   A    
O18   V2    S    
