data_mof_unit_34180.cif
_audit_creation_date              2012-12-11T17:37:42-0500
_audit_creation_method            fapswitch 2.2
_symmetry_space_group_name_H-M    P1
_symmetry_Int_Tables_number       1
_space_group_crystal_system       triclinic
_cell_length_a                    12.967085
_cell_length_b                    13.044373
_cell_length_c                    15.311087
_cell_angle_alpha                 116.003241
_cell_angle_beta                  64.32874
_cell_angle_gamma                 96.577512
_cell_volume                      2088.80520995

loop_
_atom_site_label
_atom_site_type_symbol
_atom_type_description
_atom_site_fract_x
_atom_site_fract_y
_atom_site_fract_z
_atom_type_partial_charge
C1    C     C_R   0.019337 0.834049 0.033430 -0.117277
C2    C     C_R   0.705941 0.436768 0.305382 0.055003
C3    C     C_R   0.637627 0.560333 0.020941 0.147689
C4    C     C_R   0.992336 0.823647 0.321404 0.060435
C5    C     C_R   0.323500 0.576507 0.008675 -0.112108
C6    C     C_R   0.901753 0.204151 0.791131 -0.031451
C7    C     C_R   0.216463 0.449125 0.685616 -0.110971
C8    C     C_R   0.092692 0.251745 0.051602 -0.201569
C9    C     C_R   0.994835 0.166930 0.955071 0.559701
C10   C     C_R   0.319431 0.539829 0.780569 -0.153571
C11   C     C_R   0.245422 0.477704 0.105447 -0.173646
C12   C     C_R   0.702550 0.405363 0.208567 -0.153844
C13   C     C_R   0.983599 0.305932 0.698993 -0.137309
C14   C     C_R   0.338109 0.537180 0.072408 0.164763
C15   C     C_R   0.925617 0.212403 0.697860 0.040668
C16   C     C_R   0.324708 0.475471 0.678867 0.057527
C17   C     C_R   0.077238 0.144919 0.982186 -0.111394
C18   C     C_R   0.361818 0.831337 0.277579 -0.088232
C19   C     C_R   0.243951 0.859719 0.342421 -0.133884
C20   C     C_R   0.187228 0.949054 0.347698 0.129522
C21   C     C_R   0.249306 0.008648 0.286497 -0.183905
C22   C     C_R   0.366637 0.977862 0.219485 -0.115774
C23   C     C_R   0.739010 0.577738 0.947431 -0.120820
C24   C     C_R   0.423000 0.889613 0.215426 -0.091532
C25   C     C_R   0.044063 0.087020 0.517125 -0.238516
C26   C     C_R   0.933364 0.120080 0.600482 0.071231
C27   C     C_R   0.839966 0.057291 0.592803 0.023519
C28   C     C_R   0.861541 0.957208 0.499536 -0.234586
C29   C     C_R   0.973641 0.923472 0.417465 0.057973
C30   C     C_R   0.065827 0.987882 0.425883 0.008665
C31   C     C_R   0.667878 0.021645 0.730426 -0.198083
C32   C     C_R   0.561072 0.056934 0.819609 -0.103352
C33   C     C_R   0.506892 0.165145 0.860813 -0.202803
C34   C     C_R   0.964398 0.717019 0.315504 -0.145285
C35   C     C_R   0.558461 0.237816 0.811974 -0.137674
C36   C     C_R   0.664641 0.203302 0.721313 0.532131
C37   C     C_R   0.721798 0.094274 0.681078 -0.060626
C38   C     C_R   0.921201 0.270236 0.369070 -0.120327
C39   C     C_R   0.815486 0.296538 0.375919 -0.137896
C40   C     C_R   0.739130 0.387831 0.467566 0.107401
C41   C     C_R   0.770424 0.452378 0.552470 -0.114690
C42   C     C_R   0.876143 0.425931 0.545352 -0.078044
C43   C     C_R   0.951263 0.334571 0.453887 -0.133427
C44   C     C_R   0.528133 0.427697 0.568041 -0.234799
C45   C     C_R   0.662158 0.481566 0.047662 -0.110760
C46   C     C_R   0.421620 0.461577 0.582106 0.057785
C47   C     C_R   0.409187 0.484149 0.505120 0.016958
C48   C     C_R   0.504428 0.463745 0.410946 -0.237494
C49   C     C_R   0.611895 0.431760 0.396613 0.067692
C50   C     C_R   0.625935 0.415393 0.476162 0.015849
C51   C     C_R   0.254857 0.488735 0.448863 -0.192870
C52   C     C_R   0.156745 0.542064 0.464341 -0.122985
C53   C     C_R   0.105198 0.645865 0.554337 -0.104695
C54   C     C_R   0.152403 0.697230 0.628468 -0.109056
C55   C     C_R   0.251331 0.644941 0.612663 -0.124623
C56   C     C_R   0.051037 0.817137 0.219359 -0.115784
C57   C     C_R   0.302664 0.539334 0.523350 0.122946
C58   C     C_2   0.433343 0.556323 0.100119 -0.219466
C59   C     C_2   0.524493 0.600282 0.048278 -0.217493
C60   C     C_2   0.878986 0.963261 0.038622 -0.197641
C61   C     C_2   0.870620 0.054670 0.127856 -0.166423
C62   C     C_R   0.800631 0.495308 0.306003 -0.122706
C63   C     C_R   0.922887 0.749106 0.933988 -0.153410
C64   C     C_R   0.942527 0.854359 0.000362 0.123254
H1    H     H_    0.059555 0.898159 0.078688 0.086233
H2    H     H_    0.846250 0.146094 0.819087 0.154500
H3    H     H_    0.191059 0.403149 0.620892 0.102382
H4    H     H_    0.150527 0.268005 0.089066 0.126160
H5    H     H_    0.388281 0.578561 0.802232 0.100067
H6    H     H_    0.223923 0.448031 0.166577 0.092450
H7    H     H_    0.008402 0.341563 0.641633 0.100869
H8    H     H_    0.514237 0.867098 0.164916 0.108608
H9    H     H_    0.405940 0.765058 0.276599 0.126134
H10   H     H_    0.197664 0.814712 0.391018 0.114262
H11   H     H_    0.645132 0.349341 0.179007 0.099071
H12   H     H_    0.206867 0.079021 0.291221 0.104196
H13   H     H_    0.414216 0.023563 0.172012 0.106699
H14   H     H_    0.116057 0.134621 0.526195 0.139091
H15   H     H_    0.791508 0.906393 0.490098 0.139123
H16   H     H_    0.709977 0.938498 0.701295 0.132187
H17   H     H_    0.520814 0.000708 0.857578 0.115208
H18   H     H_    0.424503 0.192635 0.930443 0.132826
H19   H     H_    0.515005 0.321184 0.844056 0.144812
H20   H     H_    0.032851 0.313768 0.448616 0.107225
H21   H     H_    0.745978 0.624279 0.902242 0.086440
H22   H     H_    0.979968 0.199981 0.298174 0.103543
H23   H     H_    0.792441 0.246073 0.310393 0.126948
H24   H     H_    0.713267 0.523588 0.623911 0.102425
H25   H     H_    0.899614 0.476039 0.610936 0.112004
H26   H     H_    0.534816 0.411996 0.629488 0.155383
H27   H     H_    0.496102 0.483743 0.352388 0.129521
H28   H     H_    0.293430 0.407944 0.379045 0.108464
H29   H     H_    0.120617 0.502868 0.406540 0.113640
H30   H     H_    0.028958 0.686698 0.566367 0.102569
H31   H     H_    0.112708 0.777926 0.697910 0.108668
H32   H     H_    0.925892 0.691556 0.380358 0.096634
H33   H     H_    0.287850 0.686594 0.669990 0.111367
H34   H     H_    0.436280 0.513988 0.146179 0.125469
H35   H     H_    0.520262 0.647174 0.006359 0.128238
H36   H     H_    0.829790 0.967039 0.997906 0.163270
H37   H     H_    0.913627 0.054451 0.174705 0.127227
H38   H     H_    0.604617 0.442765 0.097778 0.087267
H39   H     H_    0.093874 0.883885 0.197622 0.093226
H40   H     H_    0.832810 0.525058 0.366543 0.100506
H41   H     H_    0.876618 0.735467 0.886590 0.090441
H42   H     H_    0.369253 0.639048 0.981419 0.085037
N1    N     N_R   0.037320 0.720000 0.995830 -0.045530
N2    N     N_R   0.946240 0.290870 0.848020 -0.044690
N3    N     N_R   0.146160 0.501170 0.788610 -0.043372
N4    N     N_R   0.025750 0.332680 0.063570 -0.064585
N5    N     N_R   0.962680 0.280000 0.004170 -0.076754
N6    N     N_R   0.209230 0.553860 0.848010 -0.041640
N7    N     N_R   0.175100 0.482030 0.063570 -0.037768
N8    N     N_R   0.996810 0.351820 0.788610 -0.049170
N9    N     N_R   0.790770 0.446140 0.151990 -0.042527
N10   N     N_R   0.824900 0.517970 0.936430 -0.041885
N11   N     N_R   0.003190 0.648180 0.211390 -0.037094
N12   N     N_R   0.774330 0.457010 0.995830 -0.049748
N13   N     N_R   0.053760 0.709130 0.151980 -0.039811
N14   N     N_R   0.853840 0.498830 0.211390 -0.040061
N15   N     N_R   0.974250 0.667320 0.936430 -0.039711
N16   N     N_R   0.225670 0.542990 0.004170 -0.045182
Ni1   Ni    Ni4+2 0.130310 0.630310 0.000000 0.208881
Ni2   Ni    Ni4+2 0.869690 0.369690 0.000000 0.233380
Ni3   Ni    Ni4+2 0.985660 0.509480 0.863750 0.215239
Ni4   Ni    Ni4+2 0.014340 0.490520 0.136250 0.206627
O1    O     O_3   0.952649 0.086010 0.887688 -0.812170
H43   H     H_    0.996490 0.011498 0.857103 0.303945
O2    O     O_3   0.708144 0.277885 0.674821 -0.779428
H44   H     H_    0.770885 0.236583 0.602318 0.324751

loop_
_geom_bond_atom_site_label_1
_geom_bond_atom_site_label_2
_ccdc_geom_bond_type
C45   N12   A    
C9    N5    A    
C59   H35   S    
C41   C42   A    
C3    C23   A    
C19   C20   A    
C58   H34   S    
C39   H23   S    
C2    C12   A    
C11   H6    S    
C31   H16   S    
C20   C30   S    
C53   C54   A    
C32   H17   S    
C21   H12   S    
C26   C27   A    
C9    O1    S    
C38   H22   S    
C18   C24   A    
C28   C29   A    
C34   H32   S    
N11   N13   A    
C38   C39   A    
C11   C14   A    
N14   Ni4   S    
C44   C50   A    
C18   C19   A    
N2    N8    A    
C49   C50   A    
C28   H15   S    
N4    N5    A    
C6    C15   A    
C54   C55   A    
N7    N16   A    
C35   C36   A    
C48   H27   S    
C1    H1    S    
C10   N6    A    
C51   C57   A    
N1    Ni1   S    
C63   H41   S    
N11   Ni4   S    
C62   N14   A    
C13   N8    A    
C12   N9    A    
C34   N11   A    
C23   N10   A    
C21   C22   A    
C4    C56   A    
C43   H20   S    
N2    Ni2   S    
C63   N15   A    
C44   C46   A    
C62   H40   S    
C5    H42   S    
C14   C58   S    
C4    C34   A    
C51   C52   A    
C47   C48   A    
C56   H39   S    
N6    Ni1   S    
N3    N6    A    
C16   C46   S    
C39   C40   A    
N8    Ni3   S    
C35   H19   S    
C15   C26   S    
N7    Ni4   S    
C13   H7    S    
C58   C59   D    
C25   H14   S    
C3    C45   A    
C7    N3    A    
C60   C61   D    
C61   H37   S    
N15   Ni3   S    
C29   C30   A    
C2    C49   S    
C8    N4    A    
C51   H28   S    
C47   C57   S    
C31   C32   A    
C55   H33   S    
C54   H31   S    
C52   H29   S    
N12   Ni2   S    
C5    C14   A    
C1    N1    A    
N3    Ni3   S    
C48   C49   A    
N4    Ni4   S    
C8    H4    S    
C18   H9    S    
N10   Ni3   S    
C13   C15   A    
C56   N13   A    
C22   C24   A    
C42   C43   A    
N1    N15   A    
O1    H43   S    
C1    C64   A    
C44   H26   S    
C52   C53   A    
C24   H8    S    
O2    H44   S    
C33   H18   S    
C9    C17   A    
C25   C30   A    
C41   H24   S    
C46   C47   A    
C40   C41   A    
N9    Ni2   S    
C53   H30   S    
C19   H10   S    
C7    C16   A    
C4    C29   S    
C22   H13   S    
C60   H36   S    
N13   Ni1   S    
C8    C17   A    
C60   C64   S    
C42   H25   S    
C32   C33   A    
C55   C57   A    
C25   C26   A    
C38   C43   A    
C10   C16   A    
C36   O2    S    
C27   C37   S    
C40   C50   S    
C5    N16   A    
C33   C35   A    
N10   N12   A    
C11   N7    A    
C45   H38   S    
C7    H3    S    
C63   C64   A    
C10   H5    S    
C31   C37   A    
C6    H2    S    
C20   C21   A    
C36   C37   A    
N9    N14   A    
C23   H21   S    
C12   H11   S    
C27   C28   A    
C6    N2    A    
N16   Ni1   S    
N5    Ni2   S    
C2    C62   A    
C3    C59   S    
