data_mof_unit_55332.cif
_audit_creation_date              2012-10-26T19:46:26-0400
_audit_creation_method            fapswitch 2.2
_symmetry_space_group_name_H-M    P1
_symmetry_Int_Tables_number       1
_space_group_crystal_system       triclinic
_cell_length_a                    10.833657
_cell_length_b                    9.513409
_cell_length_c                    15.105764
_cell_angle_alpha                 90.006433
_cell_angle_beta                  90.16429
_cell_angle_gamma                 89.996531
_cell_volume                      1556.86930488

loop_
_atom_site_label
_atom_site_type_symbol
_atom_type_description
_atom_site_fract_x
_atom_site_fract_y
_atom_site_fract_z
_atom_type_partial_charge
C1    C     C_R   0.262041 0.500002 0.499940 0.549568
C2    C     C_R   0.936143 0.627741 0.500079 -0.140714
C3    C     C_R   0.936158 0.372256 0.500090 -0.139928
C4    C     C_R   0.063842 0.627744 0.499983 -0.140334
C5    C     C_R   0.555997 0.611292 0.094938 0.268992
C6    C     C_R   0.562101 0.391780 0.905319 0.255599
C7    C     C_R   0.438358 0.607848 0.905176 0.254368
C8    C     C_R   0.444396 0.388233 0.094694 0.270440
C9    C     C_R   0.552168 0.612690 0.187208 -0.128790
C10   C     C_R   0.562807 0.394301 0.812452 -0.149854
C11   C     C_R   0.437635 0.605547 0.812312 -0.151087
C12   C     C_R   0.737959 0.499997 0.500080 0.549761
C13   C     C_R   0.447919 0.387050 0.186997 -0.127173
C14   C     C_R   0.499968 0.499930 0.233364 -0.082699
C15   C     C_R   0.500205 0.499973 0.766417 -0.070965
C16   C     C_R   0.500254 0.499724 0.048318 0.111323
C17   C     C_R   0.500232 0.499765 0.951096 0.099329
C18   C     C_R   0.871793 0.499997 0.500105 0.019733
C19   C     C_R   0.128207 0.500003 0.499948 0.019887
C20   C     C_3   0.736787 0.696227 0.042547 -0.135738
C21   C     C_3   0.608359 0.155697 0.922326 -0.087589
C22   C     C_3   0.392305 0.843907 0.922345 -0.088133
C23   C     C_R   0.499926 0.499987 0.329892 0.554362
C24   C     C_3   0.263698 0.302808 0.041687 -0.136717
C25   C     C_R   0.500102 0.500001 0.670021 0.555948
C26   C     C_R   0.423122 0.074436 0.445012 0.015035
C27   C     C_R   0.576855 0.925572 0.555005 0.007585
C28   C     C_R   0.576842 0.074446 0.555017 0.009066
C29   C     C_R   0.423110 0.925563 0.445024 0.013589
C30   C     C_R   0.063856 0.372259 0.499982 -0.140678
Cu1   Cu    Cu3+1 0.500000 0.640660 0.500000 0.932985
Cu2   Cu    Cu3+1 0.500000 0.359340 0.500000 0.936263
H1    H     H_    0.361561 0.130588 0.400969 0.105676
H2    H     H_    0.888106 0.727612 0.500121 0.127325
H3    H     H_    0.888133 0.272384 0.500146 0.127793
H4    H     H_    0.111868 0.727616 0.499939 0.126763
H5    H     H_    0.754688 0.597763 0.004830 0.135475
H6    H     H_    0.782233 0.691544 0.108667 0.119241
H7    H     H_    0.779322 0.784125 0.005256 0.135053
H8    H     H_    0.631492 0.080750 0.976139 0.167420
H9    H     H_    0.669829 0.131558 0.865630 0.091233
H10   H     H_    0.509898 0.137461 0.904060 0.125953
H11   H     H_    0.369226 0.918674 0.976184 0.166790
H12   H     H_    0.638416 0.869430 0.599048 0.106205
H13   H     H_    0.330919 0.868376 0.865413 0.097399
H14   H     H_    0.490804 0.862056 0.904554 0.124523
H15   H     H_    0.245483 0.401351 0.004067 0.136297
H16   H     H_    0.218355 0.307095 0.107667 0.116160
H17   H     H_    0.221324 0.214904 0.004120 0.135960
H18   H     H_    0.638370 0.130604 0.599089 0.101215
H19   H     H_    0.361520 0.869411 0.401003 0.112071
H20   H     H_    0.592867 0.700356 0.222597 0.149678
H21   H     H_    0.614308 0.316147 0.775832 0.120503
H22   H     H_    0.386098 0.683771 0.775585 0.128773
H23   H     H_    0.407142 0.299444 0.222229 0.141275
H24   H     H_    0.111894 0.272388 0.499932 0.126741
N1    N     N_R   0.500000 0.852070 0.500000 -0.225829
N2    N     N_R   0.500000 0.147930 0.500000 -0.223464
O1    O     O_R   0.319640 0.618740 0.499990 -0.509929
O2    O     O_3   0.629773 0.293590 0.953471 -0.555547
O3    O     O_3   0.370675 0.705925 0.953144 -0.556542
O4    O     O_3   0.391278 0.276872 0.049871 -0.563212
O5    O     O_R   0.680360 0.381260 0.500010 -0.508058
O6    O     O_R   0.680360 0.618740 0.500010 -0.509084
O7    O     O_R   0.319640 0.381260 0.499990 -0.510031
O8    O     O_R   0.499990 0.618780 0.371460 -0.500361
O9    O     O_R   0.500010 0.381220 0.628540 -0.501723
O10   O     O_R   0.500010 0.618780 0.628540 -0.503523
O11   O     O_R   0.499990 0.381220 0.371460 -0.498344
O12   O     O_3   0.609288 0.722557 0.050363 -0.563309

loop_
_geom_bond_atom_site_label_1
_geom_bond_atom_site_label_2
_ccdc_geom_bond_type
C14   C23   S    
C6    C10   A    
C3    C30   A    
C2    C4    A    
C9    C14   A    
C4    H4    S    
C5    C9    A    
C8    C13   A    
C28   N2    A    
C6    C17   A    
C2    C18   A    
C20   H6    S    
C23   O11   A    
C26   H1    S    
C1    O7    A    
C22   H11   S    
C25   O9    A    
C3    H3    S    
Cu2   N2    S    
Cu1   N1    S    
C24   H15   S    
Cu1   O8    S    
C8    C16   A    
C9    H20   S    
C13   C14   A    
C22   O3    S    
C7    C11   A    
C20   H5    S    
C19   C30   A    
C20   O12   S    
C21   O2    S    
C5    O12   S    
C25   O10   A    
C11   C15   A    
C3    C18   A    
Cu2   O9    S    
C21   H9    S    
C27   H12   S    
C23   O8    A    
C11   H22   S    
C22   H14   S    
C29   N1    A    
C10   C15   A    
C1    O1    A    
C27   N1    A    
Cu1   O10   S    
C12   O6    A    
C15   C25   S    
C1    C19   S    
Cu1   O1    S    
C21   H10   S    
C24   H16   S    
C16   C17   S    
C6    O2    S    
C27   C28   A    
C22   H13   S    
C26   C29   A    
C29   H19   S    
C12   C18   S    
C24   H17   S    
C20   H7    S    
C10   H21   S    
C28   H18   S    
C7    O3    S    
C5    C16   A    
C24   O4    S    
C7    C17   A    
C2    H2    S    
C12   O5    A    
C4    C19   A    
C30   H24   S    
Cu1   O6    S    
C26   N2    A    
Cu2   O11   S    
Cu1   Cu2   S    
Cu2   O5    S    
C8    O4    S    
Cu2   O7    S    
C13   H23   S    
C21   H8    S    
