data_mof_unit_15644.cif
_audit_creation_date              2012-12-10T17:02:42-0500
_audit_creation_method            fapswitch 2.2
_symmetry_space_group_name_H-M    P1
_symmetry_Int_Tables_number       1
_space_group_crystal_system       triclinic
_cell_length_a                    18.891463
_cell_length_b                    19.057236
_cell_length_c                    18.611916
_cell_angle_alpha                 109.00478
_cell_angle_beta                  109.271117
_cell_angle_gamma                 109.970597
_cell_volume                      5168.478429

loop_
_atom_site_label
_atom_site_type_symbol
_atom_type_description
_atom_site_fract_x
_atom_site_fract_y
_atom_site_fract_z
_atom_type_partial_charge
C1    C     C_R   0.381669 0.381896 0.500741 0.808108
C2    C     C_3   0.809050 0.498615 0.806858 0.054564
C3    C     C_3   0.842427 0.531778 0.751810 -0.376938
C4    C     C_3   0.782709 0.560978 0.852219 -0.479431
C5    C     C_R   0.390584 0.385702 0.660324 -0.226388
C6    C     C_R   0.390484 0.396130 0.738266 0.310690
C7    C     C_R   0.316523 0.340247 0.733857 -0.144242
C8    C     C_R   0.245944 0.272542 0.653271 -0.222668
C9    C     C_R   0.247466 0.257706 0.574025 0.050004
C10   C     C_R   0.317073 0.320069 0.577448 0.037524
C11   C     C_R   0.181826 0.182107 0.492546 -0.168099
C12   C     C_R   0.619685 0.501354 0.619814 0.814873
C13   C     C_R   0.178262 0.174152 0.411345 -0.008231
C14   C     C_R   0.240675 0.245830 0.416324 0.022043
C15   C     C_R   0.311823 0.315389 0.498507 -0.153813
C16   C     C_R   0.117031 0.098921 0.325198 0.150189
C17   C     C_R   0.124470 0.096815 0.250977 0.286516
C18   C     C_R   0.178674 0.172625 0.258136 -0.183626
C19   C     C_R   0.231759 0.246743 0.338245 -0.220554
C20   C     C_R   0.224632 0.480947 0.384131 -0.231357
C21   C     C_R   0.161259 0.492599 0.401583 0.295472
C22   C     C_R   0.108376 0.512883 0.348476 0.228294
C23   C     C_R   0.618940 0.618151 0.499921 0.779251
C24   C     C_R   0.117203 0.517256 0.277920 -0.262927
C25   C     C_R   0.179276 0.502950 0.259065 0.036124
C26   C     C_R   0.239089 0.493277 0.318203 0.015760
C27   C     C_R   0.183192 0.498446 0.183031 -0.166601
C28   C     C_R   0.250767 0.491383 0.170010 0.063426
C29   C     C_R   0.319614 0.498106 0.237734 0.073498
C30   C     C_R   0.312334 0.496636 0.310763 -0.165487
C31   C     C_R   0.251788 0.478278 0.090932 -0.154703
C32   C     C_R   0.323314 0.481198 0.083012 -0.134189
C33   C     C_R   0.395110 0.497398 0.153253 -0.145103
C34   C     C_R   0.381229 0.499774 0.379963 0.764536
C35   C     C_R   0.393835 0.505988 0.230026 -0.152970
C36   C     C_R   0.595820 0.753184 0.477162 -0.146343
C37   C     C_R   0.589624 0.825052 0.481513 -0.139935
C38   C     C_R   0.660979 0.897520 0.501441 -0.142209
C39   C     C_R   0.737042 0.896487 0.511952 -0.149831
C40   C     C_R   0.743000 0.822098 0.502476 0.066461
C41   C     C_R   0.674316 0.752554 0.492742 0.068695
C42   C     C_R   0.815183 0.815375 0.501839 -0.178324
C43   C     C_R   0.822397 0.742986 0.499077 0.015057
C44   C     C_R   0.761346 0.681363 0.505634 0.034308
C45   C     C_3   0.655620 0.407339 0.672347 0.010518
C46   C     C_R   0.685664 0.684569 0.498982 -0.160842
C47   C     C_R   0.887611 0.728873 0.486921 -0.308194
C48   C     C_R   0.897964 0.660795 0.490807 0.285482
C49   C     C_R   0.844520 0.606598 0.509306 0.286602
C50   C     C_R   0.777118 0.617163 0.517082 -0.293617
C51   C     C_R   0.995799 0.382256 0.875655 0.799968
C52   C     C_R   0.877934 0.499004 0.876450 0.794119
C53   C     C_R   0.996084 0.618092 0.116203 0.791056
C54   C     C_R   0.116428 0.500062 0.116797 0.774026
C55   C     C_R   0.995726 0.877847 0.381692 0.849565
C56   C     C_3   0.726413 0.406735 0.745256 0.093384
C57   C     C_R   0.117772 0.114395 0.494918 0.826359
C58   C     C_R   0.998560 0.116919 0.618799 0.769280
C59   C     C_R   0.881626 0.882499 0.501367 0.791099
C60   C     C_R   0.992210 0.384270 0.708132 0.134800
C61   C     C_R   0.992135 0.380735 0.630790 0.254668
C62   C     C_R   0.015418 0.326593 0.586054 0.227630
C63   C     C_R   0.029332 0.270408 0.612734 -0.287023
C64   C     C_R   0.011797 0.260124 0.677998 -0.003750
C65   C     C_R   0.001334 0.322406 0.733429 -0.024565
C66   C     C_R   0.003909 0.187497 0.687055 -0.126953
C67   C     C_3   0.769997 0.528919 0.679789 -0.475614
C68   C     C_R   0.002291 0.183349 0.760856 0.065622
C69   C     C_R   0.010567 0.253667 0.826674 0.031676
C70   C     C_R   0.001337 0.318681 0.809993 -0.141294
C71   C     C_R   0.994205 0.111286 0.771764 -0.226903
C72   C     C_R   0.005079 0.113576 0.850464 -0.149284
C73   C     C_R   0.025164 0.187760 0.920298 0.320110
C74   C     C_R   0.028543 0.257372 0.908542 -0.220754
C75   C     C_R   0.154392 0.776296 0.259094 -0.283876
C76   C     C_R   0.228513 0.858038 0.313466 0.282309
C77   C     C_R   0.222544 0.926707 0.363078 0.293657
C78   C     C_3   0.710166 0.562128 0.784355 0.171319
C79   C     C_R   0.143670 0.911430 0.360236 -0.317634
C80   C     C_R   0.068754 0.828273 0.306936 0.020313
C81   C     C_R   0.071989 0.761816 0.249142 0.051382
C82   C     C_R   0.992584 0.810305 0.313167 -0.128112
C83   C     C_R   0.918175 0.726223 0.260706 -0.040800
C84   C     C_R   0.917206 0.662696 0.193502 -0.063933
C85   C     C_R   0.994172 0.682112 0.185638 -0.164016
C86   C     C_R   0.844027 0.701988 0.273121 0.132997
C87   C     C_R   0.787265 0.614296 0.239868 0.212142
C88   C     C_R   0.786307 0.553994 0.173122 -0.214475
C89   C     C_3   0.687519 0.501842 0.688882 0.040865
C90   C     C_R   0.838554 0.581008 0.138282 0.258414
Cu1   Cu    Cu3+1 0.500360 0.438220 0.438540 0.927817
Cu2   Cu    Cu3+1 0.499640 0.561780 0.561460 0.915015
Cu3   Cu    Cu3+1 0.935530 0.438290 0.997340 0.942084
Cu4   Cu    Cu3+1 0.059130 0.561800 0.997250 0.901996
Cu5   Cu    Cu3+1 0.937870 0.000030 0.437890 0.907834
Cu6   Cu    Cu3+1 0.062130 0.000000 0.562130 0.931716
H1    H     H_    0.197494 0.465006 0.034103 0.147732
H2    H     H_    0.929557 0.768250 0.471228 0.174426
H3    H     H_    0.736475 0.487662 0.141503 0.162126
O1    O     O_R   0.410140 0.357660 0.448100 -0.573908
O2    O     O_R   0.049980 0.462000 0.907580 -0.578924
O3    O     O_R   0.854480 0.447890 0.906670 -0.579792
O4    O     O_R   0.958860 0.552200 0.906600 -0.606080
O5    O     O_R   0.944670 0.538090 0.087010 -0.555202
O6    O     O_R   0.049050 0.642400 0.086940 -0.589592
O7    O     O_R   0.035800 0.447890 0.088000 -0.587192
O8    O     O_R   0.140170 0.552200 0.087920 -0.592869
O9    O     O_R   0.948030 0.909890 0.357850 -0.562662
O10   O     O_R   0.052970 0.909860 0.462770 -0.598700
O11   O     O_R   0.037700 0.090200 0.447550 -0.558694
O12   O     O_R   0.409530 0.462000 0.551910 -0.602946
O13   O     O_R   0.142640 0.090170 0.552470 -0.593402
O14   O     O_R   0.947030 0.090160 0.537260 -0.589631
O15   O     O_R   0.051970 0.090130 0.642170 -0.591908
O16   O     O_R   0.857360 0.909860 0.447560 -0.584364
O17   O     O_R   0.962300 0.909830 0.552480 -0.588664
O18   O     O_R   0.590960 0.447830 0.538760 -0.601023
O19   O     O_R   0.590350 0.552170 0.642570 -0.597088
O20   O     O_R   0.590470 0.538000 0.448090 -0.590553
O21   O     O_R   0.589860 0.642340 0.551900 -0.584679
O22   O     O_R   0.409650 0.447830 0.357430 -0.593146
O23   O     O_R   0.409040 0.552170 0.461240 -0.587901
O24   O     O_R   0.945600 0.357690 0.907660 -0.584706
H4    H     H_    0.646293 0.369187 0.607140 0.193412
H5    H     H_    0.840376 0.626312 0.899198 0.195692
H6    H     H_    0.793197 0.590951 0.680608 0.174829
H7    H     H_    0.898207 0.598619 0.794683 0.181859
H8    H     H_    0.181967 0.174671 0.201887 0.162326
H9    H     H_    0.449195 0.429334 0.665985 0.158519
N1    N     N_2   0.465656 0.461523 0.820754 -0.438243
H10   H     H_    0.521324 0.488986 0.817769 0.233442
C91   C     C_3   0.453845 0.524702 0.876353 -0.711306
H11   H     H_    0.516044 0.572142 0.938589 0.223444
H12   H     H_    0.404667 0.493997 0.892778 0.227131
H13   H     H_    0.433485 0.559133 0.843325 0.226243
H14   H     H_    0.314148 0.347277 0.792982 0.142058
H15   H     H_    0.190427 0.232496 0.654593 0.162610
N2    N     N_2   0.044263 0.028307 0.310221 -0.410633
H16   H     H_    0.043265 0.970910 0.286761 0.230819
C92   C     C_3   0.961405 0.020850 0.262026 -0.590941
H17   H     H_    0.910313 0.975276 0.266716 0.232461
H18   H     H_    0.941244 0.995900 0.191744 0.196786
H19   H     H_    0.965069 0.084092 0.289409 0.220511
N3    N     N_2   0.078834 0.018289 0.169758 -0.432668
H20   H     H_    0.051884 0.961774 0.170485 0.252214
C93   C     C_3   0.027301 0.016451 0.090997 -0.710608
H21   H     H_    0.991066 0.950310 0.034592 0.222634
H22   H     H_    0.069223 0.059223 0.075792 0.249176
H23   H     H_    0.979862 0.035790 0.098260 0.220397
N4    N     N_2   0.571839 0.369972 0.668389 -0.461408
H24   H     H_    0.572811 0.393559 0.727221 0.237386
C94   C     C_3   0.518297 0.277491 0.615803 -0.694436
H25   H     H_    0.455118 0.256812 0.614478 0.235317
H26   H     H_    0.550919 0.246674 0.643969 0.224976
H27   H     H_    0.505180 0.256119 0.547381 0.242902
H28   H     H_    0.268865 0.304142 0.338088 0.168250
H29   H     H_    0.451501 0.502123 0.147651 0.131297
H30   H     H_    0.263163 0.462356 0.422335 0.166482
N5    N     N_2   0.150985 0.486459 0.472744 -0.424063
H31   H     H_    0.131229 0.526080 0.501843 0.271276
C95   C     C_3   0.210973 0.474482 0.533123 -0.693492
H32   H     H_    0.193735 0.472486 0.584178 0.222648
H33   H     H_    0.278263 0.528617 0.565994 0.234511
H34   H     H_    0.206804 0.412325 0.498101 0.236354
N6    N     N_2   0.045561 0.528710 0.365368 -0.445372
H35   H     H_    0.034240 0.571567 0.347882 0.253621
C96   C     C_3   0.965755 0.452016 0.332737 -0.685293
H36   H     H_    0.922462 0.470365 0.352138 0.243019
H37   H     H_    0.978802 0.411627 0.360773 0.249280
H38   H     H_    0.932216 0.414321 0.260123 0.223264
H39   H     H_    0.075117 0.532759 0.238741 0.158818
H40   H     H_    0.323537 0.472190 0.022581 0.129844
H41   H     H_    0.451873 0.519394 0.282784 0.147784
N7    N     N_2   0.856929 0.539506 0.517268 -0.417876
H42   H     H_    0.856870 0.536351 0.571467 0.231188
C97   C     C_3   0.800191 0.456803 0.438358 -0.679188
H43   H     H_    0.819441 0.410007 0.447200 0.227569
H44   H     H_    0.805002 0.461485 0.382025 0.241082
H45   H     H_    0.731882 0.433037 0.423969 0.218675
H46   H     H_    0.699531 0.392706 0.787021 0.112835
H47   H     H_    0.538140 0.698276 0.460679 0.145336
H48   H     H_    0.529633 0.824923 0.470693 0.135460
H49   H     H_    0.657021 0.954332 0.507484 0.134566
H50   H     H_    0.790837 0.954853 0.528194 0.144733
N8    N     N_2   0.961943 0.646496 0.475336 -0.407737
H51   H     H_    0.969789 0.659629 0.428003 0.242370
C98   C     C_3   0.043958 0.686705 0.553853 -0.669018
H52   H     H_    0.087079 0.665529 0.537165 0.233716
H53   H     H_    0.034259 0.668218 0.602027 0.231539
H54   H     H_    0.075847 0.757729 0.583807 0.216827
H55   H     H_    0.736884 0.573457 0.530617 0.161447
N9    N     N_2   0.042003 0.192684 0.002641 -0.437124
H56   H     H_    0.080056 0.254516 0.054963 0.254174
C99   C     C_3   0.965565 0.143292 0.004221 -0.717875
H57   H     H_    0.984137 0.152491 0.071123 0.227790
H58   H     H_    0.934832 0.073852 0.957830 0.233200
H59   H     H_    0.918195 0.165314 0.986727 0.233893
N10   N     N_2   0.981570 0.450015 0.757254 -0.427804
H60   H     H_    0.933483 0.433770 0.773026 0.260920
C100  C     C_3   0.046110 0.538947 0.793118 -0.584901
H61   H     H_    0.075354 0.574752 0.865080 0.251693
H62   H     H_    0.015293 0.570710 0.764841 0.188302
H63   H     H_    0.099878 0.543680 0.779108 0.210071
N11   N     N_2   0.964630 0.429258 0.596004 -0.423945
H64   H     H_    0.919789 0.442009 0.608413 0.254022
C101  C     C_3   0.028706 0.497342 0.595313 -0.617959
H65   H     H_    0.038930 0.560204 0.638401 0.199227
H66   H     H_    0.004775 0.486986 0.527652 0.264710
H67   H     H_    0.092209 0.499963 0.619083 0.220088
N12   N     N_2   0.748182 0.340173 0.713489 -0.434422
H68   H     H_    0.731249 0.293916 0.731583 0.259396
C102  C     C_3   0.744327 0.308148 0.629361 -0.738416
H69   H     H_    0.785887 0.278606 0.630464 0.233829
H70   H     H_    0.768070 0.359892 0.614016 0.225941
H71   H     H_    0.676697 0.257973 0.576986 0.228585
N13   N     N_2   0.022162 0.326152 0.511942 -0.399876
H72   H     H_    0.068885 0.312656 0.505441 0.254416
C103  C     C_3   0.940368 0.274204 0.430720 -0.650873
H73   H     H_    0.951297 0.279192 0.377088 0.216030
H74   H     H_    0.894324 0.296818 0.435577 0.241508
H75   H     H_    0.911498 0.205756 0.414250 0.215822
H76   H     H_    0.049858 0.231485 0.578003 0.166654
H77   H     H_    0.979851 0.052582 0.720225 0.160460
H78   H     H_    0.000528 0.058405 0.857900 0.143329
H79   H     H_    0.046000 0.314310 0.964679 0.142013
H80   H     H_    0.163526 0.724423 0.226982 0.166966
N14   N     N_2   0.309060 0.870580 0.318354 -0.426187
H81   H     H_    0.315478 0.816907 0.306414 0.241028
C104  C     C_3   0.332579 0.909535 0.268759 -0.655021
H82   H     H_    0.284544 0.866609 0.197772 0.214981
H83   H     H_    0.397548 0.920168 0.279136 0.217414
H84   H     H_    0.335684 0.972648 0.290503 0.252586
N15   N     N_2   0.296495 0.010756 0.418705 -0.421542
H85   H     H_    0.281686 0.059152 0.426641 0.244654
C105  C     C_3   0.355095 0.024087 0.501496 -0.662112
H86   H     H_    0.412869 0.089330 0.538590 0.219535
H87   H     H_    0.377487 0.976697 0.491052 0.248348
H88   H     H_    0.322410 0.018299 0.540886 0.219770
H89   H     H_    0.142793 0.965694 0.401847 0.156059
H90   H     H_    0.754596 0.481807 0.614735 0.161197
N16   N     N_2   0.815533 0.760858 0.299620 -0.399382
H91   H     H_    0.780247 0.747854 0.330087 0.253002
C106  C     C_3   0.770901 0.774507 0.230071 -0.604083
H92   H     H_    0.754829 0.824543 0.256372 0.219186
H93   H     H_    0.709842 0.714240 0.176573 0.196970
H94   H     H_    0.812546 0.796502 0.202623 0.226624
N17   N     N_2   0.725384 0.585978 0.266577 -0.425624
H95   H     H_    0.742868 0.625402 0.329652 0.259908
C107  C     C_3   0.635924 0.552490 0.204629 -0.702859
H96   H     H_    0.593859 0.524154 0.228968 0.227465
H97   H     H_    0.615717 0.501387 0.139602 0.230826
H98   H     H_    0.626533 0.604859 0.197896 0.222662
N18   N     N_2   0.805732 0.534979 0.046209 -0.374291
H99   H     H_    0.825863 0.574459 0.021944 0.231551
C108  C     C_3   0.718158 0.461919 0.988997 -0.677980
H100  H     H_    0.704925 0.433271 0.920710 0.211961
H101  H     H_    0.670138 0.482256 0.991870 0.218750
H102  H     H_    0.710708 0.410794 0.007004 0.221042
H103  H     H_    0.865980 0.492949 0.720234 0.183910
N19   N     N_2   0.728942 0.650137 0.807257 -0.410338
H104  H     H_    0.677622 0.660955 0.798718 0.262430
C109  C     C_3   0.798342 0.709843 0.804109 -0.657465
H105  H     H_    0.818594 0.776372 0.850087 0.212720
H106  H     H_    0.774895 0.702058 0.737397 0.221373
H107  H     H_    0.855998 0.702167 0.824683 0.226170
H108  H     H_    0.651514 0.532956 0.789687 0.076929
H109  H     H_    0.756376 0.538836 0.890134 0.133070

loop_
_geom_bond_atom_site_label_1
_geom_bond_atom_site_label_2
_ccdc_geom_bond_type
C8    C9    A    
C99   H58   S    
C24   C25   A    
C108  H101  S    
Cu4   O6    S    
Cu3   Cu4   S    
Cu1   O20   S    
C51   O24   A    
C73   C74   A    
C93   H23   S    
C66   C68   A    
Cu5   Cu6   S    
C12   O18   A    
C92   H19   S    
C79   H89   S    
C75   C76   A    
C73   N9    S    
C109  H107  S    
C95   H32   S    
C103  H73   S    
C27   C54   S    
C7    C8    A    
C52   O4    A    
C94   H26   S    
C4    H109  S    
C56   N12   S    
Cu6   O13   S    
C52   O3    A    
C107  H96   S    
N6    H35   S    
C47   H2    S    
C4    H5    S    
C17   N3    S    
C5    C6    A    
C78   H108  S    
C22   C24   A    
C36   C37   A    
N13   C103  S    
C45   N4    S    
C74   H79   S    
C10   C15   A    
C86   N16   S    
C61   N11   S    
C23   O20   A    
N18   H99   S    
C101  H66   S    
N8    C98   S    
C99   H59   S    
C37   H48   S    
C53   O5    A    
C65   C70   A    
C72   H78   S    
C67   H90   S    
C67   C89   S    
C102  H69   S    
C1    O1    A    
C18   C19   A    
C24   H39   S    
N14   H81   S    
Cu2   O19   S    
N7    H42   S    
C98   H54   S    
C18   H8    S    
C68   C69   A    
C22   N6    S    
C58   C66   S    
C97   H45   S    
C47   C48   A    
C45   C56   S    
Cu5   O16   S    
C16   C17   A    
C106  H93   S    
C58   O14   A    
C105  H86   S    
N5    C95   S    
C97   H43   S    
N10   H60   S    
C1    C15   S    
C51   C70   S    
Cu1   O1    S    
C29   C30   A    
C45   C89   S    
C9    C10   A    
C21   N5    S    
N4    H24   S    
C39   H50   S    
Cu1   Cu2   S    
C6    N1    S    
C72   C73   A    
C104  H84   S    
C106  H94   S    
C40   C42   A    
C99   H57   S    
C32   H40   S    
C108  H102  S    
C34   O23   A    
C23   C46   S    
C20   H30   S    
C13   C14   A    
C55   O10   A    
C76   N14   S    
C19   H28   S    
C105  H87   S    
C63   H76   S    
Cu6   O15   S    
C36   C41   A    
N6    C96   S    
C84   C90   A    
Cu3   O5    S    
C5    C10   A    
C49   N7    S    
C95   H33   S    
C104  H82   S    
C33   H29   S    
C96   H38   S    
C93   H22   S    
C76   C77   A    
N17   C107  S    
C78   C89   S    
C60   N10   S    
C3    C67   S    
Cu4   O8    S    
C107  H97   S    
C71   H77   S    
C30   C34   S    
C39   C40   A    
C35   H41   S    
C91   H13   S    
C12   C89   S    
C92   H17   S    
Cu4   O2    S    
C96   H37   S    
N2    H16   S    
C67   H6    S    
Cu6   O17   S    
C23   O21   A    
N18   C108  S    
C54   O7    A    
C101  H65   S    
C100  H61   S    
C109  H106  S    
C44   C46   A    
C25   C26   A    
C59   O17   A    
C45   H4    S    
C82   C83   A    
C38   H49   S    
C63   C64   A    
C32   C33   A    
C60   C61   A    
N16   C106  S    
N9    C99   S    
Cu3   O3    S    
N1    C91   S    
C43   C44   A    
C4    C78   S    
C37   C38   A    
Cu2   O23   S    
Cu3   O7    S    
N16   H91   S    
N15   C105  S    
C60   C65   A    
C103  H74   S    
C83   C84   A    
C94   H27   S    
C41   C46   A    
N13   H72   S    
C20   C21   A    
C62   C63   A    
C77   N15   S    
C17   C18   A    
C77   C79   A    
C69   C74   A    
C56   H46   S    
C11   C57   S    
C84   C85   A    
C55   C82   S    
C57   O11   A    
C50   H55   S    
C9    C11   A    
C6    C7    A    
C2    C52   S    
C91   H12   S    
C12   O19   A    
C54   O8    A    
N3    C93   S    
C40   C41   A    
N14   C104  S    
C90   N18   S    
C88   C90   A    
Cu1   O18   S    
N12   H68   S    
C34   O22   A    
N12   C102  S    
C28   C31   A    
C105  H88   S    
N4    C94   S    
C51   O2    A    
C42   C43   A    
N7    C97   S    
C108  H100  S    
C96   H36   S    
C95   H34   S    
C94   H25   S    
C103  H75   S    
C93   H21   S    
N15   H85   S    
C44   C50   A    
N19   H104  S    
C28   C29   A    
C107  H98   S    
C86   C87   A    
C102  H71   S    
C62   N13   S    
C14   C19   A    
N19   C109  S    
C31   C32   A    
C16   N2    S    
Cu3   O24   S    
N11   C101  S    
C80   C81   A    
Cu5   O11   S    
C42   C59   S    
Cu4   O4    S    
N10   C100  S    
N17   H95   S    
C3    H103  S    
Cu2   O12   S    
C87   N17   S    
C109  H105  S    
N2    C92   S    
C75   C81   A    
C25   C27   A    
Cu6   O10   S    
C29   C35   A    
C75   H80   S    
C100  H63   S    
C55   O9    A    
N3    H20   S    
N9    H56   S    
C2    C3    S    
N5    H31   S    
C7    H14   S    
C104  H83   S    
C2    C56   S    
C1    O12   A    
C11   C13   A    
C101  H67   S    
N8    H51   S    
C38   C39   A    
C20   C26   A    
Cu5   O14   S    
C68   C71   A    
C48   C49   A    
C2    C4    S    
C64   C65   A    
C5    H9    S    
C33   C35   A    
C80   C82   A    
C91   H11   S    
C3    H7    S    
C31   H1    S    
Cu2   O21   S    
C61   C62   A    
C69   C70   A    
C98   H53   S    
C88   H3    S    
Cu5   O9    S    
C102  H70   S    
C79   C80   A    
C57   O13   A    
C53   O6    A    
C48   N8    S    
C83   C86   A    
C71   C72   A    
N11   H64   S    
C98   H52   S    
C87   C88   A    
C59   O16   A    
C49   C50   A    
Cu1   O22   S    
C13   C16   A    
N1    H10   S    
C27   C28   A    
C58   O15   A    
C78   N19   S    
C14   C15   A    
C8    H15   S    
C53   C85   S    
C36   H47   S    
C92   H18   S    
C21   C22   A    
C43   C47   A    
C100  H62   S    
C81   C85   A    
C106  H92   S    
C64   C66   A    
C97   H44   S    
C26   C30   A    
