data_mof_unit_31588.cif
_audit_creation_date              2012-10-26T18:47:36-0400
_audit_creation_method            fapswitch 2.2
_symmetry_space_group_name_H-M    P1
_symmetry_Int_Tables_number       1
_space_group_crystal_system       triclinic
_cell_length_a                    10.828857
_cell_length_b                    12.998196
_cell_length_c                    11.651732
_cell_angle_alpha                 100.365982
_cell_angle_beta                  94.153956
_cell_angle_gamma                 90.626404
_cell_volume                      1608.56030707

loop_
_atom_site_label
_atom_site_type_symbol
_atom_type_description
_atom_site_fract_x
_atom_site_fract_y
_atom_site_fract_z
_atom_type_partial_charge
C1    C     C_R   0.500139 0.298825 0.477898 0.590348
C2    C     C_R   0.463488 0.986663 0.649865 -0.098088
C3    C     C_R   0.531873 0.122033 0.357495 0.241497
C4    C     C_R   0.468126 0.877967 0.642505 0.241498
C5    C     C_R   0.480344 0.139190 0.560410 -0.134160
C6    C     C_R   0.519655 0.860810 0.439590 -0.134159
C7    C     C_R   0.485879 0.031628 0.552872 0.017181
C8    C     C_R   0.514121 0.968372 0.447128 0.017181
C9    C     C_R   0.386164 0.397495 0.019259 0.188011
C10   C     C_R   0.613836 0.602505 0.980741 0.188011
C11   C     C_R   0.397409 0.408310 0.142805 0.071322
C12   C     C_R   0.499861 0.701175 0.522102 0.590349
C13   C     C_R   0.602591 0.591690 0.857195 0.071321
C14   C     C_R   0.547926 0.544490 0.158462 0.057061
C15   C     C_R   0.452074 0.455510 0.841538 0.057061
C16   C     C_R   0.262143 0.502077 0.499919 0.576181
C17   C     C_R   0.737857 0.497923 0.500081 0.576181
C18   C     C_R   0.540978 0.537287 0.035150 -0.003520
C19   C     C_R   0.459022 0.462713 0.964850 -0.003520
C20   C     C_R   0.216909 0.716873 0.240786 0.251660
C21   C     C_R   0.783090 0.283129 0.759216 0.251661
C22   C     C_R   0.166776 0.676224 0.332842 0.311742
C23   C     C_R   0.871724 0.496537 0.500949 0.028859
C24   C     C_R   0.833223 0.323777 0.667160 0.311743
C25   C     C_R   0.106899 0.576652 0.309409 0.041472
C26   C     C_R   0.893101 0.423349 0.690592 0.041471
C27   C     C_R   0.096375 0.518219 0.193402 0.201143
C28   C     C_R   0.903626 0.481782 0.806599 0.201142
C29   C     C_R   0.144377 0.560690 0.103660 -0.075769
C30   C     C_R   0.855623 0.439312 0.896342 -0.075768
C31   C     C_R   0.204778 0.658077 0.126657 -0.163364
C32   C     C_R   0.795221 0.341926 0.873345 -0.163364
C33   C     C_R   0.926620 0.531355 0.409436 -0.138283
C34   C     C_R   0.128276 0.503462 0.499051 0.028859
C35   C     C_R   0.073381 0.468644 0.590564 -0.138284
C36   C     C_R   0.945606 0.464519 0.592752 0.003635
C37   C     C_R   0.054394 0.535480 0.407248 0.003635
C38   C     C_R   0.496478 0.815012 0.536005 0.046907
C39   C     C_R   0.503521 0.184988 0.463995 0.046906
C40   C     C_R   0.536512 0.013337 0.350135 -0.098089
Cu1   Cu    Cu3+1 0.509250 0.507730 0.615930 0.995159
Cu2   Cu    Cu3+1 0.490750 0.492270 0.384070 0.995159
H1    H     H_    0.242296 0.687718 0.054970 0.131858
H2    H     H_    0.130087 0.442478 0.659921 0.147108
H3    H     H_    0.541999 0.812573 0.358009 0.148661
H4    H     H_    0.458000 0.187426 0.641990 0.148662
H5    H     H_    0.558314 0.964020 0.269097 0.110378
H6    H     H_    0.441686 0.035980 0.730903 0.110379
H7    H     H_    0.260406 0.286866 0.003112 0.341643
H8    H     H_    0.739594 0.713134 0.996887 0.341643
H9    H     H_    0.306978 0.829536 0.190764 0.326950
H10   H     H_    0.693021 0.170467 0.809240 0.326950
H11   H     H_    0.218588 0.799023 0.450780 0.372958
H12   H     H_    0.757702 0.312287 0.945033 0.131858
H13   H     H_    0.781410 0.200977 0.549223 0.372958
H14   H     H_    0.025206 0.392191 0.234975 0.339523
H15   H     H_    0.974797 0.607809 0.765025 0.339523
H16   H     H_    0.424953 0.887528 0.803615 0.321421
H17   H     H_    0.575045 0.112472 0.196385 0.321421
H18   H     H_    0.389494 0.399037 0.786054 0.177700
H19   H     H_    0.610506 0.600963 0.213946 0.177700
H20   H     H_    0.657949 0.641096 0.814388 0.145545
H21   H     H_    0.342050 0.358904 0.185612 0.145545
H22   H     H_    0.136663 0.516698 0.015094 0.197547
H23   H     H_    0.863337 0.483306 0.984907 0.197547
H24   H     H_    0.869913 0.557522 0.340079 0.147108
N1    N     N_R   0.523180 0.519350 0.790130 -0.273330
N2    N     N_R   0.476820 0.480650 0.209870 -0.273329
O1    O     O_R   0.506570 0.354460 0.582000 -0.526867
O2    O     O_3   0.695117 0.675254 0.048739 -0.723477
O3    O     O_3   0.276166 0.813837 0.264004 -0.716884
O4    O     O_3   0.723833 0.186166 0.735999 -0.716884
O5    O     O_3   0.174227 0.731314 0.446509 -0.686320
O6    O     O_3   0.825773 0.268686 0.553493 -0.686319
O7    O     O_3   0.042133 0.419369 0.163587 -0.711050
O8    O     O_3   0.957869 0.580632 0.836414 -0.711050
O9    O     O_3   0.443022 0.832242 0.736857 -0.670179
O10   O     O_3   0.556979 0.167758 0.263143 -0.670179
O11   O     O_R   0.493430 0.645540 0.418000 -0.526868
O12   O     O_R   0.490940 0.341410 0.386200 -0.440925
O13   O     O_R   0.509060 0.658590 0.613800 -0.440925
O14   O     O_R   0.327460 0.506540 0.597900 -0.505395
O15   O     O_R   0.672540 0.493460 0.402100 -0.505395
O16   O     O_R   0.311830 0.493480 0.402100 -0.515863
O17   O     O_R   0.688170 0.506520 0.597900 -0.515863
O18   O     O_3   0.304883 0.324746 0.951261 -0.723476

loop_
_geom_bond_atom_site_label_1
_geom_bond_atom_site_label_2
_ccdc_geom_bond_type
C40   H5    S    
Cu2   O12   S    
C6    H3    S    
C27   C29   A    
C34   C37   A    
Cu1   Cu2   S    
C14   C18   A    
C35   C36   A    
C7    C8    A    
Cu1   N1    S    
C15   C19   A    
C17   C23   S    
C31   H1    S    
C17   O17   A    
H15   O8    S    
C24   C26   A    
C18   C19   A    
C11   H21   S    
C12   O11   A    
C16   O16   A    
C34   C35   A    
C15   H18   S    
H16   O9    S    
C16   C34   S    
H13   O6    S    
C9    C19   A    
C13   H20   S    
C2    C7    A    
C23   C33   A    
C22   C25   A    
C6    C38   A    
C20   O3    S    
C25   C37   S    
C29   H22   S    
Cu1   O13   S    
Cu2   O11   S    
H14   O7    S    
Cu2   N2    S    
H9    O3    S    
C27   O7    S    
H17   O10   S    
C32   H12   S    
C33   H24   S    
C21   C32   A    
C21   O4    S    
Cu2   O16   S    
C5    C7    A    
C6    C8    A    
C2    H6    S    
C14   H19   S    
C1    O1    A    
C17   O15   A    
C2    C4    A    
H10   O4    S    
C9    O18   S    
C15   N1    A    
C16   O14   A    
C35   H2    S    
C9    C11   A    
C10   O2    S    
C26   C36   S    
C4    C38   A    
C3    C40   A    
C5    C39   A    
C28   O8    S    
C11   N2    A    
Cu1   O1    S    
C13   N1    A    
H7    O18   S    
H11   O5    S    
Cu2   O15   S    
C20   C22   A    
C10   C13   A    
C25   C27   A    
Cu1   O17   S    
C5    H4    S    
C26   C28   A    
C28   C30   A    
H8    O2    S    
C4    O9    S    
C29   C31   A    
C30   C32   A    
C24   O6    S    
C10   C18   A    
Cu1   O14   S    
C12   O13   A    
C12   C38   S    
C33   C37   A    
C30   H23   S    
C1    C39   S    
C3    C39   A    
C23   C36   A    
C21   C24   A    
C1    O12   A    
C14   N2    A    
C8    C40   A    
C22   O5    S    
C3    O10   S    
C20   C31   A    
