data_mof_unit_40750.cif
_audit_creation_date              2012-12-10T17:43:16-0500
_audit_creation_method            fapswitch 2.2
_symmetry_space_group_name_H-M    P1
_symmetry_Int_Tables_number       1
_space_group_crystal_system       triclinic
_cell_length_a                    15.048623
_cell_length_b                    13.710943
_cell_length_c                    10.632977
_cell_angle_alpha                 89.941545
_cell_angle_beta                  88.753165
_cell_angle_gamma                 90.158477
_cell_volume                      2193.38165838

loop_
_atom_site_label
_atom_site_type_symbol
_atom_type_description
_atom_site_fract_x
_atom_site_fract_y
_atom_site_fract_z
_atom_type_partial_charge
C1    C     C_R   0.328904 0.499960 0.504289 0.802180
C2    C     C_R   0.963102 0.579359 0.294781 -0.220938
C3    C     C_R   0.451293 0.793190 0.589348 0.016576
C4    C     C_R   0.548189 0.206817 0.410038 0.019539
C5    C     C_R   0.548862 0.793571 0.410722 0.010293
C6    C     C_R   0.452568 0.206326 0.590565 -0.002304
C7    C     C_R   0.549801 0.896615 0.408295 -0.004883
C8    C     C_R   0.451183 0.103318 0.592452 -0.002057
C9    C     C_R   0.450563 0.896197 0.591859 -0.005813
C10   C     C_R   0.549517 0.103788 0.408008 -0.005491
C11   C     C_R   0.500170 0.948177 0.500045 0.086913
C12   C     C_R   0.671126 0.500227 0.497993 0.810975
C13   C     C_R   0.500220 0.051775 0.500087 0.087705
C14   C     C_R   0.599033 0.949135 0.316794 -0.203907
C15   C     C_R   0.402245 0.050820 0.684218 -0.205265
C16   C     C_R   0.401721 0.948265 0.683733 -0.202428
C17   C     C_R   0.598802 0.051732 0.316553 -0.201108
C18   C     C_R   0.499272 0.500064 0.259050 0.772877
C19   C     C_R   0.498797 0.499890 0.740845 0.768053
C20   C     C_3   0.507182 0.592024 0.040239 -0.132207
C21   C     C_3   0.487992 0.407898 0.959233 -0.137130
C22   C     C_3   0.574861 0.536920 0.955287 -0.173163
C23   C     C_R   0.953078 0.507643 0.504135 0.030752
C24   C     C_3   0.420338 0.462783 0.044428 -0.167738
C25   C     C_3   0.429648 0.554502 0.960139 -0.175008
C26   C     C_3   0.565298 0.445235 0.039110 -0.185067
C27   C     C_3   0.497509 0.499588 0.877522 0.032926
C28   C     C_3   0.497907 0.500212 0.122148 0.030826
C29   C     C_R   0.816638 0.533553 0.386917 0.096660
C30   C     C_R   0.183966 0.466302 0.618164 0.024168
C31   C     C_R   0.767631 0.501570 0.494581 -0.083187
C32   C     C_R   0.232413 0.500744 0.511145 -0.081210
C33   C     C_R   0.810255 0.472110 0.603159 -0.289589
C34   C     C_R   0.046736 0.507158 0.509386 0.043487
C35   C     C_R   0.189276 0.539801 0.408170 -0.276752
C36   C     C_R   0.902387 0.473631 0.608199 0.115231
C37   C     C_R   0.097225 0.542315 0.405774 0.113864
C38   C     C_3   0.769944 0.550049 0.262538 -0.402230
C39   C     C_3   0.792407 0.469752 0.165828 -0.366353
C40   C     C_3   0.768686 0.367712 0.214657 -0.804464
C41   C     C_3   0.232421 0.426463 0.731687 -0.405765
C42   C     C_3   0.225412 0.314763 0.738091 -0.319506
C43   C     C_3   0.263815 0.275684 0.859660 -0.888365
C44   C     C_R   0.910434 0.540751 0.394269 0.089376
C45   C     C_R   0.089605 0.471035 0.617577 0.092206
C46   C     C_R   0.944337 0.442082 0.716687 -0.208230
C47   C     C_R   0.055175 0.579621 0.300437 -0.211000
C48   C     C_R   0.036525 0.440933 0.721707 -0.231847
Cu1   Cu    Cu3+1 0.500000 0.597420 0.500000 0.933037
Cu2   Cu    Cu3+1 0.500000 0.402580 0.500000 0.933579
H1    H     H_    0.374098 0.599026 0.924336 0.120565
H2    H     H_    0.093697 0.608400 0.221366 0.139881
H3    H     H_    0.064773 0.415457 0.808179 0.154143
H4    H     H_    0.934429 0.609824 0.211297 0.143105
H5    H     H_    0.413032 0.752272 0.658897 0.125259
H6    H     H_    0.585810 0.247700 0.339870 0.121305
H7    H     H_    0.587153 0.752930 0.341253 0.120733
H8    H     H_    0.416116 0.246880 0.661703 0.133108
H9    H     H_    0.637654 0.910885 0.245323 0.134085
H10   H     H_    0.364333 0.089006 0.756329 0.140494
H11   H     H_    0.363270 0.909701 0.755412 0.135675
H12   H     H_    0.618996 0.397365 0.071828 0.142412
H13   H     H_    0.637247 0.090349 0.244904 0.136551
H14   H     H_    0.814998 0.345543 0.289322 0.261612
H15   H     H_    0.699755 0.366004 0.253830 0.246045
H16   H     H_    0.774294 0.314297 0.136497 0.221816
H17   H     H_    0.755122 0.484476 0.078960 0.197043
H18   H     H_    0.863919 0.471050 0.138538 0.219557
H19   H     H_    0.696631 0.552151 0.274186 0.185649
H20   H     H_    0.787794 0.622780 0.223555 0.153699
H21   H     H_    0.335574 0.293326 0.863677 0.249295
H22   H     H_    0.228696 0.308018 0.942528 0.256951
H23   H     H_    0.515132 0.667538 0.075971 0.132185
H24   H     H_    0.255466 0.195295 0.863556 0.239187
H25   H     H_    0.155225 0.290369 0.733084 0.221190
H26   H     H_    0.261816 0.282484 0.656341 0.223136
H27   H     H_    0.303788 0.446890 0.729749 0.186295
H28   H     H_    0.205472 0.460566 0.819137 0.183661
H29   H     H_    0.481799 0.332149 0.923837 0.130348
H30   H     H_    0.638152 0.567054 0.915984 0.121949
H31   H     H_    0.357145 0.432383 0.083700 0.129436
H32   H     H_    0.771043 0.447605 0.684166 0.139042
H33   H     H_    0.228114 0.566759 0.328099 0.139686
H34   H     H_    0.905674 0.417291 0.797871 0.139587
N1    N     N_R   0.500000 0.743810 0.500000 -0.181669
N2    N     N_R   0.500000 0.256190 0.500000 -0.181366
O1    O     O_R   0.370260 0.582280 0.500030 -0.579607
O2    O     O_R   0.629740 0.417720 0.499970 -0.576422
O3    O     O_R   0.629740 0.582280 0.499970 -0.583467
O4    O     O_R   0.370260 0.417720 0.500030 -0.577334
O5    O     O_R   0.499980 0.582260 0.316850 -0.596091
O6    O     O_R   0.500020 0.417740 0.683150 -0.593350
O7    O     O_R   0.500020 0.582260 0.683150 -0.586301
O8    O     O_R   0.499980 0.417740 0.316850 -0.587298

loop_
_geom_bond_atom_site_label_1
_geom_bond_atom_site_label_2
_ccdc_geom_bond_type
C1    O1    A    
C21   C26   S    
C38   H20   S    
C8    C13   A    
C3    N1    A    
C34   C37   A    
C39   H18   S    
Cu1   O1    S    
C30   C45   A    
C7    C11   A    
C14   H9    S    
C42   H25   S    
C1    O4    A    
C18   O5    A    
C35   C37   A    
C9    C16   A    
C41   H27   S    
C38   C39   S    
C4    N2    A    
C20   C25   S    
C10   C17   A    
C15   C16   A    
C33   C36   A    
C41   C42   S    
C6    H8    S    
C19   O6    A    
C3    H5    S    
Cu2   O4    S    
C7    C14   A    
C42   C43   S    
C2    C44   A    
C29   C38   S    
C31   C33   A    
C30   C41   S    
C36   C46   A    
C37   C47   A    
C19   C27   S    
C33   H32   S    
C19   O7    A    
Cu2   O2    S    
C5    N1    A    
C43   H24   S    
C21   C27   S    
C38   H19   S    
C40   H16   S    
C4    H6    S    
C14   C17   A    
Cu1   O5    S    
C26   C28   S    
C48   H3    S    
C46   C48   A    
C12   O2    A    
C32   C35   A    
Cu1   N1    S    
C12   O3    A    
C18   C28   S    
C24   C25   S    
C2    H4    S    
C39   C40   S    
C5    C7    A    
C35   H33   S    
Cu2   O8    S    
C6    C8    A    
C20   C28   S    
C1    C32   S    
C23   C44   A    
C24   H31   S    
C25   H1    S    
C3    C9    A    
C23   C34   A    
C21   H29   S    
C34   C45   A    
C9    C11   A    
C46   H34   S    
Cu2   O6    S    
C20   C22   S    
C23   C36   A    
C8    C15   A    
C22   C27   S    
C29   C44   A    
C18   O8    A    
C16   H11   S    
C4    C10   A    
C41   H28   S    
C45   C48   A    
C43   H22   S    
C43   H21   S    
C39   H17   S    
C24   C28   S    
Cu1   O3    S    
C10   C13   A    
C6    N2    A    
C47   H2    S    
C2    C47   A    
C25   C27   S    
C42   H26   S    
C40   H14   S    
C5    H7    S    
C40   H15   S    
C26   H12   S    
C22   H30   S    
C12   C31   S    
C17   H13   S    
C30   C32   A    
C11   C13   A    
C20   H23   S    
Cu2   N2    S    
C29   C31   A    
Cu1   Cu2   S    
C22   C26   S    
C21   C24   S    
Cu1   O7    S    
C15   H10   S    
