data_mof_unit_12638.cif
_audit_creation_date              2012-12-10T18:30:28-0500
_audit_creation_method            fapswitch 2.2
_symmetry_space_group_name_H-M    P1
_symmetry_Int_Tables_number       1
_space_group_crystal_system       triclinic
_cell_length_a                    14.994602
_cell_length_b                    14.165332
_cell_length_c                    15.477649
_cell_angle_alpha                 89.886879
_cell_angle_beta                  81.259551
_cell_angle_gamma                 104.148862
_cell_volume                      3148.13107066

loop_
_atom_site_label
_atom_site_type_symbol
_atom_type_description
_atom_site_fract_x
_atom_site_fract_y
_atom_site_fract_z
_atom_type_partial_charge
C1    C     C_R   0.559306 0.516381 0.337837 0.864163
C2    C     C_R   0.432007 0.369518 0.064176 -0.228646
C3    C     C_R   0.663402 0.604166 0.975777 -0.231067
C4    C     C_R   0.374122 0.325244 0.006239 -0.230274
C5    C     C_R   0.166773 0.371663 0.350614 -0.315197
C6    C     C_R   0.837235 0.636410 0.642191 -0.300446
C7    C     C_R   0.252371 0.390967 0.379367 0.028961
C8    C     C_R   0.751044 0.616526 0.614636 0.019665
C9    C     C_R   0.201006 0.486065 0.492864 -0.065341
C10   C     C_R   0.796436 0.508936 0.509843 -0.062874
C11   C     C_R   0.110612 0.462947 0.470969 -0.035671
C12   C     C_R   0.441329 0.480523 0.661611 0.851064
C13   C     C_R   0.887198 0.532957 0.529794 -0.032234
C14   C     C_R   0.095537 0.411277 0.393849 0.120445
C15   C     C_R   0.903841 0.587411 0.605074 0.109160
C16   C     C_R   0.498837 0.329294 0.499332 0.862983
C17   C     C_R   0.501183 0.670705 0.500646 0.874178
C18   C     C_R   0.036747 0.494468 0.520870 -0.043624
C19   C     C_R   0.959678 0.499587 0.480311 -0.036447
C20   C     C_R   0.957484 0.470568 0.392286 0.109238
C21   C     C_R   0.037097 0.520764 0.609840 0.088087
C22   C     C_R   0.013304 0.407836 0.358374 0.174174
C23   C     C_R   0.564258 0.501309 0.096537 0.095797
C24   C     C_R   0.981810 0.583758 0.644868 0.147973
C25   C     C_1   0.496453 0.227073 0.498909 -0.216314
C26   C     C_1   0.503573 0.772934 0.501124 -0.215959
C27   C     C_1   0.496824 0.141847 0.499124 -0.013273
C28   C     C_1   0.503248 0.858173 0.500917 -0.010802
C29   C     C_1   0.498947 0.042377 0.499723 0.000416
C30   C     C_1   0.501168 0.957656 0.500317 0.001008
C31   C     C_R   0.597551 0.533354 0.244440 -0.089271
C32   C     C_R   0.406810 0.445174 0.752247 -0.088362
C33   C     C_R   0.703668 0.623136 0.120678 -0.238080
C34   C     C_R   0.452421 0.453222 0.896363 0.099263
C35   C     C_R   0.330811 0.316454 0.862020 -0.238405
C36   C     C_R   0.680633 0.604586 0.211259 0.167580
C37   C     C_R   0.346993 0.351299 0.774899 0.164626
C38   C     C_R   0.542982 0.481030 0.186786 -0.305696
C39   C     C_R   0.454633 0.496652 0.814640 -0.297095
C40   C     C_3   0.911457 0.520837 0.330370 -0.440558
C41   C     C_3   0.981025 0.573551 0.252104 -0.870675
C42   C     C_3   0.078969 0.464859 0.670554 -0.411231
C43   C     C_3   0.008203 0.411168 0.747674 -0.824982
C44   C     C_3   0.309322 0.281608 0.707712 -0.399104
C45   C     C_R   0.644550 0.575499 0.064078 0.141612
C46   C     C_3   0.216782 0.295528 0.689569 -0.840782
C47   C     C_3   0.741780 0.668498 0.268728 -0.413862
C48   C     C_3   0.698201 0.749324 0.306275 -0.810006
C49   C     C_3   0.987231 0.342639 0.283220 -0.423193
C50   C     C_3   0.959148 0.235163 0.313304 -0.883361
C51   C     C_3   0.004684 0.642640 0.724646 -0.377237
C52   C     C_3   0.932362 0.610182 0.807628 -0.869777
C53   C     C_R   0.384174 0.365774 0.922298 0.134282
C54   C     C_R   0.504333 0.454287 0.038564 0.078867
C55   C     C_R   0.518176 0.492777 0.951537 0.078697
C56   C     C_R   0.600329 0.565257 0.920618 -0.225764
H1    H     H_    0.725647 0.659564 0.949727 0.141758
H2    H     H_    0.307795 0.362035 0.345351 0.129843
H3    H     H_    0.159418 0.329754 0.292778 0.155489
H4    H     H_    0.848939 0.686719 0.693861 0.161076
H5    H     H_    0.040473 0.625101 0.275149 0.266337
H6    H     H_    0.007940 0.521741 0.208176 0.255215
H7    H     H_    0.946118 0.615545 0.213382 0.242315
H8    H     H_    0.852462 0.468350 0.307721 0.198514
H9    H     H_    0.883597 0.579110 0.363499 0.214206
H10   H     H_    0.006732 0.457860 0.804727 0.265991
H11   H     H_    0.937487 0.386888 0.729472 0.263845
H12   H     H_    0.322138 0.258075 0.026883 0.143468
H13   H     H_    0.028925 0.345719 0.768652 0.235033
H14   H     H_    0.102198 0.406085 0.634016 0.216854
H15   H     H_    0.139817 0.513110 0.694314 0.191193
H16   H     H_    0.225880 0.372342 0.668874 0.273539
H17   H     H_    0.163826 0.276989 0.749467 0.248688
H18   H     H_    0.192721 0.247928 0.636500 0.248066
H19   H     H_    0.359646 0.291116 0.646275 0.210209
H20   H     H_    0.299226 0.204856 0.731083 0.196302
H21   H     H_    0.693103 0.798939 0.252572 0.248971
H22   H     H_    0.742255 0.792094 0.351212 0.245505
H23   H     H_    0.498303 0.568611 0.795678 0.144202
H24   H     H_    0.627547 0.718689 0.343076 0.250456
H25   H     H_    0.756817 0.625025 0.321529 0.225920
H26   H     H_    0.811013 0.703590 0.230373 0.192155
H27   H     H_    0.765216 0.679412 0.094467 0.132810
H28   H     H_    0.282467 0.246452 0.880868 0.137046
H29   H     H_    0.016853 0.212711 0.337954 0.261572
H30   H     H_    0.897922 0.221558 0.366191 0.263791
H31   H     H_    0.939981 0.189495 0.257527 0.251107
H32   H     H_    0.926837 0.357087 0.257206 0.221146
H33   H     H_    0.045252 0.356214 0.227303 0.197965
H34   H     H_    0.479858 0.428985 0.214857 0.154992
H35   H     H_    0.893262 0.666416 0.825029 0.235370
H36   H     H_    0.881761 0.540295 0.799454 0.273155
H37   H     H_    0.967872 0.601098 0.863931 0.243278
H38   H     H_    0.074112 0.639407 0.739226 0.203939
H39   H     H_    0.011396 0.720808 0.708551 0.185076
H40   H     H_    0.619571 0.590580 0.852968 0.147945
H41   H     H_    0.421790 0.332068 0.126942 0.141129
H42   H     H_    0.776108 0.456943 0.461034 0.133427
H43   H     H_    0.219184 0.534256 0.544927 0.129381
H44   H     H_    0.697964 0.651131 0.644798 0.129316
N1    N     N_R   0.268300 0.449640 0.447270 -0.090174
N2    N     N_R   0.731700 0.550360 0.552730 -0.092105
O1    O     O_R   0.616880 0.525390 0.394380 -0.613552
O2    O     O_R   0.383120 0.474610 0.605620 -0.609453
O3    O     O_R   0.468100 0.493070 0.360490 -0.609004
O4    O     O_R   0.531900 0.506930 0.639510 -0.604297
O5    O     O_R   0.574410 0.389880 0.516950 -0.587186
O6    O     O_R   0.425590 0.610120 0.483050 -0.585368
O7    O     O_R   0.425630 0.357560 0.483060 -0.600447
O8    O     O_R   0.574370 0.642440 0.516940 -0.596820
Zn1   Zn    Zn3+2 0.599340 0.521580 0.522630 0.927008
Zn2   Zn    Zn3+2 0.400660 0.478420 0.477370 0.927177

loop_
_geom_bond_atom_site_label_1
_geom_bond_atom_site_label_2
_ccdc_geom_bond_type
C55   C56   A    
C11   C18   A    
C23   C45   A    
C4    C53   A    
C35   C53   A    
C18   C21   A    
C33   C45   A    
C19   C20   A    
C41   H5    S    
C17   O8    A    
N1    Zn2   S    
C17   C26   S    
C35   C37   A    
C12   O2    A    
C20   C40   S    
C11   C14   A    
C47   H26   S    
C27   C29   S    
C1    C31   S    
C33   C36   A    
C36   C47   S    
O1    Zn1   S    
C18   C19   A    
C32   C39   A    
C48   H22   S    
C10   H42   S    
O8    Zn1   S    
C50   H29   S    
C6    C15   A    
O2    Zn2   S    
C2    H41   S    
C1    O1    A    
C7    H2    S    
C46   H16   S    
C16   O5    A    
C24   C51   S    
C34   C55   A    
C9    H43   S    
C12   C32   S    
C49   H32   S    
N2    Zn1   S    
C41   H6    S    
C44   C46   S    
C16   O7    A    
O4    Zn1   S    
C5    H3    S    
C51   C52   S    
C6    H4    S    
C10   N2    A    
C2    C54   A    
C17   O6    A    
C5    C7    A    
C13   C19   A    
C6    C8    A    
C3    C45   A    
C34   C39   A    
C39   H23   S    
C48   H21   S    
C44   H19   S    
C2    C4    A    
C42   H14   S    
C29   C30   T    
C33   H27   S    
C3    C56   A    
C47   C48   S    
C52   H37   S    
C32   C37   A    
C9    C11   A    
C5    C14   A    
C50   H31   S    
C22   C49   S    
C3    H1    S    
C43   H11   S    
C40   C41   S    
O3    Zn2   S    
C20   C22   A    
C40   H9    S    
C13   C15   A    
O7    Zn2   S    
C42   C43   S    
C41   H7    S    
C46   H18   S    
C23   C54   A    
C4    H12   S    
C16   C25   S    
C56   H40   S    
C54   C55   A    
C15   C24   A    
O5    Zn1   S    
C49   H33   S    
C10   C13   A    
C35   H28   S    
C25   C27   T    
C23   C38   A    
C38   H34   S    
C26   C28   T    
C40   H8    S    
C31   C38   A    
C48   H24   S    
C37   C44   S    
C28   C30   S    
C8    H44   S    
C12   O4    A    
C14   C22   A    
C43   H10   S    
C42   H15   S    
C47   H25   S    
C52   H36   S    
C50   H30   S    
C51   H38   S    
C21   C42   S    
O6    Zn2   S    
C34   C53   A    
C9    N1    A    
C49   C50   S    
C7    N1    A    
C21   C24   A    
C1    O3    A    
C31   C36   A    
C52   H35   S    
C44   H20   S    
C43   H13   S    
C8    N2    A    
C46   H17   S    
C51   H39   S    
