data_mof_unit_6711.cif
_audit_creation_date              2013-03-05T16:47:55-0500
_audit_creation_method            fapswitch 2.2
_symmetry_space_group_name_H-M    P1
_symmetry_Int_Tables_number       1
_space_group_crystal_system       triclinic
_cell_length_a                    8.090107
_cell_length_b                    8.915695
_cell_length_c                    17.008259
_cell_angle_alpha                 89.99834
_cell_angle_beta                  83.609225
_cell_angle_gamma                 90.000294
_cell_volume                      1219.16402624

loop_
_atom_site_label
_atom_site_type_symbol
_atom_site_description
_atom_site_fract_x
_atom_site_fract_y
_atom_site_fract_z
_atom_type_partial_charge
O1    O     O_R   0.363150 0.714660 0.500000 -0.608813
O2    O     O_R   0.636850 0.285340 0.500000 -0.624269
O3    O     O_R   0.636850 0.714660 0.500000 -0.608843
O4    O     O_R   0.363150 0.285340 0.500000 -0.624344
H1    H     H_    0.229670 0.265467 0.881050 0.149959
H2    H     H_    0.770170 0.265340 0.118974 0.149985
C1    C     C_R   0.500000 0.782070 0.499999 0.972612
C2    C     C_R   0.500001 0.217965 0.499994 0.914904
O5    O     O_R   0.346950 0.500000 0.615800 -0.612000
O6    O     O_R   0.653050 0.500000 0.384200 -0.612041
O7    O     O_R   0.620700 0.500000 0.615800 -0.595805
O8    O     O_R   0.379300 0.500000 0.384200 -0.595899
C3    C     C_R   0.474641 0.497248 0.653164 0.906059
C4    C     C_R   0.525357 0.497255 0.346837 0.906091
Zn1   Zn    Zn3+2 0.317220 0.500000 0.500010 1.012482
Zn2   Zn    Zn3+2 0.682780 0.500000 0.499990 1.012512
H3    H     H_    0.357729 0.562946 0.100358 0.170851
H4    H     H_    0.642276 0.562886 0.899646 0.170850
N1    N     N_1   0.926360 0.500000 0.499990 -0.013798
N2    N     N_1   0.073640 0.500000 0.500010 -0.013813
C5    C     C_R   0.453679 0.473831 0.738122 -0.151624
C6    C     C_R   0.546305 0.473835 0.261882 -0.151586
C7    C     C_R   0.564538 0.543348 0.784799 0.216933
C8    C     C_R   0.435468 0.543385 0.215204 0.216940
C9    C     C_R   0.557821 0.507037 0.864057 -0.183035
C10   C     C_R   0.442159 0.507063 0.135949 -0.182951
C11   C     C_R   0.440698 0.403238 0.897899 0.124935
C12   C     C_R   0.559221 0.403207 0.102115 0.124915
C13   C     C_R   0.323198 0.341964 0.853563 -0.196720
C14   C     C_R   0.676689 0.341884 0.146455 -0.196673
C15   C     C_R   0.329163 0.374638 0.773340 -0.049144
C16   C     C_R   0.670755 0.374582 0.226673 -0.049226
C17   C     C_2   0.431178 0.369727 0.981775 -0.201168
C18   C     C_2   0.568716 0.369688 0.018241 -0.201184
C19   C     C_1   0.500002 0.934814 0.499996 -0.212906
C20   C     C_1   0.500002 0.065233 0.499994 -0.235246
H5    H     H_    0.691043 0.362558 0.984703 0.155762
H6    H     H_    0.308845 0.362664 0.015313 0.155775
Br1   Br    Br    0.722490 0.694222 0.745007 -0.550354
Br2   Br    Br    0.277581 0.694307 0.254993 -0.550479
C21   C     C_R   0.792320 0.298030 0.271692 0.128969
C22   C     C_R   0.958335 0.346729 0.264990 -0.117608
C23   C     C_R   0.074500 0.272164 0.305945 -0.110753
C24   C     C_R   0.025891 0.148380 0.353401 -0.093650
C25   C     C_R   0.861255 0.098194 0.359440 -0.094357
C26   C     C_R   0.744533 0.172596 0.318656 -0.128246
H7    H     H_    0.997475 0.442065 0.228055 0.164843
H8    H     H_    0.202374 0.309647 0.300517 0.160542
H9    H     H_    0.116001 0.090813 0.385055 0.149748
H10   H     H_    0.824277 0.001438 0.395605 0.149534
H11   H     H_    0.617432 0.132481 0.323388 0.121172
C27   C     C_R   0.207555 0.298120 0.728331 0.128972
C28   C     C_R   0.041477 0.346665 0.735165 -0.117731
C29   C     C_R   0.925276 0.272121 0.694224 -0.110557
C30   C     C_R   0.973911 0.148506 0.646650 -0.093705
C31   C     C_R   0.138608 0.098463 0.640483 -0.094393
C32   C     C_R   0.255364 0.172842 0.681254 -0.127902
H12   H     H_    0.002314 0.441865 0.772195 0.164797
H13   H     H_    0.797356 0.309489 0.699751 0.160423
H14   H     H_    0.883775 0.090956 0.615006 0.149767
H15   H     H_    0.175608 0.001834 0.604227 0.149513
H16   H     H_    0.382512 0.132832 0.676427 0.120976

loop_
_geom_bond_atom_site_label_1
_geom_bond_atom_site_label_2
_geom_bond_distance
_ccdc_geom_bond_type
C24   H9    1.082629 S    
C29   H13   1.081282 S    
C28   H12   1.083082 S    
O1    Zn1   1.949576 S    
C11   C13   1.389347 A    
C18   H5    1.087727 S    
O2    Zn2   1.949576 S    
O7    Zn2   1.977836 S    
N1    N2    1.191549 T    
C10   C12   1.401481 A    
C19   C20   1.162776 T    
O8    Zn1   1.977836 S    
O8    C4    1.278081 A    
C15   C27   1.478868 S    
O4    C2    1.259596 A    
C23   H8    1.081273 S    
C4    C6    1.451099 S    
O4    Zn1   1.949580 S    
C12   C14   1.389361 A    
C17   C18   1.332831 D    
O5    Zn1   2.010418 S    
C3    C5    1.451134 S    
C32   H16   1.083182 S    
C13   C15   1.390768 A    
O6    Zn2   2.010418 S    
C30   H14   1.082627 S    
C11   C17   1.451149 S    
C14   C16   1.390766 A    
C5    C15   1.421715 A    
H4    C9    1.083167 S    
C6    C16   1.421678 A    
C25   H10   1.082136 S    
Zn2   N1    1.970588 S    
C7    Br1   1.925555 S    
H3    C10   1.083168 S    
C8    Br2   1.925553 S    
C8    C10   1.381531 A    
O3    C1    1.259741 A    
C22   H7    1.083081 S    
C5    C7    1.406173 A    
C23   C24   1.397635 A    
C2    C20   1.361709 S    
Zn1   N2    1.970588 S    
C6    C8    1.406163 A    
C30   C31   1.397961 A    
C9    C11   1.401474 A    
C27   C32   1.403346 A    
O3    Zn2   1.949579 S    
C16   C21   1.478838 S    
C12   C18   1.451154 S    
H1    C13   1.085116 S    
C25   C26   1.399522 A    
O7    C3    1.278104 A    
C7    C9    1.381536 A    
C27   C28   1.404040 A    
C21   C22   1.404026 A    
C31   C32   1.399524 A    
O5    C3    1.271908 A    
C29   C30   1.397629 A    
C21   C26   1.403349 A    
O1    C1    1.259740 A    
H2    C14   1.085114 S    
C28   C29   1.398604 A    
C1    C19   1.361822 S    
C26   H11   1.083184 S    
O2    C2    1.259590 A    
C24   C25   1.397964 A    
C17   H6    1.087729 S    
C22   C23   1.398599 A    
O6    C4    1.271914 A    
C31   H15   1.082132 S    
