data_mof_unit_49479.cif
_audit_creation_date              2013-03-05T16:34:32-0500
_audit_creation_method            fapswitch 2.2
_symmetry_space_group_name_H-M    P1
_symmetry_Int_Tables_number       1
_space_group_crystal_system       monoclinic
_cell_length_a                    13.219723
_cell_length_b                    9.073951
_cell_length_c                    8.002673
_cell_angle_alpha                 90.0
_cell_angle_beta                  96.704708
_cell_angle_gamma                 90.0
_cell_volume                      953.396469567

loop_
_atom_site_label
_atom_site_type_symbol
_atom_site_description
_atom_site_fract_x
_atom_site_fract_y
_atom_site_fract_z
_atom_type_partial_charge
O1    O     O_R   0.500000 0.288400 0.642760 -0.571709
O2    O     O_R   0.500000 0.711600 0.357240 -0.570084
O3    O     O_R   0.500000 0.288400 0.357240 -0.571709
O4    O     O_R   0.500000 0.711600 0.642760 -0.570084
N1    N     N_1   0.499980 0.500000 0.076820 0.032663
N2    N     N_1   0.500020 0.500000 0.923180 0.032663
C1    C     C_R   0.500000 0.220931 0.500000 0.815226
C2    C     C_R   0.500000 0.779070 0.500000 0.813624
O5    O     O_R   0.349000 0.500000 0.619590 -0.526211
O6    O     O_R   0.651000 0.500000 0.380410 -0.526212
O7    O     O_R   0.348990 0.500000 0.334020 -0.523356
O8    O     O_R   0.651010 0.500000 0.665980 -0.523356
C3    C     C_R   0.300292 0.501841 0.468133 0.834112
C4    C     C_R   0.699708 0.501841 0.531867 0.834112
Cu1   Cu    Cu3+1 0.500010 0.500000 0.669080 1.158083
Cu2   Cu    Cu3+1 0.499990 0.500000 0.330920 1.158083
C5    C     C_R   0.813602 0.506739 0.549189 -0.243008
C6    C     C_R   0.186398 0.506739 0.450811 -0.243008
C7    C     C_R   0.022633 0.506562 0.277161 -0.186073
C8    C     C_R   0.977367 0.506560 0.722839 -0.186073
C9    C     C_R   0.127922 0.496228 0.293441 0.281808
C10   C     C_R   0.872078 0.496227 0.706559 0.281808
C11   C     C_R   0.134357 0.520670 0.593620 0.286067
C12   C     C_R   0.865643 0.520671 0.406380 0.286067
C13   C     C_R   0.028176 0.515134 0.579836 -0.044498
C14   C     C_R   0.971824 0.515134 0.420164 -0.044498
H1    H     H_    0.981203 0.501841 0.152256 0.195623
H2    H     H_    0.018797 0.501839 0.847744 0.195623
C15   C     C_1   0.500000 0.065611 0.500000 -0.099893
C16   C     C_1   0.500000 0.934387 0.500000 -0.097570
N3    N     N_R   0.810358 0.540175 0.246175 0.145321
O9    O     O_R   0.768414 0.423602 0.173711 -0.264261
O10   O     O_R   0.771805 0.669879 0.209464 -0.295318
N4    N     N_R   0.189642 0.540175 0.753825 0.145321
O11   O     O_R   0.231586 0.423601 0.826288 -0.264262
O12   O     O_R   0.228195 0.669879 0.790536 -0.295318
N5    N     N_R   0.824624 0.475443 0.852534 0.136261
O13   O     O_R   0.792536 0.343313 0.881463 -0.294029
O14   O     O_R   0.779805 0.589685 0.908041 -0.267083
N6    N     N_R   0.175376 0.475444 0.147466 0.136261
O15   O     O_R   0.207463 0.343314 0.118537 -0.294029
O16   O     O_R   0.220195 0.589686 0.091959 -0.267083

loop_
_geom_bond_atom_site_label_1
_geom_bond_atom_site_label_2
_geom_bond_distance
_ccdc_geom_bond_type
N3    O10   1.302408 A    
C15   C16   1.190716 T    
O1    Cu1   1.931566 S    
C6    C9    1.401924 A    
C7    H1    1.083099 S    
O7    Cu2   1.999226 S    
N4    O12   1.302407 A    
C5    C10   1.401925 A    
O8    Cu1   1.999226 S    
O4    C2    1.296162 A    
C11   N4    1.410810 S    
C2    C16   1.409337 S    
O4    Cu1   1.931565 S    
N6    O16   1.297854 A    
O5    Cu1   1.989345 S    
C12   N3    1.410810 S    
N5    O14   1.297855 A    
C13   C14   1.401960 A    
O6    Cu2   1.989345 S    
O7    C3    1.314522 A    
C4    C5    1.496469 S    
N5    O13   1.301507 A    
C9    N6    1.401747 S    
C3    C6    1.496469 S    
C1    C15   1.409364 S    
Cu1   Cu2   2.706154 S    
N6    O15   1.301506 A    
C7    C9    1.385931 A    
O8    C4    1.314522 A    
O3    C1    1.296158 A    
C11   C13   1.396008 A    
N1    N2    1.229593 T    
C12   C14   1.396008 A    
C5    C12   1.406761 A    
C8    C13   1.395119 A    
C6    C11   1.406761 A    
O2    Cu2   1.931565 S    
N4    O11   1.299068 A    
O6    C4    1.304510 A    
C7    C14   1.395120 A    
O5    C3    1.304510 A    
N1    Cu2   2.033463 S    
C8    H2    1.083099 S    
N2    Cu1   2.033463 S    
O1    C1    1.296158 A    
C10   N5    1.401747 S    
O2    C2    1.296162 A    
O3    Cu2   1.931566 S    
N3    O9    1.299068 A    
C8    C10   1.385931 A    
