data_mof_unit_35397.cif
_audit_creation_date              2012-12-11T16:26:11-0500
_audit_creation_method            fapswitch 2.2
_symmetry_space_group_name_H-M    P1
_symmetry_Int_Tables_number       1
_space_group_crystal_system       monoclinic
_cell_length_a                    13.996624
_cell_length_b                    13.996625
_cell_length_c                    32.007579
_cell_angle_alpha                 90.0
_cell_angle_beta                  90.0
_cell_angle_gamma                 120.000244
_cell_volume                      5430.36489435

loop_
_atom_site_label
_atom_site_type_symbol
_atom_type_description
_atom_site_fract_x
_atom_site_fract_y
_atom_site_fract_z
_atom_type_partial_charge
C1    C     C_R   0.567569 0.443984 0.810576 0.560210
C2    C     C_R   0.876414 0.432431 0.689424 0.560209
C3    C     C_R   0.556016 0.123585 0.810576 0.560210
C4    C     C_R   0.567569 0.443984 0.689424 0.560210
C5    C     C_R   0.876414 0.432431 0.810576 0.560209
C6    C     C_R   0.556016 0.123585 0.689424 0.560210
C7    C     C_R   0.443984 0.567569 0.310576 0.560210
C8    C     C_R   0.432431 0.876414 0.189424 0.560209
C9    C     C_R   0.123585 0.556016 0.310576 0.560210
C10   C     C_R   0.443984 0.567569 0.189424 0.560210
C11   C     C_R   0.432431 0.876414 0.310576 0.560209
C12   C     C_R   0.123585 0.556016 0.189424 0.560210
C13   C     C_1   0.004386 0.524455 0.018654 0.102265
C14   C     C_1   0.520069 0.995614 0.481346 0.102265
C15   C     C_1   0.475545 0.479931 0.018654 0.102265
C16   C     C_1   0.004386 0.524455 0.481346 0.102265
C17   C     C_1   0.520069 0.995614 0.018654 0.102265
C18   C     C_1   0.475545 0.479931 0.481346 0.102265
C19   C     C_1   0.524455 0.004386 0.518654 0.102265
C20   C     C_1   0.995614 0.520069 0.981346 0.102265
C21   C     C_1   0.479931 0.475545 0.518654 0.102265
C22   C     C_1   0.524455 0.004386 0.981346 0.102265
C23   C     C_1   0.995614 0.520069 0.518654 0.102265
C24   C     C_1   0.479931 0.475545 0.981346 0.102265
C25   C     C_R   0.930034 0.469046 0.851913 -0.042527
C26   C     C_R   0.539011 0.069965 0.648087 -0.042527
C27   C     C_R   0.530953 0.460988 0.851913 -0.042527
C28   C     C_R   0.930034 0.469046 0.648087 -0.042527
C29   C     C_R   0.539011 0.069965 0.851913 -0.042527
C30   C     C_R   0.530953 0.460988 0.648087 -0.042527
C31   C     C_R   0.469046 0.930034 0.351913 -0.042527
C32   C     C_R   0.069965 0.539011 0.148087 -0.042527
C33   C     C_R   0.460988 0.530953 0.351913 -0.042527
C34   C     C_R   0.469046 0.930034 0.148087 -0.042527
C35   C     C_R   0.069965 0.539011 0.351913 -0.042527
C36   C     C_R   0.460988 0.530953 0.148087 -0.042527
C37   C     C_R   0.952424 0.570360 0.870405 0.216633
C38   C     C_R   0.617935 0.047575 0.629596 0.216634
C39   C     C_R   0.429640 0.382064 0.870405 0.216633
C40   C     C_R   0.952424 0.570360 0.629595 0.216634
C41   C     C_R   0.617935 0.047575 0.870404 0.216633
C42   C     C_R   0.429640 0.382063 0.629595 0.216633
C43   C     C_R   0.570360 0.952424 0.370405 0.216633
C44   C     C_R   0.047575 0.617935 0.129596 0.216633
C45   C     C_R   0.382064 0.429640 0.370405 0.216633
C46   C     C_R   0.570360 0.952424 0.129595 0.216634
C47   C     C_R   0.047575 0.617935 0.370404 0.216633
C48   C     C_R   0.382063 0.429640 0.129595 0.216633
C49   C     C_R   0.978032 0.588434 0.912943 -0.118129
C50   C     C_R   0.610401 0.021967 0.587057 -0.118129
C51   C     C_R   0.411566 0.389597 0.912943 -0.118128
C52   C     C_R   0.978032 0.588434 0.587057 -0.118129
C53   C     C_R   0.610401 0.021967 0.912943 -0.118129
C54   C     C_R   0.411566 0.389597 0.587057 -0.118128
C55   C     C_R   0.588434 0.978032 0.412943 -0.118129
C56   C     C_R   0.021967 0.610401 0.087057 -0.118129
C57   C     C_R   0.389597 0.411566 0.412943 -0.118128
C58   C     C_R   0.588434 0.978032 0.087057 -0.118129
C59   C     C_R   0.021967 0.610401 0.412943 -0.118129
C60   C     C_R   0.389597 0.411566 0.087057 -0.118128
C61   C     C_R   0.983154 0.507983 0.937031 -0.010952
C62   C     C_R   0.524829 0.016845 0.562969 -0.010952
C63   C     C_R   0.492017 0.475171 0.937031 -0.010952
C64   C     C_R   0.983154 0.507983 0.562969 -0.010952
C65   C     C_R   0.524829 0.016845 0.937031 -0.010952
C66   C     C_R   0.492017 0.475171 0.562969 -0.010952
C67   C     C_R   0.507983 0.983154 0.437031 -0.010952
C68   C     C_R   0.016845 0.524829 0.062969 -0.010952
C69   C     C_R   0.475171 0.492017 0.437031 -0.010953
C70   C     C_R   0.507983 0.983154 0.062969 -0.010952
C71   C     C_R   0.016845 0.524829 0.437031 -0.010952
C72   C     C_R   0.475171 0.492017 0.062969 -0.010953
C73   C     C_R   0.969939 0.412003 0.918365 0.402754
C74   C     C_R   0.442064 0.030061 0.581635 0.402754
C75   C     C_R   0.587997 0.557937 0.918365 0.402754
C76   C     C_R   0.969939 0.412003 0.581635 0.402753
C77   C     C_R   0.442064 0.030061 0.918365 0.402754
C78   C     C_R   0.587997 0.557937 0.581635 0.402754
C79   C     C_R   0.412003 0.969939 0.418365 0.402754
C80   C     C_R   0.030061 0.442064 0.081635 0.402754
C81   C     C_R   0.557937 0.587997 0.418365 0.402755
C82   C     C_R   0.412003 0.969939 0.081635 0.402754
C83   C     C_R   0.030061 0.442064 0.418365 0.402754
C84   C     C_R   0.557937 0.587997 0.081635 0.402755
C85   C     C_R   0.944126 0.392951 0.876139 -0.107050
C86   C     C_R   0.448825 0.055874 0.623861 -0.107050
C87   C     C_R   0.607049 0.551176 0.876138 -0.107049
C88   C     C_R   0.944126 0.392951 0.623861 -0.107050
C89   C     C_R   0.448825 0.055874 0.876139 -0.107050
C90   C     C_R   0.607049 0.551176 0.623862 -0.107049
C91   C     C_R   0.392951 0.944126 0.376138 -0.107050
C92   C     C_R   0.055874 0.448824 0.123861 -0.107050
C93   C     C_R   0.551176 0.607049 0.376138 -0.107049
C94   C     C_R   0.392951 0.944126 0.123861 -0.107050
C95   C     C_R   0.055874 0.448825 0.376139 -0.107050
C96   C     C_R   0.551176 0.607049 0.123862 -0.107049
Cr1   Cr    Cr6+3 0.504240 0.249200 0.750000 1.169201
Cr2   Cr    Cr6+3 0.744960 0.495760 0.750000 1.169201
Cr3   Cr    Cr6+3 0.750800 0.255040 0.750000 1.169201
Cr4   Cr    Cr6+3 0.249200 0.504240 0.250000 1.169201
Cr5   Cr    Cr6+3 0.495760 0.744960 0.250000 1.169201
Cr6   Cr    Cr6+3 0.255040 0.750800 0.250000 1.169201
H1    H     H_    0.009283 0.673153 0.072530 0.198042
H2    H     H_    0.663870 0.990715 0.427471 0.198042
H3    H     H_    0.326845 0.336131 0.072529 0.198042
H4    H     H_    0.009283 0.673153 0.427470 0.198042
H5    H     H_    0.663870 0.990715 0.072529 0.198042
H6    H     H_    0.326845 0.336131 0.427471 0.198042
H7    H     H_    0.673153 0.009283 0.572530 0.198042
H8    H     H_    0.990715 0.663870 0.927471 0.198042
H9    H     H_    0.336131 0.326845 0.572529 0.198042
H10   H     H_    0.673153 0.009283 0.927470 0.198042
H11   H     H_    0.990716 0.663870 0.572529 0.198042
H12   H     H_    0.336131 0.326845 0.927471 0.198042
H13   H     H_    0.071239 0.386314 0.136860 0.214668
H14   H     H_    0.315076 0.928761 0.363139 0.214667
H15   H     H_    0.613687 0.684924 0.136861 0.214668
H16   H     H_    0.071240 0.386314 0.363140 0.214668
H17   H     H_    0.315076 0.928761 0.136860 0.214667
H18   H     H_    0.613687 0.684924 0.363139 0.214668
H19   H     H_    0.386314 0.071240 0.636860 0.214668
H20   H     H_    0.928761 0.315076 0.863140 0.214667
H21   H     H_    0.684924 0.613687 0.636861 0.214667
H22   H     H_    0.386314 0.071239 0.863140 0.214668
H23   H     H_    0.928761 0.315076 0.636860 0.214667
H24   H     H_    0.684924 0.613687 0.863139 0.214667
O1    O     O_R   0.480350 0.140770 0.796330 -0.487850
O2    O     O_R   0.660420 0.519650 0.703670 -0.487850
O3    O     O_R   0.859230 0.339580 0.796330 -0.487849
O4    O     O_R   0.480350 0.140770 0.703670 -0.487850
O5    O     O_R   0.660420 0.519650 0.796330 -0.487850
O6    O     O_R   0.859230 0.339580 0.703670 -0.487850
O7    O     O_R   0.140770 0.480350 0.296330 -0.487850
O8    O     O_R   0.519650 0.660420 0.203670 -0.487850
O9    O     O_R   0.339580 0.859230 0.296330 -0.487850
O10   O     O_R   0.140770 0.480350 0.203670 -0.487850
O11   O     O_R   0.519650 0.660420 0.296330 -0.487850
O12   O     O_R   0.339580 0.859230 0.203670 -0.487850
O13   O     O_R   0.514930 0.348530 0.793250 -0.441485
O14   O     O_R   0.833600 0.485070 0.706750 -0.441485
O15   O     O_R   0.651470 0.166400 0.793250 -0.441485
O16   O     O_R   0.514930 0.348530 0.706750 -0.441485
O17   O     O_R   0.833600 0.485070 0.793250 -0.441485
O18   O     O_R   0.651470 0.166400 0.706750 -0.441485
O19   O     O_R   0.348530 0.514930 0.293250 -0.441485
O20   O     O_R   0.485070 0.833600 0.206750 -0.441485
O21   O     O_R   0.166400 0.651470 0.293250 -0.441486
O22   O     O_R   0.348530 0.514930 0.206750 -0.441485
O23   O     O_R   0.485070 0.833600 0.293250 -0.441485
O24   O     O_R   0.166400 0.651470 0.206750 -0.441486
O25   O     O_3   0.666667 0.333333 0.750000 -0.313841
O26   O     O_3   0.333333 0.666667 0.250000 -0.313841
Cl1   Cl    Cl    0.947728 0.676549 0.842512 -0.467283
Cl2   Cl    Cl    0.728819 0.052270 0.657488 -0.467282
Cl3   Cl    Cl    0.323451 0.271177 0.842512 -0.467283
Cl4   Cl    Cl    0.947729 0.676549 0.657488 -0.467283
Cl5   Cl    Cl    0.728819 0.052270 0.842511 -0.467282
Cl6   Cl    Cl    0.323451 0.271177 0.657488 -0.467284
Cl7   Cl    Cl    0.676549 0.947728 0.342512 -0.467283
Cl8   Cl    Cl    0.052270 0.728819 0.157489 -0.467282
Cl9   Cl    Cl    0.271177 0.323451 0.342512 -0.467283
Cl10  Cl    Cl    0.676549 0.947728 0.157488 -0.467283
Cl11  Cl    Cl    0.052270 0.728819 0.342511 -0.467282
Cl12  Cl    Cl    0.271177 0.323451 0.157488 -0.467283
F1    F     F_    0.023555 0.357618 0.058523 -0.551590
F2    F     F_    0.334064 0.976445 0.441476 -0.551590
F3    F     F_    0.642384 0.665936 0.058524 -0.551590
F4    F     F_    0.023555 0.357619 0.441477 -0.551590
F5    F     F_    0.334064 0.976445 0.058523 -0.551590
F6    F     F_    0.642384 0.665936 0.441476 -0.551590
F7    F     F_    0.357619 0.023555 0.558523 -0.551590
F8    F     F_    0.976445 0.334064 0.941477 -0.551590
F9    F     F_    0.665936 0.642384 0.558524 -0.551590
F10   F     F_    0.357618 0.023555 0.941477 -0.551590
F11   F     F_    0.976445 0.334064 0.558523 -0.551590
F12   F     F_    0.665936 0.642384 0.941476 -0.551590

loop_
_geom_bond_atom_site_label_1
_geom_bond_atom_site_label_2
_ccdc_geom_bond_type
C68   C80   A    
C39   C51   A    
C77   F10   S    
C82   C94   A    
Cr2   O17   S    
C18   C21   T    
C33   C45   A    
C90   H21   S    
C3    O15   A    
C6    O4    A    
C35   C47   A    
C29   C89   A    
C48   Cl12  S    
C32   C92   A    
Cr5   O8    S    
Cr4   O26   S    
C15   C72   S    
C45   C57   A    
C31   C43   A    
Cr3   O6    S    
Cr1   O4    S    
C43   Cl7   S    
C4    O16   A    
C21   C66   S    
C3    O1    A    
C39   Cl3   S    
C5    O17   A    
C60   C72   A    
C19   C62   S    
Cr6   O12   S    
C37   C49   A    
C91   H14   S    
C8    O12   A    
C58   H5    S    
C84   C96   A    
Cr5   O23   S    
C20   C61   S    
C3    C29   S    
C45   Cl9   S    
Cr6   O9    S    
C25   C37   A    
C11   O23   A    
C27   C39   A    
Cr2   O5    S    
C28   C88   A    
C78   F9    S    
C2    O6    A    
C14   C67   S    
C34   C46   A    
C93   H18   S    
C52   H11   S    
C53   C65   A    
C76   C88   A    
C79   C91   A    
C1    O13   A    
Cr1   O1    S    
C47   Cl11  S    
C64   C76   A    
C18   C69   S    
Cr2   O2    S    
C82   F5    S    
C11   C31   S    
C17   C70   S    
C12   C32   S    
C7    C33   S    
C42   Cl6   S    
C16   C71   S    
C48   C60   A    
C71   C83   A    
Cr2   O25   S    
C95   H16   S    
C32   C44   A    
C66   C78   A    
C8    O20   A    
Cr5   O20   S    
C59   H4    S    
C49   C61   A    
C38   C50   A    
Cr3   O3    S    
C51   H12   S    
C12   O24   A    
Cr3   O18   S    
C67   C79   A    
C52   C64   A    
C7    O11   A    
C4    O2    A    
C58   C70   A    
C61   C73   A    
C40   C52   A    
Cr3   O25   S    
C55   H2    S    
C9    O21   A    
C50   H7    S    
C78   C90   A    
Cr2   O14   S    
C80   C92   A    
C22   C65   S    
C88   H23   S    
C37   Cl1   S    
Cr6   O21   S    
C65   C77   A    
C81   C93   A    
C94   H17   S    
C96   H15   S    
C30   C90   A    
Cr4   O19   S    
C26   C86   A    
C62   C74   A    
C83   C95   A    
C57   H6    S    
C86   H19   S    
C25   C85   A    
Cr1   O25   S    
C51   C63   A    
C85   H20   S    
C8    C34   S    
C81   F6    S    
C74   C86   A    
C73   F8    S    
C27   C87   A    
C41   C53   A    
C74   F7    S    
C72   C84   A    
Cr6   O24   S    
C41   Cl5   S    
C53   H10   S    
C75   C87   A    
C23   C64   S    
C24   C63   S    
C31   C91   A    
C46   Cl10  S    
C44   Cl8   S    
C5    C25   S    
C38   Cl2   S    
C6    O18   A    
C80   F1    S    
Cr4   O7    S    
C1    C27   S    
Cr6   O26   S    
C73   C85   A    
C43   C55   A    
C15   C24   T    
Cr5   O11   S    
C13   C20   T    
C29   C41   A    
C75   F12   S    
C77   C89   A    
C14   C19   T    
Cr3   O15   S    
C76   F11   S    
C26   C38   A    
C11   O9    A    
C34   C94   A    
C56   H1    S    
C1    O5    A    
C33   C93   A    
C55   C67   A    
C54   C66   A    
C89   H22   S    
C35   C95   A    
C16   C23   T    
C83   F4    S    
Cr5   O26   S    
C17   C22   T    
C2    O14   A    
C84   F3    S    
C56   C68   A    
C42   C54   A    
C44   C56   A    
C6    C26   S    
C63   C75   A    
Cr4   O22   S    
C50   C62   A    
C5    O3    A    
C36   C96   A    
C10   C36   S    
C54   H9    S    
C36   C48   A    
C30   C42   A    
C79   F2    S    
C70   C82   A    
C92   H13   S    
C4    C30   S    
Cr1   O16   S    
C69   C81   A    
C47   C59   A    
C10   O8    A    
C12   O10   A    
C10   O22   A    
C9    C35   S    
C28   C40   A    
C40   Cl4   S    
C2    C28   S    
C57   C69   A    
Cr1   O13   S    
C87   H24   S    
C46   C58   A    
C60   H3    S    
Cr4   O10   S    
C59   C71   A    
C49   H8    S    
C7    O19   A    
C13   C68   S    
C9    O7    A    
