data_mof_unit_10669.cif
_audit_creation_date              2012-12-10T17:17:24-0500
_audit_creation_method            fapswitch 2.2
_symmetry_space_group_name_H-M    P1
_symmetry_Int_Tables_number       1
_space_group_crystal_system       triclinic
_cell_length_a                    10.204667
_cell_length_b                    10.825141
_cell_length_c                    12.491951
_cell_angle_alpha                 90.739818
_cell_angle_beta                  109.883625
_cell_angle_gamma                 95.737498
_cell_volume                      1289.55789121

loop_
_atom_site_label
_atom_site_type_symbol
_atom_type_description
_atom_site_fract_x
_atom_site_fract_y
_atom_site_fract_z
_atom_type_partial_charge
C1    C     C_R   0.053431 0.732516 0.495745 0.936103
C2    C     C_R   0.438505 0.565677 0.986629 0.114298
C3    C     C_R   0.367143 0.577125 0.869991 0.103544
C4    C     C_R   0.578353 0.536429 0.019938 0.018652
C5    C     C_R   0.647995 0.533151 0.939109 0.057055
C6    C     C_R   0.582624 0.571173 0.829508 -0.235279
C7    C     C_R   0.445020 0.597147 0.796808 -0.205047
C8    C     C_R   0.648907 0.505797 0.130412 -0.268404
C9    C     C_R   0.856310 0.476824 0.084719 -0.291655
C10   C     C_R   0.219826 0.568344 0.830094 -0.158267
C11   C     C_2   0.089879 0.865320 0.503675 -0.383748
C12   C     C_R   0.138293 0.527316 0.711429 0.861335
C13   C     C_2   0.009523 0.936440 0.536418 -0.146273
C14   C     C_2   0.927444 0.136726 0.525162 -0.392071
C15   C     C_2   0.032226 0.068622 0.534142 -0.138672
C16   C     C_2   0.430838 0.517440 0.501095 -0.135861
C17   C     C_2   0.567522 0.488100 0.490494 -0.153494
C18   C     C_R   0.950210 0.267951 0.510294 0.954878
C19   C     C_R   0.864294 0.486098 0.286711 0.907937
C20   C     C_R   0.782940 0.494175 0.970307 0.475978
C21   C     C_R   0.789600 0.486313 0.165003 -0.129541
C22   C     C_R   0.151200 0.591514 0.906780 -0.179651
C23   C     C_R   0.224791 0.601320 0.023248 -0.146257
C24   C     C_R   0.366239 0.583336 0.063759 -0.202580
H1    H     H_    0.964308 0.456880 0.110328 0.167734
H2    H     H_    0.919772 0.897388 0.558051 0.188841
H3    H     H_    0.826493 0.095580 0.526733 0.143972
H4    H     H_    0.179180 0.904875 0.481834 0.148857
H5    H     H_    0.566732 0.410159 0.434694 0.162324
H6    H     H_    0.430545 0.601286 0.548895 0.149971
H7    H     H_    0.682624 0.628308 0.595378 0.158439
H8    H     H_    0.318785 0.367316 0.410458 0.160365
H9    H     H_    0.637116 0.580289 0.768877 0.171922
H10   H     H_    0.596289 0.498899 0.191911 0.169921
H11   H     H_    0.041178 0.602499 0.876212 0.225295
H12   H     H_    0.416863 0.588685 0.155058 0.135799
H13   H     H_    0.171094 0.618595 0.082345 0.153773
H14   H     H_    0.399837 0.634103 0.714249 0.161746
H15   H     H_    0.133300 0.109212 0.532177 0.187211
N1    N     N_2   0.313640 0.446500 0.454900 -0.193578
N2    N     N_2   0.686360 0.553430 0.545150 -0.196010
O1    O     O_R   0.936910 0.692950 0.509080 -0.609295
O2    O     O_R   0.138320 0.658600 0.480130 -0.620636
O3    O     O_R   0.002900 0.525670 0.675280 -0.601513
O4    O     O_R   0.204310 0.491320 0.646330 -0.606950
O5    O     O_R   0.861680 0.341400 0.519870 -0.617740
O6    O     O_R   0.063090 0.307050 0.490920 -0.607574
O7    O     O_R   0.795690 0.508680 0.353670 -0.613781
O8    O     O_R   0.997100 0.474330 0.324720 -0.612470
Zn1   Zn    Zn3+2 0.865520 0.522940 0.519330 0.932667
Zn2   Zn    Zn3+2 0.134480 0.477060 0.480670 0.930984
O9    O     O_3   0.845712 0.478159 0.889965 -0.685937
C25   C     C_3   0.805708 0.356482 0.838687 0.081431
H16   H     H_    0.775877 0.364222 0.744979 0.184572
H17   H     H_    0.712764 0.306207 0.853723 0.123741
C26   C     C_3   0.930391 0.280197 0.879506 -0.327998
H18   H     H_    0.019067 0.326299 0.856870 0.234772
H19   H     H_    0.964851 0.275273 0.973677 0.216407
C27   C     C_3   0.892281 0.148513 0.825314 -0.959151
H20   H     H_    0.808277 0.098592 0.851328 0.263271
H21   H     H_    0.985919 0.096856 0.853637 0.270119
H22   H     H_    0.855561 0.151158 0.731052 0.265515

loop_
_geom_bond_atom_site_label_1
_geom_bond_atom_site_label_2
_ccdc_geom_bond_type
C2    C4    A    
C23   C24   A    
C26   C27   S    
C6    C7    A    
C23   H13   S    
C14   H3    S    
N1    Zn2   S    
C17   H5    S    
C1    O1    A    
C14   C18   S    
C9    C20   A    
C1    C11   S    
C6    H9    S    
C4    C8    A    
O2    Zn2   S    
C18   O6    A    
O7    Zn1   S    
C2    C3    A    
C9    H1    S    
C27   H20   S    
C12   O3    A    
C3    C10   A    
C8    H10   S    
C25   H16   S    
C10   C22   A    
C22   H11   S    
C11   C13   D    
C15   H15   S    
C24   H12   S    
C10   C12   S    
C11   H4    S    
O1    Zn1   S    
C18   O5    A    
C19   C21   S    
C7    H14   S    
C16   N1    D    
C8    C21   A    
C3    C7    A    
C25   H17   S    
C13   C15   S    
C2    C24   A    
C5    C6    A    
C17   N2    D    
C13   H2    S    
C27   H21   S    
C16   C17   S    
O4    Zn2   S    
C16   H6    S    
C9    C21   A    
N2    Zn1   S    
H8    N1    S    
C26   H18   S    
C20   O9    S    
C25   C26   S    
O3    Zn1   S    
C5    C20   A    
O5    Zn1   S    
C22   C23   A    
C4    C5    A    
C27   H22   S    
O6    Zn2   S    
H7    N2    S    
C14   C15   D    
C26   H19   S    
C19   O8    A    
C1    O2    A    
C19   O7    A    
O9    C25   S    
C12   O4    A    
O8    Zn2   S    
