data_mof_unit_11225.cif
_audit_creation_date              2012-12-11T14:49:23-0500
_audit_creation_method            fapswitch 2.2
_symmetry_space_group_name_H-M    P1
_symmetry_Int_Tables_number       1
_space_group_crystal_system       triclinic
_cell_length_a                    16.894329
_cell_length_b                    16.73739
_cell_length_c                    19.438805
_cell_angle_alpha                 117.809968
_cell_angle_beta                  62.223774
_cell_angle_gamma                 100.845757
_cell_volume                      4298.57950942

loop_
_atom_site_label
_atom_site_type_symbol
_atom_type_description
_atom_site_fract_x
_atom_site_fract_y
_atom_site_fract_z
_atom_type_partial_charge
C1    C     C_R   0.041602 0.759292 0.010008 -0.138077
C2    C     C_R   0.767275 0.437200 0.240159 0.085714
C3    C     C_R   0.723288 0.548877 0.022489 0.059738
C4    C     C_R   0.961177 0.759485 0.254854 0.074287
C5    C     C_R   0.250034 0.569479 0.012491 -0.141495
C6    C     C_R   0.920605 0.261928 0.835417 -0.135886
C7    C     C_R   0.172516 0.451067 0.751258 -0.132403
C8    C     C_R   0.051276 0.307622 0.051662 -0.124326
C9    C     C_R   0.973137 0.238661 0.975164 -0.115685
C10   C     C_R   0.251718 0.520738 0.827706 -0.130991
C11   C     C_R   0.182921 0.490280 0.088202 -0.137340
C12   C     C_R   0.764139 0.418618 0.164226 -0.145100
C13   C     C_R   0.987654 0.340829 0.759474 -0.148002
C14   C     C_R   0.257019 0.540904 0.065804 0.067713
C15   C     C_R   0.938764 0.264600 0.759271 0.083600
C16   C     C_R   0.258535 0.459576 0.746038 0.074746
C17   C     C_R   0.028487 0.222464 0.003104 0.061221
C18   C     C_R   0.851336 0.132334 0.706433 -0.261518
C19   C     C_R   0.901595 0.206837 0.697529 0.114741
C20   C     C_R   0.923012 0.221025 0.625054 -0.262865
C21   C     C_R   0.907425 0.154541 0.555963 0.143263
C22   C     C_R   0.867569 0.074287 0.560794 0.027517
C23   C     C_R   0.804713 0.560453 0.961480 -0.126239
C24   C     C_R   0.835015 0.065290 0.638012 0.143704
C25   C     C_R   0.939562 0.162964 0.478944 -0.207590
C26   C     C_R   0.941681 0.088459 0.404266 -0.205319
C27   C     C_R   0.911766 0.005297 0.406391 0.143413
C28   C     C_R   0.869630 0.999500 0.485826 0.026213
C29   C     C_R   0.838957 0.916249 0.488621 0.140858
C30   C     C_R   0.797069 0.910942 0.567762 -0.204837
C31   C     C_R   0.795228 0.985321 0.642329 -0.207929
C32   C     C_R   0.932539 0.926229 0.329846 -0.256672
C33   C     C_R   0.914777 0.842004 0.332395 0.116936
C34   C     C_R   0.952578 0.672864 0.248856 -0.132850
C35   C     C_R   0.860102 0.838016 0.411557 -0.256549
C36   C     C_R   0.424510 0.435661 0.671616 -0.256952
C37   C     C_R   0.341430 0.415226 0.668231 0.115275
C38   C     C_R   0.338908 0.360906 0.588229 -0.256996
C39   C     C_R   0.417127 0.341090 0.511704 0.141279
C40   C     C_R   0.498942 0.373317 0.515689 0.026033
C41   C     C_R   0.503350 0.416531 0.595724 0.141218
C42   C     C_R   0.413364 0.297988 0.431824 -0.204870
C43   C     C_R   0.488055 0.295402 0.357529 -0.207426
C44   C     C_R   0.566897 0.335902 0.362724 0.144534
C45   C     C_R   0.738376 0.483663 0.040385 -0.126649
C46   C     C_R   0.574015 0.370762 0.441007 0.028666
C47   C     C_R   0.653066 0.411558 0.446761 0.146975
C48   C     C_R   0.659631 0.445888 0.524846 -0.210283
C49   C     C_R   0.584992 0.448304 0.599119 -0.203632
C50   C     C_R   0.635016 0.350209 0.293673 -0.260399
C51   C     C_R   0.708677 0.401213 0.302973 0.111193
C52   C     C_R   0.720538 0.425441 0.377121 -0.277135
C53   C     C_R   0.636722 0.593001 0.058105 0.131539
C54   C     C_R   0.323704 0.568722 0.100253 0.129898
C55   C     C_R   0.402596 0.538247 0.162749 -0.223776
C56   C     C_R   0.023174 0.752981 0.173858 -0.124768
C57   C     C_R   0.327002 0.529881 0.149271 -0.175000
C58   C     C_R   0.391167 0.626303 0.075477 -0.280988
C59   C     C_R   0.469251 0.630018 0.083625 0.189331
C60   C     C_R   0.476383 0.582095 0.124087 0.187857
C61   C     C_R   0.559840 0.568055 0.114777 -0.276370
C62   C     C_R   0.628162 0.650798 0.027646 -0.169477
C63   C     C_R   0.544100 0.670643 0.041815 -0.226438
C64   C     C_R   0.832586 0.181760 0.145849 0.122871
C65   C     C_R   0.963589 0.863282 0.993994 0.129598
C66   C     C_R   0.889889 0.949901 0.966780 -0.226796
C67   C     C_R   0.842585 0.487285 0.240055 -0.146725
C68   C     C_R   0.929148 0.869021 0.942991 -0.177121
C69   C     C_R   0.960922 0.941312 0.067957 -0.276206
C70   C     C_R   0.920528 0.022494 0.092931 0.188688
C71   C     C_R   0.883553 0.026404 0.042487 0.191964
C72   C     C_R   0.839381 0.106283 0.069699 -0.287522
C73   C     C_R   0.869965 0.178412 0.195169 -0.154795
C74   C     C_R   0.913820 0.099156 0.169030 -0.230223
C75   C     C_R   0.963512 0.690272 0.933830 -0.132446
C76   C     C_R   0.991566 0.774432 0.976989 0.057906
H1    H     H_    0.084017 0.807463 0.036261 0.087671
H2    H     H_    0.873255 0.219987 0.863299 0.083653
H3    H     H_    0.152119 0.408631 0.700697 0.096445
H4    H     H_    0.091694 0.321240 0.085391 0.097203
H5    H     H_    0.940877 0.188096 0.937590 0.095850
H6    H     H_    0.159484 0.468362 0.138515 0.084177
H7    H     H_    0.002027 0.372265 0.717607 0.087223
H8    H     H_    0.831349 0.121859 0.763087 0.115819
H9    H     H_    0.958624 0.279706 0.618333 0.115951
H10   H     H_    0.968795 0.225000 0.474964 0.126514
H11   H     H_    0.723123 0.369868 0.136277 0.084588
H12   H     H_    0.972618 0.094150 0.343858 0.122931
H13   H     H_    0.969779 0.930633 0.269010 0.113816
H14   H     H_    0.841145 0.773906 0.414516 0.118495
H15   H     H_    0.771840 0.847601 0.570837 0.129320
H16   H     H_    0.768461 0.978231 0.701771 0.127492
H17   H     H_    0.428150 0.473469 0.732766 0.118856
H18   H     H_    0.351198 0.271669 0.427737 0.129650
H19   H     H_    0.482291 0.267056 0.297339 0.128132
H20   H     H_    0.626157 0.327931 0.235885 0.115336
H21   H     H_    0.815974 0.602343 0.929812 0.087312
H22   H     H_    0.778327 0.461866 0.384351 0.117016
H23   H     H_    0.720557 0.476078 0.529730 0.127173
H24   H     H_    0.589555 0.480386 0.660081 0.129483
H25   H     H_    0.564625 0.528106 0.143273 0.118195
H26   H     H_    0.686038 0.675450 0.987737 0.116296
H27   H     H_    0.406772 0.502516 0.195339 0.126704
H28   H     H_    0.539074 0.709555 0.012316 0.125969
H29   H     H_    0.274670 0.487646 0.171948 0.114289
H30   H     H_    0.388410 0.660192 0.040986 0.115823
H31   H     H_    0.809933 0.110449 0.032448 0.117158
H32   H     H_    0.910464 0.651355 0.298663 0.096205
H33   H     H_    0.864403 0.237307 0.253979 0.124696
H34   H     H_    0.862519 0.951971 0.927077 0.124528
H35   H     H_    0.941575 0.097473 0.208618 0.123465
H36   H     H_    0.930754 0.810469 0.885480 0.114912
H37   H     H_    0.985949 0.937910 0.108745 0.116206
H38   H     H_    0.690958 0.456072 0.083747 0.094819
H39   H     H_    0.049138 0.808075 0.156833 0.086695
H40   H     H_    0.873614 0.501749 0.282033 0.085027
H41   H     H_    0.933108 0.675057 0.891332 0.082175
H42   H     H_    0.288259 0.620372 0.992333 0.087014
N1    N     N_R   0.036080 0.671900 0.995420 -0.037147
N2    N     N_R   0.954660 0.334720 0.880230 -0.039026
N3    N     N_R   0.116260 0.502360 0.832930 -0.041909
N4    N     N_R   0.012950 0.371090 0.051890 -0.041569
N5    N     N_R   0.963920 0.328100 0.004580 -0.042475
N6    N     N_R   0.165290 0.545350 0.880240 -0.041665
N7    N     N_R   0.132570 0.490700 0.051900 -0.037866
N8    N     N_R   0.996640 0.382750 0.832930 -0.038718
N9    N     N_R   0.834710 0.454650 0.119760 -0.037702
N10   N     N_R   0.867430 0.509300 0.948100 -0.039126
N11   N     N_R   0.003360 0.617250 0.167070 -0.040976
N12   N     N_R   0.825450 0.461270 0.995400 -0.040809
N13   N     N_R   0.045340 0.665280 0.119770 -0.039765
N14   N     N_R   0.883740 0.497640 0.167070 -0.037704
N15   N     N_R   0.987050 0.628910 0.948110 -0.037434
N16   N     N_R   0.174550 0.538730 0.004600 -0.038616
Ni1   Ni    Ni4+2 0.104370 0.604370 0.000010 0.213420
Ni2   Ni    Ni4+2 0.895630 0.395630 0.999990 0.208493
Ni3   Ni    Ni4+2 0.991920 0.505780 0.891500 0.212550
Ni4   Ni    Ni4+2 0.008080 0.494220 0.108500 0.209466
H43   H     H_    0.304698 0.543003 0.847956 0.095862
H44   H     H_    0.275862 0.340601 0.584438 0.118609

loop_
_geom_bond_atom_site_label_1
_geom_bond_atom_site_label_2
_ccdc_geom_bond_type
N7    N16   A    
C66   C68   A    
N8    Ni3   S    
N15   Ni3   S    
C62   H26   S    
C1    H1    S    
C73   C74   A    
C57   H29   S    
C19   C20   A    
C75   H41   S    
C75   C76   A    
C2    C12   A    
C8    N4    A    
C12   N9    A    
C40   C46   A    
C69   H37   S    
C26   C27   A    
C62   C63   A    
C65   C76   S    
C18   C24   A    
C28   C29   A    
C11   N7    A    
N13   Ni1   S    
C1    N1    A    
C38   C39   A    
C11   C14   A    
N2    N8    A    
C6    H2    S    
N14   Ni4   S    
C55   H27   S    
C18   C19   A    
C68   H36   S    
N3    Ni3   S    
C3    C23   A    
N9    N14   A    
N3    N6    A    
C33   C35   A    
C6    C15   A    
C15   C19   S    
C53   C61   A    
C36   H17   S    
C41   C49   A    
N11   Ni4   S    
C47   C48   A    
C34   N11   A    
C70   C74   A    
C43   H19   S    
C64   C73   A    
C70   C71   A    
C29   C30   A    
N6    Ni1   S    
C16   C37   S    
C67   N14   A    
C45   N12   A    
C22   C28   A    
C21   C22   A    
C4    C56   A    
C36   C41   A    
C7    N3    A    
C45   H38   S    
C6    N2    A    
C44   C46   A    
C39   C42   A    
C11   H6    S    
C5    N16   A    
C4    C34   A    
C51   C52   A    
C56   N13   A    
N9    Ni2   S    
N4    Ni4   S    
C2    C67   A    
C39   C40   A    
C30   H15   S    
C58   C59   A    
C3    C45   A    
N1    Ni1   S    
C60   C61   A    
C58   H30   S    
C61   H25   S    
C67   H40   S    
C37   C38   A    
C53   C62   A    
C18   H8    S    
C66   C71   A    
C72   H31   S    
C65   C68   A    
C20   H9    S    
C50   C51   A    
N1    N15   A    
C66   H34   S    
C5    C14   A    
C47   C52   A    
N10   Ni3   S    
C13   N8    A    
C9    C17   A    
C48   C49   A    
C14   C54   S    
C13   C15   A    
C32   H13   S    
C26   H12   S    
C22   C24   A    
C10   H43   S    
C74   H35   S    
C7    H3    S    
C54   C58   A    
C44   C50   A    
C48   H23   S    
C21   C25   A    
C4    C33   S    
C7    C16   A    
C12   H11   S    
C23   H21   S    
C27   C32   A    
C42   H18   S    
C1    C76   A    
C59   C63   A    
N12   Ni2   S    
C63   H28   S    
N10   N12   A    
C75   N15   A    
C73   H33   S    
N16   Ni1   S    
N7    Ni4   S    
C29   C35   A    
C10   N6    A    
C8    C17   A    
N5    Ni2   S    
C34   H32   S    
C32   C33   A    
C55   C57   A    
C25   C26   A    
C24   C31   A    
C71   C72   A    
C10   C16   A    
C49   H24   S    
C3    C53   S    
C50   H20   S    
C30   C31   A    
C43   C44   A    
C65   C69   A    
C52   H22   S    
C25   H10   S    
C9    N5    A    
C56   H39   S    
C64   C72   A    
C69   C70   A    
C46   C47   A    
C2    C51   S    
C35   H14   S    
C5    H42   S    
C59   C60   A    
C20   C21   A    
C36   C37   A    
C31   H16   S    
C42   C43   A    
C27   C28   A    
C8    H4    S    
C38   H44   S    
C40   C41   A    
N2    Ni2   S    
N4    N5    A    
C55   C60   A    
C13   H7    S    
C9    H5    S    
C23   N10   A    
N11   N13   A    
C54   C57   A    
