data_mof_unit_62021.cif
_audit_creation_date              2012-10-26T21:18:53-0400
_audit_creation_method            fapswitch 2.2
_symmetry_space_group_name_H-M    P1
_symmetry_Int_Tables_number       1
_space_group_crystal_system       triclinic
_cell_length_a                    15.817847
_cell_length_b                    15.895399
_cell_length_c                    17.123156
_cell_angle_alpha                 90.788771
_cell_angle_beta                  95.641401
_cell_angle_gamma                 91.858774
_cell_volume                      4281.56331885

loop_
_atom_site_label
_atom_site_type_symbol
_atom_type_description
_atom_site_fract_x
_atom_site_fract_y
_atom_site_fract_z
_atom_type_partial_charge
Br1   Br    Br    0.637161 0.615180 0.275693 -0.427268
Br2   Br    Br    0.687496 0.597732 0.918482 -0.389514
Br3   Br    Br    0.911139 0.645801 0.634818 -0.403785
Br4   Br    Br    0.299849 0.620149 0.611948 -0.423355
Br5   Br    Br    0.318264 0.090402 0.517804 -0.485767
Br6   Br    Br    0.552514 0.093483 0.336947 -0.462349
C1    C     C_R   0.509846 0.499127 0.651295 0.557857
C2    C     C_R   0.449038 0.461030 0.777113 -0.048347
C3    C     C_R   0.454637 0.465230 0.858762 -0.110437
C4    C     C_R   0.499512 0.659861 0.500016 0.574971
C5    C     C_R   0.524852 0.506467 0.902092 0.232092
C6    C     C_R   0.590281 0.541841 0.862360 0.183387
C7    C     C_R   0.585021 0.537783 0.780746 -0.122280
C8    C     C_R   0.542496 0.539675 0.141724 -0.033059
C9    C     C_R   0.547372 0.544583 0.223280 0.129115
C10   C     C_R   0.476242 0.492294 0.098748 0.198977
C11   C     C_R   0.485552 0.501374 0.263064 0.018973
C12   C     C_3   0.587938 0.050665 0.538403 -0.118666
C13   C     C_R   0.418423 0.456300 0.219912 -0.164164
C14   C     C_R   0.413989 0.451900 0.138446 -0.099660
C15   C     C_R   0.244295 0.540219 0.537617 0.292159
C16   C     C_R   0.490148 0.501245 0.348803 0.571463
C17   C     C_R   0.155240 0.535479 0.533430 -0.059424
C18   C     C_R   0.108188 0.478995 0.480657 0.186856
C19   C     C_R   0.153902 0.428236 0.433107 -0.124265
C20   C     C_R   0.243441 0.434555 0.438799 0.020912
C21   C     C_R   0.840242 0.459177 0.462481 -0.122973
C22   C     C_R   0.751249 0.457957 0.461427 0.043101
C23   C     C_3   0.501491 0.082852 0.499047 0.050206
C24   C     C_R   0.890582 0.514894 0.513897 0.230487
C25   C     C_R   0.759154 0.564584 0.559744 0.066920
C26   C     C_R   0.848421 0.567985 0.562902 0.153479
C27   C     C_R   0.500492 0.340154 0.499978 0.549384
C28   C     C_3   0.586946 0.952796 0.536510 -0.224486
C29   C     C_3   0.428719 0.950106 0.546968 -0.196519
C30   C     C_3   0.431174 0.047943 0.549221 0.004832
C31   C     C_1   0.501530 0.250670 0.499876 0.040146
C32   C     C_3   0.499679 0.916938 0.499510 -0.020303
C33   C     C_1   0.663276 0.085956 0.504234 0.256861
C34   C     C_3   0.481617 0.045890 0.413738 0.054196
C35   C     C_1   0.376736 0.415682 0.736340 0.258618
C36   C     C_3   0.485212 0.948527 0.414252 -0.190095
C37   C     C_1   0.501726 0.175218 0.499603 0.025012
C38   C     C_1   0.498614 0.824841 0.499717 -0.040858
C39   C     C_1   0.498514 0.749375 0.499865 0.026963
C40   C     C_R   0.514314 0.498665 0.737336 -0.028955
Cu1   Cu    Cu3+1 0.584780 0.504030 0.503820 1.011567
Cu2   Cu    Cu3+1 0.415220 0.495970 0.496180 1.045474
H1    H     H_    0.595236 0.071917 0.601013 0.100579
H2    H     H_    0.713203 0.415023 0.421733 0.158534
H3    H     H_    0.868915 0.416904 0.423430 0.151216
H4    H     H_    0.120352 0.383817 0.391634 0.139420
H5    H     H_    0.277384 0.394861 0.401609 0.142248
H6    H     H_    0.727307 0.605517 0.597573 0.153305
H7    H     H_    0.123513 0.576204 0.571604 0.187964
H8    H     H_    0.365877 0.925090 0.520076 0.190775
H9    H     H_    0.437126 0.926425 0.608027 0.139289
H10   H     H_    0.446585 0.069657 0.611238 0.150304
H11   H     H_    0.537202 0.926954 0.380334 0.186935
H12   H     H_    0.638133 0.928669 0.502760 0.162271
H13   H     H_    0.424626 0.920647 0.384860 0.138441
H14   H     H_    0.416153 0.062614 0.391095 0.191088
H15   H     H_    0.590361 0.573486 0.112282 0.198810
H16   H     H_    0.635712 0.566805 0.751185 0.167296
H17   H     H_    0.370153 0.422984 0.249345 0.140201
H18   H     H_    0.403899 0.436086 0.888219 0.157617
H19   H     H_    0.362348 0.415977 0.106027 0.148217
H20   H     H_    0.599606 0.929600 0.597471 0.133586
N1    N     N_2   0.531786 0.513843 0.985153 -0.185641
N2    N     N_2   0.469260 0.484311 0.015842 -0.237319
N3    N     N_R   0.287860 0.489910 0.490440 -0.221326
N4    N     N_2   0.016649 0.471647 0.473863 -0.220074
N5    N     N_2   0.981938 0.519999 0.518629 -0.178433
N6    N     N_R   0.712150 0.510100 0.509550 -0.248241
N7    N     N_1   0.722574 0.113660 0.477858 -0.208161
N8    N     N_1   0.318837 0.379375 0.703741 -0.224804
O1    O     O_R   0.579470 0.503770 0.617500 -0.517992
O2    O     O_R   0.436280 0.496960 0.611050 -0.451795
O3    O     O_R   0.571630 0.623970 0.503220 -0.490976
O4    O     O_R   0.428430 0.617160 0.496770 -0.458834
O5    O     O_R   0.563720 0.503040 0.388950 -0.461851
O6    O     O_R   0.420530 0.496230 0.382500 -0.522210
O7    O     O_R   0.571570 0.382840 0.503230 -0.505689
O8    O     O_R   0.428370 0.376030 0.496780 -0.492232

loop_
_geom_bond_atom_site_label_1
_geom_bond_atom_site_label_2
_ccdc_geom_bond_type
C14   H19   S    
C13   C14   A    
Cu1   O3    S    
C22   N6    A    
C23   C30   S    
C15   N3    A    
C16   O6    A    
C32   C36   S    
C30   H10   S    
C7    C40   A    
Br5   C30   S    
C34   H14   S    
Cu2   O2    S    
C3    H18   S    
C22   H2    S    
C25   C26   A    
C2    C3    A    
C17   C18   A    
Br1   C9    S    
C33   N7    T    
C1    O1    A    
C34   C36   S    
Br2   C6    S    
C23   C37   S    
C21   C24   A    
C28   H12   S    
C20   N3    A    
N1    N2    D    
C21   H3    S    
C12   C28   S    
C16   O5    A    
C29   C32   S    
C10   N2    S    
C18   C19   A    
C28   H20   S    
C24   N5    S    
C4    O4    A    
C25   N6    A    
C19   C20   A    
C27   C31   S    
Cu2   O8    S    
C29   C30   S    
C31   C37   T    
C12   C33   S    
C1    C40   S    
C32   C38   S    
C27   O7    A    
Cu1   Cu2   S    
C10   C14   A    
C4    C39   S    
C12   C23   S    
C2    C35   S    
C3    C5    A    
C36   H13   S    
C1    O2    A    
Cu1   O7    S    
C15   C17   A    
Br6   C34   S    
Cu1   O1    S    
Cu2   N3    S    
C20   H5    S    
C38   C39   T    
C18   N4    S    
C9    C11   A    
C29   H8    S    
C28   C32   S    
Cu1   N6    S    
N4    N5    D    
C36   H11   S    
C4    O3    A    
C5    N1    S    
C17   H7    S    
C11   C16   S    
C29   H9    S    
Cu2   O4    S    
C19   H4    S    
C35   N8    T    
C24   C26   A    
Br4   C15   S    
C7    H16   S    
C8    H15   S    
C23   C34   S    
C11   C13   A    
Cu2   O6    S    
C13   H17   S    
C8    C10   A    
Cu1   O5    S    
C25   H6    S    
Br3   C26   S    
C27   O8    A    
C2    C40   A    
C6    C7    A    
C12   H1    S    
C21   C22   A    
C8    C9    A    
C5    C6    A    
