data_mof_unit_21253.cif
_audit_creation_date              2012-12-11T15:31:38-0500
_audit_creation_method            fapswitch 2.2
_symmetry_space_group_name_H-M    P1
_symmetry_Int_Tables_number       1
_space_group_crystal_system       triclinic
_cell_length_a                    13.569018
_cell_length_b                    13.588093
_cell_length_c                    27.685476
_cell_angle_alpha                 90.362447
_cell_angle_beta                  90.197479
_cell_angle_gamma                 119.957524
_cell_volume                      4422.35873575

loop_
_atom_site_label
_atom_site_type_symbol
_atom_type_description
_atom_site_fract_x
_atom_site_fract_y
_atom_site_fract_z
_atom_type_partial_charge
C1    C     C_R   0.619460 0.898448 0.431248 0.545950
C2    C     C_R   0.276302 0.893208 0.257383 -0.100714
C3    C     C_R   0.257199 0.883822 0.207432 -0.103558
C4    C     C_R   0.599688 0.218472 0.431283 0.545588
C5    C     C_R   0.053705 0.784422 0.221218 -0.100891
C6    C     C_R   0.072805 0.793699 0.271165 -0.103863
C7    C     C_R   0.184207 0.847683 0.289370 0.041936
C8    C     C_R   0.145781 0.828951 0.189225 0.041940
C9    C     C_1   0.124085 0.813756 0.137965 -0.054088
C10   C     C_1   0.205736 0.854409 0.340624 -0.054921
C11   C     C_1   0.096812 0.794372 0.095949 -0.009858
C12   C     C_R   0.630986 0.234766 0.208672 -0.103516
C13   C     C_1   0.634536 0.866103 0.383600 -0.011196
C14   C     C_R   0.701195 0.771796 0.272756 -0.103840
C15   C     C_R   0.708757 0.759820 0.222883 -0.100907
C16   C     C_R   0.279548 0.878891 0.430522 0.545282
C17   C     C_R   0.608206 0.862626 0.208272 -0.103482
C18   C     C_R   0.600546 0.874501 0.258139 -0.100744
C19   C     C_R   0.647464 0.829619 0.290503 0.041912
C20   C     C_R   0.662748 0.805611 0.190517 0.041969
C21   C     C_1   0.675803 0.796667 0.139322 -0.054229
C22   C     C_1   0.642141 0.846325 0.341665 -0.054922
C23   C     C_R   0.620298 0.217275 0.258561 -0.100717
C24   C     C_1   0.693101 0.786902 0.097330 -0.009946
C25   C     C_R   0.634170 0.266149 0.617760 0.025658
C26   C     C_R   0.700673 0.232718 0.644387 -0.124876
C27   C     C_R   0.706900 0.243533 0.693970 -0.124345
C28   C     C_R   0.620394 0.900905 0.569081 0.540775
C29   C     C_R   0.651429 0.293040 0.717714 0.039109
C30   C     C_R   0.592155 0.334778 0.690858 -0.119332
C31   C     C_R   0.582172 0.319882 0.641008 -0.131584
C32   C     C_R   0.565334 0.292160 0.796739 -0.127534
C33   C     C_R   0.578733 0.321302 0.845305 -0.141369
C34   C     C_R   0.666005 0.310272 0.290655 0.041947
C35   C     C_R   0.772898 0.355610 0.843073 -0.018941
C36   C     C_R   0.759587 0.329683 0.794150 -0.125071
C37   C     C_R   0.658051 0.303403 0.770327 0.023234
C38   C     C_R   0.684780 0.361120 0.868088 0.007719
C39   C     C_R   0.225273 0.864225 0.615240 0.023741
C40   C     C_R   0.600913 0.221197 0.569002 0.540240
C41   C     C_R   0.245108 0.959312 0.643014 -0.125754
C42   C     C_R   0.219615 0.947769 0.691847 -0.121388
C43   C     C_R   0.171949 0.840715 0.713386 0.035757
C44   C     C_R   0.143868 0.744378 0.684796 -0.119252
C45   C     C_R   0.687673 0.345455 0.190665 0.041996
C46   C     C_R   0.171059 0.756146 0.636024 -0.127372
C47   C     C_R   0.175128 0.754393 0.792031 -0.117747
C48   C     C_R   0.147301 0.735992 0.840682 -0.120330
C49   C     C_R   0.085969 0.875846 0.838197 -0.126014
C50   C     C_R   0.112188 0.892944 0.789500 -0.121725
C51   C     C_R   0.153666 0.829836 0.765726 0.034848
C52   C     C_R   0.279990 0.881675 0.568276 0.541654
C53   C     C_R   0.098892 0.793831 0.863634 0.020522
C54   C     C_R   0.638167 0.863142 0.616060 0.022431
C55   C     C_R   0.545633 0.771862 0.638904 -0.124692
C56   C     C_1   0.694335 0.365376 0.139463 -0.054184
C57   C     C_R   0.551398 0.752650 0.687694 -0.121698
C58   C     C_R   0.650505 0.822926 0.714228 0.036446
C59   C     C_R   0.746253 0.908322 0.690553 -0.122033
C60   C     C_R   0.739974 0.928723 0.641784 -0.132023
C61   C     C_R   0.710077 0.904133 0.797114 -0.118756
C62   C     C_R   0.723235 0.890402 0.845982 -0.125974
C63   C     C_R   0.613009 0.685757 0.835373 -0.125746
C64   C     C_1   0.631046 0.264402 0.383692 -0.011219
C65   C     C_R   0.601609 0.699435 0.786414 -0.121870
C66   C     C_R   0.653259 0.808641 0.766646 0.034825
C67   C     C_1   0.650152 0.290304 0.341784 -0.054978
C68   C     C_R   0.678151 0.781054 0.864993 0.023661
C69   C     C_R   0.049241 0.761078 0.048262 0.543090
C70   C     C_R   0.714333 0.435811 0.049740 0.543196
C71   C     C_R   0.723606 0.770695 0.049568 0.545526
C72   C     C_R   0.043992 0.755927 0.910520 0.540283
C73   C     C_R   0.707318 0.426794 0.912998 0.537915
C74   C     C_R   0.717099 0.765189 0.911958 0.540762
C75   C     C_R   0.723670 0.420958 0.272664 -0.103875
C76   C     C_R   0.734468 0.438452 0.222769 -0.100874
C77   C     C_1   0.880420 0.382441 0.865071 0.212270
C78   C     C_1   0.701683 0.390849 0.097462 -0.009695
C79   C     C_1   0.232649 0.862962 0.382677 -0.011154
Cr1   Cr    Cr6+3 0.417720 0.831920 0.499820 1.023998
Cr2   Cr    Cr6+3 0.668190 0.085770 0.500360 1.023370
Cr3   Cr    Cr6+3 0.414060 0.082260 0.499840 1.025398
Cr4   Cr    Cr6+3 0.908000 0.821090 0.979770 1.028199
Cr5   Cr    Cr6+3 0.912420 0.571130 0.979880 1.058520
Cr6   Cr    Cr6+3 0.657970 0.566940 0.980940 1.027611
H1    H     H_    0.759050 0.493438 0.297065 0.103591
H2    H     H_    0.551649 0.376632 0.708422 0.101904
H3    H     H_    0.778019 0.524495 0.209192 0.098660
H4    H     H_    0.530344 0.345836 0.620994 0.121891
H5    H     H_    0.287914 0.043936 0.627972 0.135165
H6    H     H_    0.210495 0.707388 0.774676 0.107880
H7    H     H_    0.158749 0.672912 0.859672 0.145709
H8    H     H_    0.242521 0.023408 0.713148 0.102370
H9    H     H_    0.094578 0.951362 0.769996 0.103151
H10   H     H_    0.048293 0.921404 0.854938 0.136245
H11   H     H_    0.103762 0.660413 0.700428 0.107053
H12   H     H_    0.751540 0.715897 0.209537 0.098465
H13   H     H_    0.154498 0.681652 0.615156 0.125254
H14   H     H_    0.465819 0.719780 0.620011 0.132028
H15   H     H_    0.593987 0.162298 0.184260 0.103996
H16   H     H_    0.747384 0.989321 0.782892 0.105074
H17   H     H_    0.773265 0.964948 0.868376 0.129176
H18   H     H_    0.476321 0.686394 0.705067 0.101468
H19   H     H_    0.557719 0.624402 0.763698 0.101725
H20   H     H_    0.578468 0.600385 0.849121 0.134127
H21   H     H_    0.824951 0.961300 0.710035 0.102447
H22   H     H_    0.812704 0.999149 0.624928 0.124844
H23   H     H_    0.572748 0.898764 0.183683 0.103995
H24   H     H_    0.575249 0.131247 0.272119 0.098577
H25   H     H_    0.362883 0.934890 0.271079 0.098447
H26   H     H_    0.329005 0.918121 0.183137 0.103989
H27   H     H_    0.967105 0.741364 0.207519 0.098576
H28   H     H_    0.000974 0.757893 0.295455 0.103374
H29   H     H_    0.738038 0.737032 0.297342 0.103582
H30   H     H_    0.559026 0.919672 0.271477 0.098342
H31   H     H_    0.740466 0.189269 0.627550 0.138859
H32   H     H_    0.484296 0.266419 0.779360 0.105323
H33   H     H_    0.508297 0.320392 0.864011 0.134870
H34   H     H_    0.751517 0.208864 0.713695 0.100986
H35   H     H_    0.831436 0.336694 0.774245 0.101904
N1    N     N_1   0.966579 0.403786 0.882513 -0.302036
O1    O     O_R   0.302900 0.805360 0.446400 -0.504580
O2    O     O_R   0.638120 0.455970 0.034270 -0.504817
O3    O     O_R   0.667540 0.672320 0.030160 -0.492858
O4    O     O_R   0.522090 0.841370 0.450730 -0.493342
O5    O     O_R   0.814460 0.840990 0.926980 -0.517948
O6    O     O_R   0.001710 0.811400 0.930110 -0.507005
O7    O     O_R   0.023410 0.659800 0.926210 -0.499036
O8    O     O_R   0.806940 0.473170 0.931090 -0.483148
O9    O     O_R   0.633420 0.451310 0.927930 -0.525506
O10   O     O_R   0.663190 0.668000 0.931580 -0.503005
O11   O     O_3   0.826130 0.653050 0.980200 -0.252613
O12   O     O_R   0.657980 0.180990 0.549630 -0.507701
O13   O     O_R   0.693280 0.995650 0.447220 -0.503713
O14   O     O_R   0.657260 0.178740 0.451050 -0.492793
O15   O     O_R   0.502640 0.195380 0.446850 -0.504265
O16   O     O_R   0.319630 0.976590 0.450330 -0.493013
O17   O     O_R   0.303680 0.807790 0.552740 -0.519812
O18   O     O_R   0.522820 0.843620 0.549310 -0.504092
O19   O     O_R   0.694060 0.998080 0.553560 -0.523815
O20   O     O_R   0.503420 0.197810 0.553190 -0.519467
O21   O     O_R   0.320350 0.978840 0.548910 -0.504523
O22   O     O_3   0.499990 0.999990 0.500010 -0.246982
O23   O     O_R   0.819150 0.845650 0.033320 -0.503594
O24   O     O_R   0.006060 0.815720 0.028680 -0.494198
O25   O     O_R   0.028100 0.664460 0.032550 -0.502835
O26   O     O_R   0.811290 0.477490 0.029660 -0.492825

loop_
_geom_bond_atom_site_label_1
_geom_bond_atom_site_label_2
_ccdc_geom_bond_type
C25   C31   A    
Cr2   O19   S    
C63   C65   A    
Cr5   O7    S    
C70   C78   S    
C42   H8    S    
C69   O24   A    
C41   C42   A    
C54   C55   A    
C16   O16   A    
C28   O19   A    
C32   H32   S    
Cr3   O21   S    
Cr2   O13   S    
C39   C41   A    
C54   C60   A    
C12   C23   A    
C26   C27   A    
C72   O7    A    
C45   C76   A    
C36   C37   A    
C1    O4    A    
Cr3   O16   S    
C25   C40   S    
C30   C31   A    
Cr1   O17   S    
C27   C29   A    
Cr1   O4    S    
C68   C74   S    
Cr5   O8    S    
C17   C20   A    
C56   C78   T    
Cr6   O3    S    
C18   C19   A    
C7    C10   S    
C49   C50   A    
C16   O1    A    
Cr4   O24   S    
C61   C66   A    
C58   C66   S    
C2    C7    A    
C45   C56   S    
C3    H26   S    
C8    C9    S    
C31   H4    S    
C52   O17   A    
C63   H20   S    
C76   H3    S    
C34   C75   A    
C4    O15   A    
C23   C34   A    
C39   C52   S    
C46   H13   S    
C59   C60   A    
C74   O10   A    
C69   O25   A    
C15   C20   A    
C28   O18   A    
C15   H12   S    
Cr3   O20   S    
C23   H24   S    
C70   O2    A    
C44   C46   A    
Cr2   O14   S    
C48   C53   A    
C57   H18   S    
C73   O8    A    
C59   H21   S    
C72   O6    A    
C64   C67   T    
C71   O3    A    
C35   C38   A    
C3    C8    A    
C17   H23   S    
C28   C54   S    
C50   H9    S    
Cr1   O1    S    
C50   C51   A    
C58   C59   A    
C14   H29   S    
Cr5   O11   S    
C52   O21   A    
C35   C36   A    
C34   C67   S    
C61   H16   S    
C75   C76   A    
C6    H28   S    
C29   C30   A    
C44   H11   S    
Cr6   O9    S    
C75   H1    S    
C47   C48   A    
Cr2   O22   S    
Cr1   O22   S    
C19   C22   S    
C17   C18   A    
C32   C37   A    
C49   H10   S    
C9    C11   T    
C60   H22   S    
C4    O14   A    
C74   O5    A    
C27   H34   S    
C39   C46   A    
C43   C44   A    
C1    C13   S    
C42   C43   A    
Cr4   O5    S    
C29   C37   S    
C1    O13   A    
Cr5   O26   S    
C4    C64   S    
C73   O9    A    
C2    H25   S    
C47   H6    S    
C14   C19   A    
Cr4   O6    S    
Cr3   O22   S    
C18   H30   S    
C5    C8    A    
C47   C51   A    
C10   C79   T    
C11   C69   S    
Cr2   O12   S    
C6    C7    A    
C12   C45   A    
C5    H27   S    
Cr5   O25   S    
Cr1   O18   S    
C40   O12   A    
C63   C68   A    
C33   C38   A    
C62   C68   A    
C16   C79   S    
C32   C33   A    
C55   C57   A    
C2    C3    A    
C25   C26   A    
Cr4   O11   S    
Cr6   O11   S    
Cr4   O23   S    
Cr6   O10   S    
C43   C51   S    
C57   C58   A    
C5    C6    A    
C49   C53   A    
C35   C77   S    
C13   C22   T    
Cr6   O2    S    
Cr3   O15   S    
C61   C62   A    
C36   H35   S    
C26   H31   S    
C12   H15   S    
C77   N1    T    
C33   H33   S    
C20   C21   S    
C65   C66   A    
C48   H7    S    
C21   C24   T    
C55   H14   S    
C14   C15   A    
C70   O26   A    
C65   H19   S    
C30   H2    S    
C40   O20   A    
C53   C72   S    
C24   C71   S    
C41   H5    S    
C71   O23   A    
C62   H17   S    
C38   C73   S    
