data_mof_unit_54511.cif
_audit_creation_date              2012-12-11T15:11:00-0500
_audit_creation_method            fapswitch 2.2
_symmetry_space_group_name_H-M    P1
_symmetry_Int_Tables_number       1
_space_group_crystal_system       triclinic
_cell_length_a                    13.536764
_cell_length_b                    13.580905
_cell_length_c                    28.336956
_cell_angle_alpha                 90.282072
_cell_angle_beta                  89.575195
_cell_angle_gamma                 120.111736
_cell_volume                      4506.35035388

loop_
_atom_site_label
_atom_site_type_symbol
_atom_type_description
_atom_site_fract_x
_atom_site_fract_y
_atom_site_fract_z
_atom_type_partial_charge
C1    C     C_R   0.545272 0.433081 0.183764 0.543689
C2    C     C_3   0.864284 0.477379 0.545390 -0.082215
C3    C     C_3   0.263372 0.357583 0.952319 -0.276088
C4    C     C_3   0.219783 0.271823 0.911308 -0.301693
C5    C     C_3   0.109189 0.257941 0.891169 -0.438697
C6    C     C_R   0.683415 0.075759 0.563521 0.028130
C7    C     C_R   0.713093 0.153464 0.601325 -0.104552
C8    C     C_R   0.806519 0.179592 0.630109 -0.106781
C9    C     C_R   0.872488 0.128826 0.621715 -0.104398
C10   C     C_R   0.844542 0.051465 0.584702 -0.117878
C11   C     C_R   0.750696 0.024754 0.556022 -0.087938
C12   C     C_R   0.836440 0.549547 0.578774 0.022448
C13   C     C_3   0.579057 0.048869 0.533184 -0.084914
C14   C     C_R   0.770060 0.498314 0.619523 -0.103978
C15   C     C_R   0.743341 0.560892 0.651154 -0.101739
C16   C     C_R   0.784470 0.676350 0.643285 -0.097687
C17   C     C_R   0.853258 0.729463 0.604005 -0.123118
C18   C     C_R   0.879182 0.666755 0.572041 -0.099947
C19   C     C_R   0.422220 0.284747 0.563577 0.029752
C20   C     C_R   0.481260 0.246571 0.591930 -0.113876
C21   C     C_R   0.422976 0.152549 0.621699 -0.118740
C22   C     C_R   0.304074 0.094024 0.623474 -0.106788
C23   C     C_R   0.243638 0.129639 0.595491 -0.118464
C24   C     C_3   0.491787 0.391846 0.533308 -0.084328
C25   C     C_R   0.301958 0.224224 0.565959 -0.085045
C26   C     C_R   0.083279 0.677317 0.435803 0.028944
C27   C     C_R   0.161337 0.702092 0.398294 -0.105390
C28   C     C_R   0.192569 0.795372 0.368741 -0.108077
C29   C     C_R   0.145976 0.865458 0.375891 -0.102577
C30   C     C_R   0.068174 0.842197 0.412611 -0.118189
C31   C     C_R   0.036927 0.748955 0.442260 -0.089554
C32   C     C_R   0.545558 0.836177 0.420173 0.023974
C33   C     C_R   0.492779 0.773973 0.378922 -0.107818
C34   C     C_R   0.553041 0.746168 0.346386 -0.104796
C35   C     C_1   0.441958 0.866074 0.629450 -0.016817
C36   C     C_R   0.668067 0.782620 0.353766 -0.095297
C37   C     C_R   0.723063 0.847906 0.393442 -0.123508
C38   C     C_R   0.662472 0.874636 0.426326 -0.100459
C39   C     C_R   0.280897 0.422400 0.437510 0.028415
C40   C     C_R   0.253720 0.471705 0.399852 -0.112709
C41   C     C_R   0.156989 0.407255 0.372200 -0.112841
C42   C     C_R   0.086057 0.291600 0.381288 -0.106910
C43   C     C_R   0.111649 0.240695 0.418200 -0.124246
C44   C     C_R   0.208085 0.305368 0.446051 -0.093529
C45   C     C_1   0.057981 0.530989 0.638899 -0.015871
C46   C     C_1   0.462777 0.526612 0.637321 -0.011591
C47   C     C_1   0.867019 0.441531 0.370578 -0.014243
C48   C     C_1   0.531665 0.059782 0.361491 -0.015026
C49   C     C_1   0.524057 0.462386 0.362275 -0.012672
C50   C     C_3   0.497456 0.989670 0.450251 0.059121
C51   C     C_R   0.566895 0.111680 0.183806 0.544711
C52   C     C_3   0.927269 0.468917 0.460886 0.058417
C53   C     C_3   0.493230 0.480231 0.453702 0.060795
C54   C     C_3   0.987181 0.495009 0.550216 0.058973
C55   C     C_3   0.471115 0.927631 0.539305 0.058938
C56   C     C_3   0.479445 0.497676 0.545680 0.059879
C57   C     C_3   0.366536 0.935841 0.521849 -0.247379
C58   C     C_3   0.983570 0.386924 0.529393 -0.248089
C59   C     C_3   0.587222 0.603749 0.525835 -0.251228
C60   C     C_3   0.930272 0.362514 0.479315 -0.247767
C61   C     C_3   0.391514 0.989770 0.471899 -0.247977
C62   C     C_R   0.888913 0.455331 0.184031 0.552856
C63   C     C_3   0.602484 0.585707 0.472973 -0.250894
C64   C     C_1   0.453686 0.892593 0.588705 -0.062364
C65   C     C_1   0.023060 0.510445 0.599381 -0.058426
C66   C     C_1   0.473877 0.512168 0.596444 -0.046345
C67   C     C_1   0.893206 0.452274 0.411351 -0.059645
C68   C     C_1   0.512276 0.025955 0.401181 -0.057587
C69   C     C_1   0.508008 0.473586 0.402976 -0.047715
C70   C     C_R   0.543694 0.433611 0.316466 0.533702
C71   C     C_R   0.566001 0.111155 0.316590 0.537848
C72   C     C_R   0.834962 0.431532 0.322403 0.559412
C73   C     C_R   0.433993 0.544185 0.815661 0.543197
C74   C     C_R   0.433892 0.544281 0.683428 0.533313
C75   C     C_R   0.111060 0.566132 0.683478 0.536961
C76   C     C_R   0.431348 0.834291 0.677652 0.561177
C77   C     C_3   0.544896 0.132737 0.019402 -0.219844
C78   C     C_3   0.870020 0.413396 0.020372 -0.221954
C79   C     C_3   0.596623 0.463340 0.018403 -0.221153
C80   C     C_3   0.100015 0.500471 0.977014 -0.226583
C81   C     C_3   0.399302 0.905679 0.976921 -0.225193
C82   C     C_3   0.499998 0.596703 0.977180 -0.227417
C83   C     C_3   0.404282 0.925314 0.030744 -0.233147
C84   C     C_R   0.110040 0.566076 0.815680 0.543022
C85   C     C_3   0.078580 0.481807 0.030705 -0.235091
C86   C     C_3   0.518990 0.594546 0.030774 -0.235570
C87   C     C_3   0.889152 0.411437 0.966417 -0.236557
C88   C     C_3   0.528378 0.114967 0.965336 -0.235840
C89   C     C_3   0.593438 0.479933 0.964384 -0.234365
C90   C     C_1   0.477240 0.944843 0.860510 -0.045503
C91   C     C_1   0.056317 0.534292 0.860977 -0.042593
C92   C     C_1   0.466119 0.521822 0.860632 -0.045990
C93   C     C_1   0.936994 0.474451 0.137778 -0.033580
C94   C     C_1   0.538960 0.065135 0.137263 -0.035904
C95   C     C_R   0.455854 0.890340 0.815519 0.553198
C96   C     C_1   0.528678 0.461462 0.137148 -0.035406
C97   C     C_3   0.524191 0.022295 0.044672 0.068905
C98   C     C_3   0.980992 0.503473 0.045499 0.073564
C99   C     C_3   0.502910 0.477583 0.044655 0.073126
C100  C     C_3   0.005726 0.515442 0.952775 0.074845
C101  C     C_3   0.510369 0.996565 0.952022 0.072837
C102  C     C_3   0.487073 0.489015 0.952056 0.073909
C103  C     C_3   0.616405 0.990691 0.970922 -0.061485
C104  C     C_3   0.006455 0.624538 0.972516 -0.072849
C105  C     C_3   0.379703 0.379178 0.971951 -0.071328
C106  C     C_3   0.475650 0.865607 0.454369 -0.083057
C107  C     C_3   0.013744 0.625765 0.027982 -0.076361
C108  C     C_3   0.613687 0.988612 0.026675 -0.075912
C109  C     C_3   0.381110 0.384079 0.027515 -0.074462
C110  C     C_1   0.494680 0.976601 0.900856 -0.081493
C111  C     C_1   0.025277 0.520318 0.901502 -0.079080
C112  C     C_1   0.480608 0.503980 0.900876 -0.080745
C113  C     C_1   0.963394 0.489609 0.096783 -0.076422
C114  C     C_1   0.527749 0.039794 0.096110 -0.086749
C115  C     C_1   0.516362 0.473521 0.095990 -0.078424
C116  C     C_3   0.604583 0.074092 0.479643 -0.212997
C117  C     C_3   0.050971 0.573166 0.466964 -0.084356
C118  C     C_3   0.839427 0.483199 0.492177 -0.213279
C119  C     C_3   0.479938 0.371878 0.479059 -0.212553
C120  C     C_3   0.075108 0.599734 0.520412 -0.213114
C121  C     C_3   0.480481 0.838312 0.507348 -0.212952
C122  C     C_3   0.373487 0.491532 0.520609 -0.210795
C123  C     C_3   0.735005 0.063706 0.047799 -0.272665
C124  C     C_3   0.814169 0.014527 0.039841 -0.315268
C125  C     C_3   0.927972 0.085775 0.064911 -0.458818
C126  C     C_3   0.942468 0.674933 0.050989 -0.275647
C127  C     C_3   0.007032 0.759026 0.091090 -0.302050
C128  C     C_3   0.389851 0.496900 0.465947 -0.083818
C129  C     C_3   0.933457 0.801742 0.114357 -0.443731
C130  C     C_3   0.337505 0.264109 0.049600 -0.275949
C131  C     C_3   0.251636 0.238617 0.089958 -0.302092
C132  C     C_3   0.213016 0.122084 0.111676 -0.443098
C133  C     C_3   0.100585 0.739156 0.951229 -0.277436
C134  C     C_3   0.056567 0.780486 0.910348 -0.302348
C135  C     C_3   0.152706 0.889522 0.888590 -0.435979
C136  C     C_3   0.628514 0.891265 0.949792 -0.276044
C137  C     C_3   0.713300 0.929225 0.908052 -0.304238
C138  C     C_3   0.722361 0.829786 0.887759 -0.436083
Cr1   Cr    Cr6+3 0.748260 0.501860 0.250510 1.006399
Cr2   Cr    Cr6+3 0.498140 0.246400 0.250510 1.008519
Cr3   Cr    Cr6+3 0.753600 0.251740 0.250510 1.013342
Cr4   Cr    Cr6+3 0.501860 0.748260 0.749490 1.004016
Cr5   Cr    Cr6+3 0.246400 0.498140 0.749490 1.007205
Cr6   Cr    Cr6+3 0.251740 0.753600 0.749490 1.008207
H1    H     H_    0.453276 0.121898 0.954344 0.109580
H2    H     H_    0.751154 0.413728 0.484248 0.086787
H3    H     H_    0.203451 0.187647 0.924116 0.143243
H4    H     H_    0.196737 0.321903 0.980425 0.132433
H5    H     H_    0.271105 0.438999 0.940601 0.151093
H6    H     H_    0.663769 0.193862 0.609043 0.076934
H7    H     H_    0.828029 0.239766 0.658800 0.109694
H8    H     H_    0.945221 0.149454 0.643837 0.109849
H9    H     H_    0.895675 0.011926 0.578184 0.088638
H10   H     H_    0.732509 0.964522 0.528413 0.081139
H11   H     H_    0.740772 0.410098 0.627545 0.083257
H12   H     H_    0.691431 0.519928 0.682015 0.108635
H13   H     H_    0.625824 0.163311 0.472696 0.090739
H14   H     H_    0.763788 0.724813 0.667797 0.117708
H15   H     H_    0.886027 0.819297 0.598090 0.096468
H16   H     H_    0.931724 0.710818 0.542338 0.084214
H17   H     H_    0.573087 0.289937 0.590951 0.074399
H18   H     H_    0.470008 0.124679 0.643239 0.120602
H19   H     H_    0.258839 0.020858 0.646326 0.122097
H20   H     H_    0.151219 0.084265 0.596847 0.096266
H21   H     H_    0.251236 0.248543 0.546049 0.085323
H22   H     H_    0.197864 0.648754 0.391518 0.080987
H23   H     H_    0.253025 0.813272 0.340283 0.107366
H24   H     H_    0.547610 0.354154 0.466460 0.090897
H25   H     H_    0.170296 0.937839 0.353066 0.113226
H26   H     H_    0.031931 0.896573 0.418177 0.092775
H27   H     H_    0.977037 0.734594 0.469840 0.081242
H28   H     H_    0.405069 0.748710 0.371313 0.079740
H29   H     H_    0.510675 0.697187 0.315197 0.106242
H30   H     H_    0.714798 0.761194 0.328547 0.117453
H31   H     H_    0.812677 0.877246 0.398966 0.097455
H32   H     H_    0.708018 0.924695 0.456165 0.083669
H33   H     H_    0.308507 0.560123 0.391345 0.086184
H34   H     H_    0.137435 0.447029 0.343553 0.119655
H35   H     H_    0.407663 0.078532 0.474247 0.121579
H36   H     H_    0.011136 0.241590 0.359888 0.120504
H37   H     H_    0.056568 0.150888 0.425339 0.096342
H38   H     H_    0.224318 0.262524 0.473786 0.086235
H39   H     H_    0.842307 0.287712 0.480627 0.117589
H40   H     H_    0.677316 0.573738 0.468189 0.113842
H41   H     H_    0.071508 0.399876 0.527355 0.121112
H42   H     H_    0.289250 0.849535 0.520729 0.118556
H43   H     H_    0.579418 0.680794 0.530436 0.114246
H44   H     H_    0.315167 0.941001 0.449357 0.140472
H45   H     H_    0.887156 0.330986 0.956550 0.111835
H46   H     H_    0.981101 0.340067 0.455297 0.139642
H47   H     H_    0.620914 0.663235 0.453139 0.140153
H48   H     H_    0.932472 0.311804 0.552271 0.140846
H49   H     H_    0.347105 0.988127 0.546280 0.139190
H50   H     H_    0.664467 0.619295 0.545294 0.140889
H51   H     H_    0.483898 0.157730 0.033177 0.104516
H52   H     H_    0.842310 0.328587 0.035348 0.105061
H53   H     H_    0.682162 0.527085 0.031754 0.102798
H54   H     H_    0.099737 0.425072 0.961676 0.112457
H55   H     H_    0.326269 0.911376 0.962689 0.112415
H56   H     H_    0.672650 0.558463 0.953104 0.109035
H57   H     H_    0.575168 0.671742 0.961889 0.114187
H58   H     H_    0.383678 0.845192 0.049376 0.100446
H59   H     H_    0.158455 0.540030 0.049984 0.099207
H60   H     H_    0.457778 0.611779 0.050474 0.100412
H61   H     H_    0.818558 0.412973 0.947165 0.100684
H62   H     H_    0.604433 0.183296 0.946670 0.100544
H63   H     H_    0.591582 0.407197 0.945299 0.101221
H64   H     H_    0.383406 0.818441 0.969498 0.100029
H65   H     H_    0.185791 0.575845 0.970402 0.100944
H66   H     H_    0.424083 0.606019 0.970928 0.100868
H67   H     H_    0.055675 0.393144 0.039820 0.110554
H68   H     H_    0.799716 0.431430 0.027017 0.103835
H69   H     H_    0.632118 0.204051 0.027020 0.105912
H70   H     H_    0.585150 0.377818 0.025458 0.103516
H71   H     H_    0.582437 0.900117 0.039266 0.123935
H72   H     H_    0.104862 0.682837 0.037900 0.126257
H73   H     H_    0.321490 0.413894 0.039032 0.125657
H74   H     H_    0.922278 0.615003 0.962987 0.124446
H75   H     H_    0.693604 0.071391 0.959748 0.129023
H76   H     H_    0.390007 0.305902 0.960900 0.123271
H77   H     H_    0.680544 0.069224 0.468645 0.119207
H78   H     H_    0.338290 0.947321 0.041386 0.110321
H79   H     H_    0.841490 0.563282 0.483704 0.111113
H80   H     H_    0.398261 0.295226 0.469955 0.121350
H81   H     H_    0.072712 0.677218 0.530531 0.118590
H82   H     H_    0.558672 0.835861 0.515265 0.110912
H83   H     H_    0.292924 0.416255 0.531564 0.111268
H84   H     H_    0.384750 0.808575 0.444212 0.111783
H85   H     H_    0.109702 0.541998 0.455788 0.119926
H86   H     H_    0.417395 0.586628 0.456311 0.114711
H87   H     H_    0.804451 0.387273 0.555724 0.106251
H88   H     H_    0.551807 0.109788 0.545226 0.117002
H89   H     H_    0.606610 0.663512 0.040064 0.110586
H90   H     H_    0.582996 0.419494 0.540461 0.116396
H91   H     H_    0.970754 0.175094 0.052107 0.141193
H92   H     H_    0.914649 0.084588 0.103686 0.159236
H93   H     H_    0.984443 0.050140 0.057327 0.141334
H94   H     H_    0.772895 0.925750 0.053291 0.148314
H95   H     H_    0.832553 0.014520 0.001682 0.162290
H96   H     H_    0.775237 0.149038 0.031789 0.133193
H97   H     H_    0.729245 0.073586 0.086441 0.170008
H98   H     H_    0.907325 0.844288 0.087928 0.142751
H99   H     H_    0.855945 0.729638 0.130463 0.170361
H100  H     H_    0.407975 0.751728 0.515148 0.086737
H101  H     H_    0.983025 0.864074 0.142471 0.142011
H102  H     H_    0.032505 0.717625 0.118301 0.178383
H103  H     H_    0.085754 0.833130 0.076700 0.139816
H104  H     H_    0.921357 0.721350 0.024370 0.132654
H105  H     H_    0.860387 0.605321 0.064958 0.153053
H106  H     H_    0.173147 0.054310 0.084431 0.138060
H107  H     H_    0.287035 0.119986 0.127302 0.171099
H108  H     H_    0.149054 0.104800 0.139935 0.142408
H109  H     H_    0.290579 0.304496 0.117940 0.178922
H110  H     H_    0.175773 0.240070 0.076165 0.144961
H111  H     H_    0.163594 0.618479 0.527898 0.091670
H112  H     H_    0.294394 0.196119 0.022604 0.132642
H113  H     H_    0.410112 0.257341 0.063454 0.153137
H114  H     H_    0.190072 0.958469 0.915430 0.130989
H115  H     H_    0.220619 0.874416 0.874323 0.179750
H116  H     H_    0.118483 0.917389 0.859272 0.142761
H117  H     H_    0.018475 0.714487 0.882453 0.182790
H118  H     H_    0.989141 0.797586 0.923701 0.142023
H119  H     H_    0.131879 0.806750 0.978712 0.132202
H120  H     H_    0.174350 0.731067 0.939094 0.151378
H121  H     H_    0.754058 0.793893 0.914959 0.129554
H122  H     H_    0.364184 0.564856 0.532146 0.090422
H123  H     H_    0.637723 0.762360 0.875055 0.181151
H124  H     H_    0.783152 0.859706 0.857546 0.143273
H125  H     H_    0.686461 0.966322 0.879605 0.186418
H126  H     H_    0.799437 0.995907 0.919808 0.138579
H127  H     H_    0.660599 0.856396 0.977113 0.129256
H128  H     H_    0.544118 0.820803 0.938336 0.150323
H129  H     H_    0.041720 0.227025 0.918880 0.133977
H130  H     H_    0.123694 0.340457 0.877166 0.176507
H131  H     H_    0.079248 0.194968 0.861923 0.142506
H132  H     H_    0.284585 0.300058 0.882661 0.182694
O1    O     O_R   0.863770 0.527700 0.199270 -0.508160
O2    O     O_R   0.490970 0.643280 0.797590 -0.501994
O3    O     O_R   0.152310 0.509030 0.797590 -0.497766
O4    O     O_R   0.356720 0.847690 0.797590 -0.495025
O5    O     O_R   0.862920 0.527590 0.302350 -0.500423
O6    O     O_R   0.472410 0.335330 0.302350 -0.504787
O7    O     O_R   0.664670 0.137080 0.302350 -0.513039
O8    O     O_R   0.527590 0.862920 0.697650 -0.500685
O9    O     O_R   0.335330 0.472410 0.697650 -0.504480
O10   O     O_R   0.137080 0.664670 0.697650 -0.513462
O11   O     O_R   0.642490 0.490870 0.297970 -0.517032
O12   O     O_R   0.472300 0.336070 0.199270 -0.511043
O13   O     O_R   0.509130 0.151620 0.297970 -0.502124
O14   O     O_R   0.848380 0.357510 0.297970 -0.500811
O15   O     O_R   0.490870 0.642490 0.702030 -0.517598
O16   O     O_R   0.151620 0.509130 0.702030 -0.501901
O17   O     O_R   0.357510 0.848380 0.702030 -0.500332
O18   O     O_3   0.666667 0.333333 0.250440 -0.264602
O19   O     O_3   0.333333 0.666667 0.749560 -0.262440
O20   O     O_R   0.663930 0.136230 0.199270 -0.510567
O21   O     O_R   0.527700 0.863770 0.800730 -0.509309
O22   O     O_R   0.336070 0.472300 0.800730 -0.509286
O23   O     O_R   0.136230 0.663930 0.800730 -0.511714
O24   O     O_R   0.643280 0.490970 0.202410 -0.498064
O25   O     O_R   0.509030 0.152310 0.202410 -0.496974
O26   O     O_R   0.847690 0.356720 0.202410 -0.490805

loop_
_geom_bond_atom_site_label_1
_geom_bond_atom_site_label_2
_ccdc_geom_bond_type
C78   C87   S    
C13   C55   S    
C121  H100  S    
C127  H103  S    
C55   C121  S    
C9    H8    S    
C36   H30   S    
C126  C127  S    
C79   H53   S    
C54   C120  S    
C14   H11   S    
C133  H120  S    
C13   H88   S    
C41   C42   A    
C1    O24   A    
C102  C112  S    
C19   C20   A    
C26   C117  S    
C46   C74   S    
C43   C44   A    
C2    C12   S    
Cr4   O2    S    
C80   C85   S    
C88   C101  S    
C2    C118  S    
C131  H110  S    
C132  H106  S    
C123  C124  S    
C54   C65   S    
C81   C101  S    
C4    C5    S    
C3    C105  S    
C1    O12   A    
C132  H108  S    
C135  H116  S    
C29   C30   A    
C31   H27   S    
C75   O16   A    
C126  H105  S    
C79   C99   S    
C28   C29   A    
C87   C100  S    
C1    C96   S    
C99   C115  S    
C30   C31   A    
C89   C102  S    
C63   H47   S    
C37   H31   S    
C129  H98   S    
C20   H17   S    
Cr6   O19   S    
C58   C60   S    
C15   C16   A    
C99   C109  S    
C84   O3    A    
C100  C104  S    
C106  C121  S    
C102  C105  S    
C91   C111  T    
C116  H77   S    
C56   C59   S    
C72   O14   A    
C30   H26   S    
C85   C98   S    
C52   C60   S    
C28   H23   S    
Cr4   O8    S    
Cr2   O13   S    
C83   H78   S    
C79   H70   S    
C87   H61   S    
C107  H72   S    
C57   C61   S    
C77   C88   S    
C42   H36   S    
C16   C17   A    
C24   C119  S    
C78   C98   S    
C88   H1    S    
C96   C115  T    
C77   C97   S    
C35   C64   T    
C5    H131  S    
C62   O1    A    
C32   C38   A    
C9    C10   A    
C50   C116  S    
C86   H60   S    
C11   H10   S    
C34   H29   S    
C87   H45   S    
C84   O23   A    
C52   C117  S    
C5    H130  S    
C60   H39   S    
C23   C25   A    
C118  H79   S    
C53   C69   S    
C26   C31   A    
C101  C103  S    
C32   C106  S    
C21   C22   A    
C80   C100  S    
C58   H41   S    
C95   O21   A    
C83   C97   S    
C83   H58   S    
C19   C25   A    
C108  H71   S    
C85   H67   S    
C10   H9    S    
C47   C67   T    
C81   C83   S    
Cr1   O1    S    
C33   C34   A    
C6    C7    A    
C109  C130  S    
C59   H50   S    
C94   C114  T    
Cr3   O26   S    
C35   C76   S    
C3    H5    S    
C86   H89   S    
C104  C133  S    
Cr1   O5    S    
C77   H69   S    
C4    H132  S    
Cr2   O25   S    
C41   H34   S    
C7    C8    A    
C8    H7    S    
C18   H16   S    
C107  C126  S    
Cr3   O14   S    
C2    C54   S    
C117  C120  S    
Cr2   O6    S    
C6    C11   A    
C51   O25   A    
C124  H95   S    
C137  H125  S    
C8    C9    A    
C98   C113  S    
C129  H101  S    
C129  H99   S    
C74   O9    A    
C25   H21   S    
Cr4   O19   S    
C82   C86   S    
C4    H3    S    
C16   H14   S    
C43   H37   S    
C126  H104  S    
Cr2   O12   S    
C98   C107  S    
C57   H49   S    
C136  H128  S    
C82   C102  S    
C56   C122  S    
C103  C136  S    
C127  C129  S    
Cr3   O7    S    
C37   C38   A    
C125  H91   S    
C53   C128  S    
C82   H57   S    
C7    H6    S    
C124  H94   S    
C27   H22   S    
C38   H32   S    
C97   C108  S    
C118  H2    S    
Cr6   O17   S    
C105  H76   S    
C80   H54   S    
C55   C64   S    
Cr5   O3    S    
C17   C18   A    
C26   C27   A    
C44   H38   S    
Cr1   O11   S    
Cr6   O4    S    
C127  H102  S    
C78   H52   S    
C48   C68   T    
C59   H43   S    
C86   C99   S    
C101  C110  S    
C104  H74   S    
C51   O20   A    
C134  C135  S    
C52   C67   S    
C2    H87   S    
C81   H64   S    
C60   H46   S    
C40   C41   A    
C84   C91   S    
C12   C14   A    
C61   H35   S    
C134  H117  S    
C49   C70   S    
C55   C57   S    
C58   H48   S    
C133  C134  S    
C106  H84   S    
C62   C93   S    
C57   H42   S    
C42   C43   A    
C90   C110  T    
C108  C123  S    
C12   C18   A    
C3    C4    S    
C78   H68   S    
C53   C119  S    
C123  H97   S    
C130  H113  S    
C125  H93   S    
C122  H122  S    
C123  H96   S    
C54   C58   S    
Cr4   O15   S    
C133  H119  S    
C89   H56   S    
C105  C109  S    
C36   C37   A    
C135  H114  S    
C128  H86   S    
C21   H18   S    
C73   O22   A    
C22   C23   A    
C135  H115  S    
C76   O8    A    
C92   C112  T    
C24   H90   S    
C73   C92   S    
C88   H62   S    
C136  C137  S    
Cr3   O20   S    
C90   C95   S    
C81   H55   S    
Cr1   O18   S    
C116  H13   S    
C137  H126  S    
C131  H109  S    
C46   C66   T    
Cr5   O9    S    
C39   C44   A    
C39   C128  S    
C138  H121  S    
C73   O2    A    
C24   C56   S    
C71   O13   A    
C137  C138  S    
C59   C63   S    
Cr6   O10   S    
C45   C75   S    
C71   O7    A    
C32   C33   A    
C95   O4    A    
C52   C118  S    
C19   C24   S    
C77   H51   S    
C120  H111  S    
C76   O17   A    
C125  H92   S    
C70   O6    A    
C6    C13   S    
C45   C65   T    
C22   H19   S    
C53   C63   S    
Cr6   O23   S    
Cr5   O19   S    
Cr3   O18   S    
C89   H63   S    
C23   H20   S    
C138  H124  S    
Cr4   O21   S    
C56   C66   S    
C122  H83   S    
C119  H24   S    
C75   O10   A    
C117  H85   S    
C119  H80   S    
C15   H12   S    
C93   C113  T    
C136  H127  S    
C34   C36   A    
C121  H82   S    
C61   H44   S    
C122  C128  S    
C74   O15   A    
C17   H15   S    
Cr2   O18   S    
Cr1   O24   S    
C47   C72   S    
C79   C89   S    
C13   C116  S    
C109  H73   S    
C10   C11   A    
C85   H59   S    
C51   C94   S    
C40   H33   S    
C39   C40   A    
Cr5   O16   S    
C3    H4    S    
C63   H40   S    
C5    H129  S    
C20   C21   A    
Cr5   O22   S    
C100  C111  S    
C134  H118  S    
C70   O11   A    
C138  H123  S    
C62   O26   A    
C130  C131  S    
C27   C28   A    
C50   C106  S    
C50   C61   S    
C14   C15   A    
C80   H65   S    
C103  C108  S    
C49   C69   T    
C72   O5    A    
C48   C71   S    
C29   H25   S    
C97   C114  S    
C33   H28   S    
C50   C68   S    
C120  H81   S    
C104  C107  S    
C131  C132  S    
C132  H107  S    
C103  H75   S    
C124  C125  S    
C82   H66   S    
C130  H112  S    
