data_mof_unit_58786.cif
_audit_creation_date              2012-12-10T16:49:24-0500
_audit_creation_method            fapswitch 2.2
_symmetry_space_group_name_H-M    P1
_symmetry_Int_Tables_number       1
_space_group_crystal_system       triclinic
_cell_length_a                    7.744739
_cell_length_b                    8.657594
_cell_length_c                    12.769917
_cell_angle_alpha                 89.729804
_cell_angle_beta                  87.363626
_cell_angle_gamma                 93.496766
_cell_volume                      853.710262371

loop_
_atom_site_label
_atom_site_type_symbol
_atom_type_description
_atom_site_fract_x
_atom_site_fract_y
_atom_site_fract_z
_atom_type_partial_charge
Br1   Br    Br    0.460286 0.803750 0.186630 -0.483034
Br2   Br    Br    0.539730 0.196253 0.813369 -0.483029
Br3   Br    Br    0.233035 0.980020 0.407260 -0.375809
Br4   Br    Br    0.766966 0.019980 0.592738 -0.375807
C1    C     C_R   0.455202 0.205599 0.498307 0.943812
C2    C     C_R   0.606573 0.346108 0.148759 -0.221510
C3    C     C_R   0.498341 0.396372 0.873456 0.197973
C4    C     C_R   0.501664 0.603630 0.126544 0.197975
C5    C     C_R   0.521431 0.426956 0.979156 0.064113
C6    C     C_R   0.478570 0.573044 0.020844 0.064115
C7    C     C_2   0.435963 0.044607 0.485051 0.021602
C8    C     C_2   0.564038 0.955392 0.514949 0.021603
C9    C     C_R   0.544798 0.794400 0.501693 0.943813
C10   C     C_R   0.464558 0.501869 0.699569 0.930003
C11   C     C_R   0.535442 0.498131 0.300431 0.930003
C12   C     C_R   0.557932 0.486537 0.189703 -0.097234
C13   C     C_R   0.442069 0.513464 0.810297 -0.097236
C14   C     C_R   0.410693 0.683644 0.956302 -0.111444
C15   C     C_R   0.589303 0.316355 0.043699 -0.111444
C16   C     C_R   0.393423 0.653891 0.851242 -0.221508
H1    H     H_    0.649114 0.256323 0.199357 0.188141
H2    H     H_    0.350878 0.743675 0.800644 0.188140
H3    H     H_    0.374239 0.794837 0.985056 0.212146
H4    H     H_    0.625753 0.205160 0.014946 0.212148
H5    H     H_    0.998892 0.615923 0.421903 0.228549
H6    H     H_    0.001108 0.384077 0.578096 0.228549
N1    N     N_2   0.054030 0.541640 0.471970 -0.148038
N2    N     N_2   0.945970 0.458360 0.528030 -0.148038
O1    O     O_R   0.609680 0.261530 0.506880 -0.584194
O2    O     O_R   0.390320 0.738470 0.493120 -0.584195
O3    O     O_R   0.323330 0.288220 0.488910 -0.597710
O4    O     O_R   0.676670 0.711780 0.511090 -0.597710
O5    O     O_R   0.619510 0.488830 0.661140 -0.579584
O6    O     O_R   0.380490 0.511170 0.338860 -0.579586
O7    O     O_R   0.333160 0.515520 0.643180 -0.633744
O8    O     O_R   0.666840 0.484480 0.356820 -0.633743
Zn1   Zn    Zn3+2 0.691200 0.482180 0.511990 1.045956
Zn2   Zn    Zn3+2 0.308800 0.517820 0.488010 1.045955

loop_
_geom_bond_atom_site_label_1
_geom_bond_atom_site_label_2
_ccdc_geom_bond_type
C7    C8    D    
Br4   C8    S    
Br1   C4    S    
C5    C6    A    
C11   O8    A    
C11   O6    A    
H6    N2    S    
Br2   C3    S    
O3    Zn2   S    
O7    Zn2   S    
C10   O5    A    
C15   H4    S    
C4    C12   A    
O4    Zn1   S    
C2    C15   A    
C10   C13   S    
N2    Zn1   S    
C6    C14   A    
O8    Zn1   S    
C16   H2    S    
C1    C7    S    
C14   C16   A    
H5    N1    S    
N1    Zn2   S    
C2    C12   A    
C14   H3    S    
C1    O1    A    
C9    O2    A    
N1    N2    D    
C13   C16   A    
Br3   C7    S    
C8    C9    S    
O2    Zn2   S    
C4    C6    A    
O1    Zn1   S    
C10   O7    A    
C3    C5    A    
C9    O4    A    
C3    C13   A    
O6    Zn2   S    
C2    H1    S    
C5    C15   A    
O5    Zn1   S    
C11   C12   S    
C1    O3    A    
