data_mof_unit_58279.cif
_audit_creation_date              2012-10-26T19:06:30-0400
_audit_creation_method            fapswitch 2.2
_symmetry_space_group_name_H-M    P1
_symmetry_Int_Tables_number       1
_space_group_crystal_system       triclinic
_cell_length_a                    12.451051
_cell_length_b                    13.02473
_cell_length_c                    14.302493
_cell_angle_alpha                 76.647283
_cell_angle_beta                  100.819299
_cell_angle_gamma                 116.824346
_cell_volume                      2004.58182491

loop_
_atom_site_label
_atom_site_type_symbol
_atom_type_description
_atom_site_fract_x
_atom_site_fract_y
_atom_site_fract_z
_atom_type_partial_charge
C1    C     C_R   0.855341 0.286690 0.500558 0.522703
C2    C     C_R   0.434914 0.988044 0.466401 -0.010695
C3    C     C_R   0.394415 0.077172 0.427164 0.047543
C4    C     C_R   0.000963 0.500595 0.668578 0.547847
C5    C     C_R   0.482943 0.188378 0.387465 -0.003168
C6    C     C_R   0.604945 0.209406 0.402760 -0.093570
C7    C     C_R   0.349369 0.872374 0.471455 -0.142171
C8    C     C_R   0.189513 0.930247 0.465676 0.006229
C9    C     C_R   0.770756 0.162339 0.492113 -0.042499
C10   C     C_R   0.319117 0.297898 0.629898 0.221017
C11   C     C_R   0.767254 0.656183 0.379866 0.414204
C12   C     C_1   0.999680 0.501603 0.228657 -0.061794
C13   C     C_R   0.675496 0.695252 0.356336 -0.015419
C14   C     C_R   0.559248 0.618621 0.382865 -0.026428
C15   C     C_R   0.544986 0.524554 0.460816 -0.058477
C16   C     C_R   0.145008 0.714986 0.488116 0.532879
C17   C     C_R   0.645599 0.494531 0.493354 0.123332
C18   C     C_R   0.436914 0.462549 0.510497 -0.053779
C19   C     C_R   0.420833 0.358885 0.576476 -0.013961
C20   C     C_R   0.510326 0.320908 0.595570 -0.134638
C21   C     C_R   0.626452 0.392840 0.567569 0.300687
C22   C     C_R   0.347100 0.502996 0.503308 0.043780
C23   C     C_R   0.268087 0.047310 0.428570 0.014068
C24   C     C_R   0.231634 0.339169 0.613870 0.072469
C25   C     C_R   0.000090 0.500950 0.331261 0.528833
C26   C     C_1   0.002548 0.501644 0.771013 -0.045829
C27   C     C_1   0.002772 0.502317 0.856445 -0.060689
C28   C     C_1   0.001993 0.502536 0.957015 -0.015823
C29   C     C_1   0.001088 0.502413 0.042435 -0.016522
C30   C     C_1   0.000123 0.502030 0.143107 -0.061389
C31   C     C_3   0.070781 0.902423 0.501243 -0.378607
C32   C     C_3   0.255163 0.101894 0.683419 -0.015467
C33   C     C_3   0.283230 0.014892 0.764038 -0.252162
C34   C     C_R   0.227643 0.841176 0.475088 -0.026396
C35   C     C_3   0.222480 0.891792 0.739819 -0.492224
C36   C     C_3   0.850367 0.716860 0.230524 0.010343
C37   C     C_3   0.748028 0.606999 0.193506 -0.284369
C38   C     C_3   0.747948 0.615853 0.085210 -0.483164
C39   C     C_3   0.453952 0.626905 0.313760 -0.406854
C40   C     C_3   0.699907 0.816904 0.302771 -0.407974
C41   C     C_3   0.705417 0.267160 0.676944 0.019304
C42   C     C_3   0.683365 0.252035 0.782286 -0.283757
C43   C     C_3   0.668253 0.131651 0.836505 -0.491793
C44   C     C_3   0.455292 0.283998 0.320983 -0.403770
C45   C     C_R   0.809894 0.072555 0.520115 -0.034264
C46   C     C_3   0.216328 0.136833 0.396847 -0.401768
C47   C     C_3   0.936092 0.094881 0.506558 -0.388406
C48   C     C_3   0.487574 0.839281 0.678785 0.009255
C49   C     C_3   0.562986 0.812852 0.770581 -0.267026
C50   C     C_3   0.502428 0.791523 0.861084 -0.485259
C51   C     C_3   0.768616 0.863036 0.595496 -0.369320
C52   C     C_R   0.726256 0.958167 0.554006 0.035000
C53   C     C_R   0.603268 0.933571 0.550172 0.264195
C54   C     C_R   0.560026 0.015455 0.492774 -0.006242
C55   C     C_R   0.645530 0.130212 0.463752 -0.054830
Cu1   Cu    Cu3+1 0.098280 0.475420 0.520190 0.904933
Cu2   Cu    Cu3+1 0.901720 0.524580 0.479810 0.998271
H1    H     H_    0.492668 0.240230 0.644609 0.143114
H2    H     H_    0.156269 0.076091 0.674750 0.125371
H3    H     H_    0.382573 0.042978 0.775718 0.159812
H4    H     H_    0.251690 0.013883 0.832119 0.176120
H5    H     H_    0.122797 0.861131 0.728540 0.148469
H6    H     H_    0.244210 0.831329 0.800381 0.145103
H7    H     H_    0.256068 0.890108 0.673872 0.147584
H8    H     H_    0.935919 0.730850 0.205468 0.155885
H9    H     H_    0.835813 0.795329 0.195211 0.114605
H10   H     H_    0.758514 0.527198 0.231308 0.182155
H11   H     H_    0.658403 0.597094 0.206279 0.141361
H12   H     H_    0.356166 0.586384 0.462624 0.148185
H13   H     H_    0.733614 0.693259 0.045086 0.141594
H14   H     H_    0.673688 0.536408 0.060512 0.152338
H15   H     H_    0.835074 0.623181 0.068785 0.158945
H16   H     H_    0.370994 0.543625 0.320196 0.132185
H17   H     H_    0.436729 0.699857 0.324248 0.129977
H18   H     H_    0.474720 0.643366 0.238034 0.127859
H19   H     H_    0.656837 0.855698 0.336728 0.142486
H20   H     H_    0.798158 0.875352 0.307123 0.137417
H21   H     H_    0.662935 0.814810 0.225983 0.118292
H22   H     H_    0.791122 0.259526 0.679138 0.152452
H23   H     H_    0.377895 0.805246 0.472276 0.187203
H24   H     H_    0.636212 0.195633 0.639040 0.107230
H25   H     H_    0.761502 0.319351 0.818354 0.177256
H26   H     H_    0.601765 0.263808 0.786798 0.179892
H27   H     H_    0.592243 0.063394 0.800019 0.136541
H28   H     H_    0.648524 0.120909 0.911616 0.153200
H29   H     H_    0.752257 0.120784 0.838726 0.148151
H30   H     H_    0.537653 0.358319 0.292407 0.110691
H31   H     H_    0.395243 0.250185 0.256742 0.132806
H32   H     H_    0.417452 0.322782 0.359464 0.137650
H33   H     H_    0.223448 0.172169 0.319171 0.132425
H34   H     H_    0.669430 0.288753 0.364266 0.139494
H35   H     H_    0.118330 0.100614 0.401943 0.120411
H36   H     H_    0.260532 0.206247 0.442089 0.124299
H37   H     H_    0.930284 0.026590 0.469655 0.108353
H38   H     H_    0.982140 0.176972 0.456838 0.160240
H39   H     H_    0.990501 0.094535 0.577315 0.119954
H40   H     H_    0.391701 0.774629 0.683450 0.167466
H41   H     H_    0.489116 0.926688 0.674159 0.109463
H42   H     H_    0.574597 0.733650 0.768565 0.182180
H43   H     H_    0.653884 0.887388 0.774094 0.149296
H44   H     H_    0.484011 0.866527 0.863660 0.141611
H45   H     H_    0.152279 0.293529 0.653218 0.134092
H46   H     H_    0.562599 0.779234 0.926267 0.143465
H47   H     H_    0.415685 0.711624 0.862057 0.155369
H48   H     H_    0.803379 0.844373 0.538461 0.122721
H49   H     H_    0.841374 0.891114 0.654942 0.108357
H50   H     H_    0.695606 0.779427 0.624951 0.181578
H51   H     H_    0.041886 0.823749 0.557754 0.148157
H52   H     H_    0.082045 0.972168 0.539031 0.090850
H53   H     H_    0.999212 0.891852 0.440057 0.166687
H54   H     H_    0.284351 0.099160 0.615359 0.137638
N1    N     N_R   0.246290 0.438200 0.550780 -0.264526
N2    N     N_R   0.754310 0.561180 0.449760 -0.226394
O1    O     O_R   0.972510 0.318130 0.525390 -0.508946
O2    O     O_3   0.871847 0.711382 0.332828 -0.539226
O3    O     O_3   0.723027 0.380659 0.627034 -0.515440
O4    O     O_3   0.526577 0.826171 0.597190 -0.598485
O5    O     O_R   0.806530 0.359650 0.491290 -0.470046
O6    O     O_R   0.083010 0.479240 0.641000 -0.486924
O7    O     O_R   0.917030 0.520750 0.606900 -0.414535
O8    O     O_R   0.193470 0.640350 0.508710 -0.506276
O9    O     O_R   0.027490 0.681870 0.474610 -0.446419
O10   O     O_R   0.082970 0.479250 0.393100 -0.487452
O11   O     O_R   0.916990 0.520760 0.359000 -0.466595
O12   O     O_3   0.316865 0.213621 0.709874 -0.591160

loop_
_geom_bond_atom_site_label_1
_geom_bond_atom_site_label_2
_ccdc_geom_bond_type
C15   C18   A    
C38   H13   S    
C50   H47   S    
C32   H54   S    
C31   H51   S    
C3    C23   A    
C2    C7    A    
C42   H25   S    
C6    C55   A    
C17   N2    A    
C53   C54   A    
C9    C45   A    
C48   H40   S    
C26   C27   T    
C29   C30   S    
C36   C37   S    
C5    C6    A    
C53   O4    S    
C46   H35   S    
C6    H34   S    
C37   H11   S    
C8    C23   A    
Cu1   Cu2   S    
C18   C19   A    
C41   C42   S    
C39   H17   S    
C16   O9    A    
C13   C40   S    
C16   C34   S    
Cu2   O9    S    
C54   C55   A    
C47   H37   S    
C19   C20   A    
C24   N1    A    
C47   H39   S    
C4    O6    A    
C35   H7    S    
C9    C55   A    
C39   H18   S    
C44   H30   S    
C11   O2    S    
C22   H12   S    
C24   H45   S    
C14   C39   S    
C50   H46   S    
C23   C46   S    
C13   C14   A    
C43   H27   S    
C43   H29   S    
C21   O3    S    
C45   C47   S    
C38   H15   S    
C51   C52   S    
C43   H28   S    
Cu1   O10   S    
C1    C9    S    
C2    C54   A    
C36   H8    S    
Cu2   N2    S    
C45   C52   A    
C10   C24   A    
C17   C21   A    
C40   H19   S    
C32   O12   S    
C16   O8    A    
C37   C38   S    
C49   H42   S    
C14   C15   A    
C10   C19   A    
C51   H48   S    
C41   H24   S    
C31   H52   S    
C8    C34   A    
C25   O10   A    
Cu2   O7    S    
C33   H4    S    
C48   C49   S    
C5    C44   S    
C33   H3    S    
C22   N1    A    
C7    C34   A    
C40   H21   S    
Cu1   O6    S    
C42   C43   S    
C41   O3    S    
C20   H1    S    
C10   O12   S    
C52   C53   A    
C15   C17   A    
C38   H14   S    
C28   C29   T    
C47   H38   S    
C12   C30   T    
C18   C22   A    
C8    C31   S    
C42   H26   S    
C3    C5    A    
C41   H22   S    
C4    C26   S    
C48   O4    S    
C46   H33   S    
C48   H41   S    
C12   C25   S    
C32   C33   S    
C2    C3    A    
Cu1   O8    S    
Cu2   O11   S    
C11   C13   A    
C46   H36   S    
C51   H49   S    
C37   H10   S    
C33   C35   S    
C31   H53   S    
C35   H5    S    
C36   H9    S    
C1    O5    A    
C39   H16   S    
C11   N2    A    
C25   O11   A    
C20   C21   A    
Cu2   O5    S    
C50   H44   S    
C51   H50   S    
C49   C50   S    
C1    O1    A    
C27   C28   S    
Cu1   O1    S    
C40   H20   S    
C4    O7    A    
C35   H6    S    
C32   H2    S    
C44   H31   S    
C36   O2    S    
Cu1   N1    S    
C44   H32   S    
C7    H23   S    
C49   H43   S    
