data_mof_unit_57521.cif
_audit_creation_date              2012-12-10T17:49:38-0500
_audit_creation_method            fapswitch 2.2
_symmetry_space_group_name_H-M    P1
_symmetry_Int_Tables_number       1
_space_group_crystal_system       triclinic
_cell_length_a                    10.607854
_cell_length_b                    10.984591
_cell_length_c                    9.987624
_cell_angle_alpha                 90.738337
_cell_angle_beta                  87.869523
_cell_angle_gamma                 99.44292
_cell_volume                      1147.19668741

loop_
_atom_site_label
_atom_site_type_symbol
_atom_type_description
_atom_site_fract_x
_atom_site_fract_y
_atom_site_fract_z
_atom_type_partial_charge
C1    C     C_R   0.502327 0.260838 0.501838 0.923082
C2    C     C_3   0.975338 0.532582 0.375356 0.135876
C3    C     C_3   0.031189 0.418691 0.417406 -0.258728
C4    C     C_3   0.123191 0.504601 0.508076 -0.120037
C5    C     C_R   0.439607 0.109580 0.758037 -0.218451
C6    C     C_R   0.384117 0.031386 0.859937 -0.272861
C7    C     C_R   0.394945 0.908085 0.852781 0.495113
C8    C     C_R   0.484155 0.877096 0.756732 0.066472
C9    C     C_R   0.489419 0.935590 0.630513 -0.018779
C10   C     C_R   0.480049 0.061525 0.632637 0.089509
C11   C     C_R   0.512018 0.130696 0.511927 -0.163203
C12   C     C_R   0.257919 0.502057 0.502657 0.926411
C13   C     C_R   0.558713 0.075120 0.399143 -0.205720
C14   C     C_R   0.559307 0.949974 0.394042 0.110273
C15   C     C_R   0.518996 0.876711 0.508027 -0.150463
C16   C     C_R   0.346294 0.311658 0.139965 0.164120
C17   C     C_R   0.221553 0.271703 0.102144 0.048839
C18   C     C_R   0.195821 0.287679 0.969301 -0.349229
C19   C     C_R   0.292251 0.344992 0.876889 0.522656
C20   C     C_R   0.402365 0.423379 0.931945 -0.034539
C21   C     C_R   0.412863 0.416554 0.074688 0.003167
C22   C     C_R   0.592257 0.572730 0.068040 0.137124
C23   C     C_R   0.507147 0.741232 0.501298 0.836761
C24   C     C_R   0.597327 0.565164 0.924846 0.137294
C25   C     C_R   0.742984 0.508088 0.497632 0.884970
C26   C     C_3   0.025634 0.486998 0.627229 0.510246
C27   C     C_3   0.934720 0.402345 0.537582 0.036371
C28   C     C_3   0.878507 0.514227 0.493437 -0.110560
C29   C     C_3   0.970129 0.601614 0.583040 -0.365547
C30   C     C_3   0.067317 0.616761 0.463235 0.081168
H1    H     H_    0.106051 0.237430 0.937558 0.161530
H2    H     H_    0.943895 0.677349 0.647517 0.146334
H3    H     H_    0.056318 0.344551 0.351023 0.152961
H4    H     H_    0.595704 0.129480 0.312612 0.172383
H5    H     H_    0.452242 0.203649 0.787383 0.230059
H6    H     H_    0.341975 0.068083 0.948750 0.201129
N1    N     N_R   0.498800 0.498800 0.142780 -0.140498
N2    N     N_R   0.498760 0.498720 0.857170 -0.135522
O1    O     O_R   0.500000 0.316780 0.614690 -0.576272
O2    O     O_R   0.499990 0.316750 0.385360 -0.644596
O3    O     O_R   0.313960 0.499980 0.614650 -0.536911
O4    O     O_R   0.313940 0.499960 0.385310 -0.629434
O5    O     O_R   0.500010 0.683250 0.614640 -0.647881
O6    O     O_R   0.500000 0.683220 0.385310 -0.645508
O7    O     O_R   0.686060 0.500040 0.614690 -0.635509
O8    O     O_R   0.686040 0.500020 0.385350 -0.641696
Zn1   Zn    Zn3+2 0.500010 0.500020 0.653130 0.963450
Zn2   Zn    Zn3+2 0.499990 0.499980 0.346870 0.915368
N3    N     N_3   0.855579 0.284680 0.572773 -0.455965
H7    H     H_    0.915650 0.221507 0.592480 0.175879
H8    H     H_    0.803377 0.296372 0.661297 0.201174
O9    O     O_3   0.359509 0.836634 0.964956 -0.627687
C31   C     C_3   0.286122 0.723964 0.925075 0.086178
H9    H     H_    0.347160 0.666162 0.869306 0.177134
H10   H     H_    0.206363 0.739190 0.860775 0.143952
C32   C     C_3   0.227848 0.654755 0.049119 -0.788518
H11   H     H_    0.158018 0.706613 0.099703 0.250076
H12   H     H_    0.177853 0.561947 0.020419 0.235918
H13   H     H_    0.303682 0.644273 0.119676 0.266532
N4    N     N_3   0.605357 0.867902 0.810365 -0.451175
H14   H     H_    0.592008 0.801280 0.884964 0.200940
H15   H     H_    0.669377 0.847592 0.734650 0.170528
N5    N     N_3   0.610132 0.902625 0.273500 -0.458608
H16   H     H_    0.684521 0.856605 0.298592 0.167598
H17   H     H_    0.537551 0.844212 0.225587 0.242175
N6    N     N_3   0.692129 0.652685 0.132877 -0.490824
H18   H     H_    0.690091 0.742238 0.100355 0.157453
H19   H     H_    0.672297 0.654243 0.234928 0.241187
N7    N     N_3   0.415924 0.212221 0.159480 -0.459128
H20   H     H_    0.514352 0.243830 0.160601 0.206244
H21   H     H_    0.382231 0.164521 0.246766 0.214077
N8    N     N_3   0.139013 0.177579 0.176538 -0.449623
H22   H     H_    0.164288 0.182307 0.276657 0.178979
H23   H     H_    0.046066 0.197707 0.175677 0.183466
O10   O     O_3   0.286529 0.315863 0.740088 -0.554736
C33   C     C_3   0.184422 0.220678 0.704608 0.119322
H24   H     H_    0.091897 0.253349 0.719726 0.182386
H25   H     H_    0.183046 0.135952 0.764692 0.131765
C34   C     C_3   0.194954 0.182618 0.557900 -0.886298
H26   H     H_    0.256933 0.111455 0.545146 0.241250
H27   H     H_    0.099473 0.140570 0.522804 0.201531
H28   H     H_    0.232909 0.262314 0.493831 0.252765
N9    N     N_3   0.710694 0.618530 0.850388 -0.475637
H29   H     H_    0.684024 0.660830 0.766333 0.216417
H30   H     H_    0.769034 0.686514 0.903625 0.158212
O11   O     O_3   0.049469 0.459936 0.761200 -0.625661
C35   C     C_3   0.943393 0.478341 0.845216 0.081279
H31   H     H_    0.853335 0.471626 0.790815 0.190418
H32   H     H_    0.963937 0.570848 0.893418 0.171048
C36   C     C_3   0.915463 0.380315 0.952836 -0.883274
H33   H     H_    0.991348 0.393529 0.027287 0.266040
H34   H     H_    0.823112 0.387956 0.005743 0.228118
H35   H     H_    0.906374 0.287005 0.906618 0.243787
N10   N     N_3   0.143517 0.734187 0.423371 -0.461982
H36   H     H_    0.080845 0.789955 0.388938 0.184524
H37   H     H_    0.202912 0.717168 0.341951 0.211488
N11   N     N_3   0.948811 0.561207 0.238595 -0.468536
H38   H     H_    0.919515 0.647456 0.240401 0.185271
H39   H     H_    0.871087 0.496636 0.209529 0.221819

loop_
_geom_bond_atom_site_label_1
_geom_bond_atom_site_label_2
_ccdc_geom_bond_type
N6    H19   S    
C35   H31   S    
N5    H17   S    
C16   C21   A    
C19   C20   A    
C1    C11   S    
C33   C34   S    
N11   H38   S    
C7    C8    A    
C31   H9    S    
C25   C28   S    
C26   C27   S    
C12   O3    A    
C28   C29   S    
C24   N9    S    
C33   H25   S    
C7    O9    S    
C29   H2    S    
C5    C6    A    
C3    H3    S    
C23   O5    A    
C32   H11   S    
N4    H15   S    
C18   C19   A    
O7    Zn1   S    
N7    H21   S    
C22   N6    S    
C12   O4    A    
C1    O2    A    
C2    N11   S    
C6    H6    S    
C8    C9    A    
N3    H8    S    
C24   N2    A    
C4    C12   S    
C9    C10   A    
C15   C23   S    
N6    H18   S    
C13   C14   A    
N7    H20   S    
N11   H39   S    
C31   H10   S    
O8    Zn2   S    
C33   H24   S    
N8    H23   S    
C34   H27   S    
O11   C35   S    
C16   C17   A    
C22   N1    A    
C23   O6    A    
C34   H26   S    
N4    H14   S    
O10   C33   S    
C29   C30   S    
C20   N2    A    
C36   H34   S    
N9    H29   S    
C26   O11   S    
C17   C18   A    
O3    Zn1   S    
O4    Zn2   S    
N1    Zn2   S    
N10   H37   S    
N2    Zn1   S    
C26   C29   S    
N9    H30   S    
C35   H32   S    
C22   C24   A    
C3    C4    S    
C25   O7    A    
O9    C31   S    
C36   H35   S    
O1    Zn1   S    
C31   C32   S    
O2    Zn2   S    
C16   N7    S    
N8    H22   S    
C34   H28   S    
C4    C26   S    
C6    C7    A    
C32   H13   S    
C2    C30   S    
C19   O10   S    
C2    C3    S    
C9    C15   A    
C5    C10   A    
C30   N10   S    
C8    N4    S    
C11   C13   A    
C36   H33   S    
C14   N5    S    
C5    H5    S    
C3    C27   S    
C32   H12   S    
N10   H36   S    
C10   C11   A    
C1    O1    A    
N5    H16   S    
O6    Zn2   S    
C13   H4    S    
C21   N1    A    
C20   C21   A    
C17   N8    S    
N3    H7    S    
C35   C36   S    
C27   C28   S    
C14   C15   A    
C2    C28   S    
C18   H1    S    
O5    Zn1   S    
C25   O8    A    
C4    C30   S    
C27   N3    S    
