data_mof_unit_51518.cif
_audit_creation_date              2012-10-26T17:11:12-0400
_audit_creation_method            fapswitch 2.2
_symmetry_space_group_name_H-M    P1
_symmetry_Int_Tables_number       1
_space_group_crystal_system       triclinic
_cell_length_a                    27.91015
_cell_length_b                    18.730084
_cell_length_c                    16.808383
_cell_angle_alpha                 89.779148
_cell_angle_beta                  63.018235
_cell_angle_gamma                 90.033027
_cell_volume                      7830.2280126

loop_
_atom_site_label
_atom_site_type_symbol
_atom_type_description
_atom_site_fract_x
_atom_site_fract_y
_atom_site_fract_z
_atom_type_partial_charge
C1    C     C_R   0.293524 0.725704 0.330541 0.823265
C2    C     C_R   0.703946 0.269298 0.670987 0.834865
C3    C     C_R   0.703877 0.730360 0.671038 0.800913
C4    C     C_R   0.296036 0.269867 0.328999 0.815258
C5    C     C_R   0.795654 0.229317 0.329182 0.812424
C6    C     C_R   0.204674 0.770942 0.670684 0.812053
C7    C     C_R   0.204007 0.230059 0.671009 0.799115
C8    C     C_R   0.796003 0.769874 0.329066 0.815596
C9    C     C_R   0.525139 0.871130 0.593953 -0.191122
C10   C     C_R   0.422899 0.127641 0.582732 -0.195478
C11   C     C_R   0.422756 0.871792 0.582906 -0.205484
C12   C     C_R   0.525122 0.128179 0.594333 -0.187093
C13   C     C_R   0.076880 0.372371 0.417854 -0.209689
C14   C     C_R   0.974778 0.628882 0.406232 -0.188518
C15   C     C_R   0.974739 0.371840 0.406094 -0.191419
C16   C     C_R   0.077051 0.628239 0.417598 -0.198505
C17   C     C_R   0.230837 0.777895 0.942833 0.064251
C18   C     C_R   0.777572 0.233977 0.049986 0.079218
C19   C     C_R   0.780027 0.760736 0.047893 0.028164
C20   C     C_R   0.227646 0.228183 0.944774 0.078575
C21   C     C_R   0.722635 0.263157 0.949476 0.063716
C22   C     C_R   0.287465 0.750544 0.041765 0.074089
C23   C     C_R   0.283398 0.255654 0.044643 0.059145
C24   C     C_R   0.725698 0.731569 0.946465 0.080469
C25   C     C_R   0.223386 0.712285 0.988443 0.006181
C26   C     C_R   0.787977 0.298557 0.000817 0.011928
C27   C     C_R   0.797529 0.704008 0.986184 0.021468
C28   C     C_R   0.212775 0.287212 0.003541 0.022598
C29   C     C_R   0.712606 0.198488 0.997734 0.002795
C30   C     C_R   0.295675 0.815959 0.994896 0.008256
C31   C     C_R   0.297841 0.196296 0.986963 0.040260
C32   C     C_R   0.707939 0.788097 0.008978 0.027248
C33   C     C_R   0.251248 0.700082 0.038547 -0.209280
C34   C     C_R   0.759870 0.312317 0.951510 -0.249781
C35   C     C_R   0.770616 0.691098 0.934670 -0.226686
C36   C     C_R   0.241287 0.300233 0.052311 -0.273359
C37   C     C_R   0.739812 0.185237 0.048726 -0.201257
C38   C     C_R   0.266641 0.828924 0.946495 -0.256374
C39   C     C_R   0.270608 0.184533 0.935615 -0.225864
C40   C     C_R   0.735591 0.801794 0.058923 -0.284007
C41   C     C_R   0.150285 0.834776 0.941895 0.210155
C42   C     C_R   0.856976 0.175546 0.052595 0.246279
C43   C     C_R   0.857595 0.823680 0.052385 0.202664
C44   C     C_R   0.147724 0.168661 0.944080 0.237380
C45   C     C_R   0.646102 0.327362 0.944399 0.221329
C46   C     C_R   0.363082 0.685922 0.050639 0.239998
C47   C     C_R   0.361725 0.315977 0.049086 0.213274
C48   C     C_R   0.647770 0.668694 0.943682 0.233818
C49   C     C_R   0.117784 0.849558 0.898124 -0.137315
C50   C     C_R   0.886453 0.155940 0.099477 -0.138327
C51   C     C_R   0.886617 0.843705 0.099807 -0.118254
C52   C     C_R   0.115194 0.154617 0.900319 -0.123003
C53   C     C_R   0.615957 0.347038 0.898120 -0.175985
C54   C     C_R   0.381125 0.647162 0.105004 -0.192617
C55   C     C_R   0.388284 0.341323 0.098615 -0.141634
C56   C     C_R   0.615234 0.654451 0.900035 -0.127921
C57   C     C_R   0.131483 0.818130 0.814396 -0.082759
C58   C     C_R   0.870931 0.183873 0.185605 -0.073424
C59   C     C_R   0.871392 0.814998 0.185623 -0.088570
C60   C     C_R   0.128042 0.188785 0.817844 -0.070809
C61   C     C_R   0.629948 0.316325 0.813568 -0.069478
C62   C     C_R   0.353079 0.653761 0.198581 -0.086451
C63   C     C_R   0.371789 0.315052 0.185971 -0.089577
C64   C     C_R   0.627899 0.688773 0.817642 -0.061121
C65   C     C_R   0.182709 0.787373 0.766347 -0.113485
C66   C     C_R   0.819372 0.214550 0.232733 -0.122287
C67   C     C_R   0.820391 0.782809 0.232095 -0.124240
C68   C     C_R   0.180910 0.215229 0.767511 -0.138391
C69   C     C_R   0.679828 0.281665 0.767988 -0.082602
C70   C     C_R   0.315141 0.708403 0.235585 -0.127664
C71   C     C_R   0.321135 0.281747 0.231609 -0.114793
C72   C     C_R   0.680478 0.716198 0.767706 -0.142289
C73   C     C_R   0.215180 0.775684 0.808962 -0.286466
C74   C     C_R   0.788684 0.228669 0.187635 -0.222123
C75   C     C_R   0.790856 0.765759 0.185867 -0.245966
C76   C     C_R   0.213963 0.224970 0.809405 -0.226030
C77   C     C_R   0.709316 0.263751 0.813879 -0.290633
C78   C     C_R   0.295626 0.743635 0.182413 -0.232731
C79   C     C_R   0.292856 0.262366 0.184057 -0.273889
C80   C     C_R   0.712916 0.727681 0.810308 -0.222987
C81   C     C_R   0.198156 0.796408 0.896984 0.019696
C82   C     C_R   0.808473 0.212704 0.097468 0.100667
C83   C     C_R   0.810498 0.782794 0.095794 -0.007859
C84   C     C_R   0.195920 0.206742 0.898583 0.103739
C85   C     C_R   0.691387 0.283718 0.902275 0.018864
C86   C     C_R   0.317350 0.729271 0.091389 0.124779
C87   C     C_R   0.314180 0.276164 0.092815 0.015430
C88   C     C_R   0.694936 0.708892 0.899249 0.103738
C89   C     C_R   0.200953 0.631159 0.511703 0.808293
C90   C     C_R   0.803653 0.368283 0.471386 0.812521
C91   C     C_R   0.803648 0.631801 0.471414 0.813506
C92   C     C_R   0.200974 0.368874 0.511638 0.821314
C93   C     C_R   0.696334 0.131720 0.528641 0.813643
C94   C     C_R   0.299032 0.868840 0.488353 0.825004
C95   C     C_R   0.299019 0.131129 0.488393 0.829459
C96   C     C_R   0.696341 0.868202 0.528600 0.807304
C97   C     C_R   0.928418 0.900138 0.064662 0.844391
C98   C     C_R   0.072166 0.099411 0.935141 0.857209
C99   C     C_R   0.073125 0.901967 0.934483 0.816112
C100  C     C_R   0.928554 0.100024 0.064326 0.845384
C101  C     C_R   0.428930 0.399459 0.064202 0.793081
C102  C     C_R   0.572248 0.599271 0.935022 0.852891
C103  C     C_R   0.572707 0.401424 0.934499 0.787099
C104  C     C_R   0.426017 0.596298 0.066610 0.831734
C105  C     C_R   0.069618 0.500253 0.434828 0.026072
C106  C     C_R   0.972218 0.500304 0.420477 0.024596
C107  C     C_R   0.527648 0.999720 0.579907 0.024576
C108  C     C_R   0.430212 0.999772 0.565647 0.024874
C109  C     C_R   0.047974 0.565540 0.423206 0.052894
C110  C     C_R   0.998757 0.434959 0.416450 0.045067
C111  C     C_R   0.998794 0.565682 0.416465 0.047116
C112  C     C_R   0.047908 0.435047 0.423277 0.051388
C113  C     C_R   0.501076 0.065062 0.584043 0.047636
C114  C     C_R   0.451854 0.934487 0.577264 0.049983
C115  C     C_R   0.451898 0.064975 0.577267 0.055036
C116  C     C_R   0.501067 0.934342 0.583916 0.048247
C117  C     C_R   0.137172 0.434974 0.463917 0.061876
C118  C     C_R   0.892639 0.565620 0.430943 0.059042
C119  C     C_R   0.892632 0.434871 0.430874 0.059518
C120  C     C_R   0.137238 0.565336 0.463815 0.060799
C121  C     C_R   0.607303 0.934390 0.569170 0.063323
C122  C     C_R   0.362724 0.065047 0.536375 0.061489
C123  C     C_R   0.362668 0.934679 0.536452 0.060982
C124  C     C_R   0.607300 0.065151 0.569292 0.054287
C125  C     C_R   0.176799 0.435088 0.496470 -0.119571
C126  C     C_R   0.836844 0.565532 0.451892 -0.119085
C127  C     C_R   0.836842 0.434742 0.451859 -0.115578
C128  C     C_R   0.176819 0.565029 0.496448 -0.119095
C129  C     C_R   0.663118 0.934473 0.548152 -0.117929
C130  C     C_R   0.323187 0.064925 0.503616 -0.117196
C131  C     C_R   0.323172 0.934977 0.503629 -0.117819
C132  C     C_R   0.663115 0.065272 0.548209 -0.115405
C133  C     C_R   0.194669 0.500010 0.513624 -0.273297
C134  C     C_R   0.810436 0.500084 0.461799 -0.261889
C135  C     C_R   0.689522 0.999925 0.538236 -0.263609
C136  C     C_R   0.305393 0.999999 0.486311 -0.271402
C137  C     C_R   0.114137 0.500181 0.455764 0.080604
C138  C     C_R   0.918986 0.500266 0.427784 0.082688
C139  C     C_R   0.580924 0.999754 0.572452 0.082087
C140  C     C_R   0.385737 0.999840 0.544594 0.079431
C141  C     C_R   0.576057 0.871637 0.589629 -0.174078
C142  C     C_R   0.378454 0.127066 0.566179 -0.186667
C143  C     C_R   0.378296 0.872480 0.566406 -0.185533
C144  C     C_R   0.576054 0.127717 0.589947 -0.152013
C145  C     C_R   0.121375 0.372951 0.434239 -0.191722
C146  C     C_R   0.923897 0.628364 0.410417 -0.162806
C147  C     C_R   0.923874 0.372312 0.410243 -0.160879
C148  C     C_R   0.121553 0.627541 0.433965 -0.187979
Cu1   Cu    Cu3+1 0.209920 0.785290 0.495070 0.932633
Cu2   Cu    Cu3+1 0.790080 0.214710 0.504930 0.934268
Cu3   Cu    Cu3+1 0.790080 0.785290 0.504930 0.937297
Cu4   Cu    Cu3+1 0.209920 0.214710 0.495070 0.929246
Cu5   Cu    Cu3+1 0.709920 0.285290 0.495070 0.954013
Cu6   Cu    Cu3+1 0.290080 0.714710 0.504930 0.987398
Cu7   Cu    Cu3+1 0.290080 0.285290 0.504930 0.947253
Cu8   Cu    Cu3+1 0.709920 0.714710 0.495070 0.937930
Cu9   Cu    Cu3+1 0.495240 0.500000 0.924150 0.937774
Cu10  Cu    Cu3+1 0.504760 0.500000 0.075850 0.979233
Cu11  Cu    Cu3+1 0.995240 1.000000 0.924150 0.967473
Cu12  Cu    Cu3+1 0.004760 1.000000 0.075850 0.943227
H1    H     H_    0.224027 0.499940 0.539163 0.192266
H2    H     H_    0.767875 0.499990 0.480154 0.188138
H3    H     H_    0.732089 0.000017 0.519834 0.187308
H4    H     H_    0.276127 0.000070 0.460579 0.188779
H5    H     H_    0.589303 0.821703 0.604669 0.167875
H6    H     H_    0.356442 0.176314 0.580854 0.178925
H7    H     H_    0.356180 0.823168 0.581238 0.178827
H8    H     H_    0.589326 0.177514 0.605088 0.199711
H9    H     H_    0.143377 0.323698 0.419480 0.180918
H10   H     H_    0.910694 0.678266 0.395184 0.181819
H11   H     H_    0.910661 0.322541 0.394905 0.180430
H12   H     H_    0.143664 0.676856 0.419054 0.178670
H13   H     H_    0.505826 0.819729 0.605050 0.138509
H14   H     H_    0.432898 0.178434 0.601174 0.137132
H15   H     H_    0.432668 0.820897 0.601510 0.137878
H16   H     H_    0.505771 0.179459 0.605706 0.140145
H17   H     H_    0.066846 0.321559 0.399521 0.137144
H18   H     H_    0.994117 0.680271 0.395029 0.138265
H19   H     H_    0.994071 0.320554 0.394784 0.139420
H20   H     H_    0.067105 0.679151 0.399090 0.135474
H21   H     H_    0.271572 0.879330 0.911620 0.138005
H22   H     H_    0.732715 0.135837 0.086272 0.175477
H23   H     H_    0.723200 0.845783 0.105778 0.145278
H24   H     H_    0.280944 0.139016 0.891265 0.175421
H25   H     H_    0.766560 0.362081 0.914704 0.136090
H26   H     H_    0.245637 0.650066 0.074466 0.174791
H27   H     H_    0.231062 0.346014 0.096298 0.138587
H28   H     H_    0.783156 0.647428 0.887410 0.177795
H29   H     H_    0.253927 0.749830 0.774163 0.172588
H30   H     H_    0.749623 0.253832 0.221790 0.169201
H31   H     H_    0.752455 0.738564 0.219452 0.179625
H32   H     H_    0.253479 0.248957 0.773721 0.166519
H33   H     H_    0.746837 0.234761 0.780902 0.177598
H34   H     H_    0.262122 0.780297 0.212043 0.171187
H35   H     H_    0.254163 0.235874 0.217523 0.174362
H36   H     H_    0.751927 0.753138 0.775308 0.169530
O1    O     O_R   0.255040 0.869590 0.478480 -0.582688
O2    O     O_R   0.744960 0.130410 0.521520 -0.584110
O3    O     O_R   0.744960 0.869590 0.521520 -0.580850
O4    O     O_R   0.255040 0.130410 0.478480 -0.581039
O5    O     O_R   0.755040 0.369590 0.478480 -0.581892
O6    O     O_R   0.244960 0.630410 0.521520 -0.579574
O7    O     O_R   0.244960 0.369590 0.521520 -0.578947
O8    O     O_R   0.755040 0.630410 0.478480 -0.578817
O9    O     O_R   0.182050 0.796550 0.624440 -0.610033
O10   O     O_R   0.817950 0.203450 0.375560 -0.619008
O11   O     O_R   0.817950 0.796550 0.375560 -0.614440
O12   O     O_R   0.182050 0.203450 0.624440 -0.609477
O13   O     O_R   0.682050 0.296550 0.624440 -0.591925
O14   O     O_R   0.317950 0.703450 0.375560 -0.535032
O15   O     O_R   0.317950 0.296550 0.375560 -0.604377
O16   O     O_R   0.682050 0.703450 0.624440 -0.612796
O17   O     O_R   0.250530 0.763330 0.367210 -0.607070
O18   O     O_R   0.749470 0.236670 0.632790 -0.588335
O19   O     O_R   0.749470 0.763330 0.632790 -0.574480
O20   O     O_R   0.250530 0.236670 0.367210 -0.594714
O21   O     O_R   0.750530 0.263330 0.367210 -0.576824
O22   O     O_R   0.249470 0.736670 0.632790 -0.595809
O23   O     O_R   0.249470 0.263330 0.632790 -0.587144
O24   O     O_R   0.750530 0.736670 0.367210 -0.579749
O25   O     O_R   0.177260 0.690030 0.513710 -0.598411
O26   O     O_R   0.822740 0.309970 0.486290 -0.598334
O27   O     O_R   0.822740 0.690030 0.486290 -0.597322
O28   O     O_R   0.177260 0.309970 0.513710 -0.603263
O29   O     O_R   0.677260 0.190030 0.513710 -0.595677
O30   O     O_R   0.322740 0.809970 0.486290 -0.592518
O31   O     O_R   0.322740 0.190030 0.486290 -0.594003
O32   O     O_R   0.677260 0.809970 0.513710 -0.599120
O33   O     O_R   0.051640 0.926880 0.885090 -0.593208
O34   O     O_R   0.948360 0.073120 0.114910 -0.589897
O35   O     O_R   0.948360 0.926880 0.114910 -0.599231
O36   O     O_R   0.051640 0.073120 0.885090 -0.560126
O37   O     O_R   0.551640 0.426880 0.885090 -0.614879
O38   O     O_R   0.448360 0.573120 0.114910 -0.540912
O39   O     O_R   0.448360 0.426880 0.114910 -0.588592
O40   O     O_R   0.551640 0.573120 0.885090 -0.554780
O41   O     O_R   0.940620 0.926560 0.986760 -0.553070
O42   O     O_R   0.059380 0.073440 0.013240 -0.594732
O43   O     O_R   0.059380 0.926560 0.013240 -0.595071
O44   O     O_R   0.940620 0.073440 0.986760 -0.576058
O45   O     O_R   0.440620 0.426560 0.986760 -0.596534
O46   O     O_R   0.559380 0.573440 0.013240 -0.596463
O47   O     O_R   0.559380 0.426560 0.013240 -0.585729
O48   O     O_R   0.440620 0.573440 0.986760 -0.579673
C149  C     C_2   0.186448 0.656534 0.984887 0.340182
H37   H     H_    0.164393 0.665191 0.946670 0.105151
O49   O     O_2   0.180100 0.599934 0.024797 -0.539725
C150  C     C_2   0.827275 0.353254 0.998447 0.382283
H38   H     H_    0.834280 0.400543 0.957026 0.088278
O50   O     O_2   0.851971 0.347162 0.042226 -0.506509
C151  C     C_2   0.842881 0.657327 0.976479 0.353812
H39   H     H_    0.862753 0.665141 0.018266 0.101866
O51   O     O_2   0.858645 0.609289 0.921643 -0.538631
C152  C     C_2   0.168426 0.337078 0.016273 0.391525
H40   H     H_    0.156467 0.377720 0.067591 0.084273
O52   O     O_2   0.145288 0.334717 0.969739 -0.509596
C153  C     C_2   0.673936 0.144889 0.995552 0.343078
H41   H     H_    0.652522 0.154567 0.956492 0.102076
O53   O     O_2   0.665454 0.088984 0.037472 -0.536784
C154  C     C_2   0.333525 0.872048 0.994160 0.378487
H42   H     H_    0.337933 0.921052 0.956706 0.102323
O54   O     O_2   0.360124 0.864914 0.034632 -0.510664
C155  C     C_2   0.339714 0.145218 0.982227 0.339589
H43   H     H_    0.358742 0.151369 0.025543 0.097712
O55   O     O_2   0.353431 0.095321 0.930026 -0.549205
C156  C     C_2   0.661520 0.834822 0.024178 0.382987
H44   H     H_    0.647116 0.872789 0.078725 0.087992
O56   O     O_2   0.639435 0.832996 0.976013 -0.517225
N1    N     N_2   0.136537 0.857789 0.030378 -0.439191
H45   H     H_    0.133757 0.912033 0.040982 0.259016
C157  C     C_3   0.097256 0.814369 0.101469 -0.571875
H46   H     H_    0.091127 0.835627 0.166967 0.205347
H47   H     H_    0.111633 0.758560 0.095871 0.224066
H48   H     H_    0.058227 0.814589 0.098952 0.268708
N2    N     N_2   0.877026 0.163003 0.959223 -0.415589
H49   H     H_    0.917225 0.173410 0.919200 0.300853
C158  C     C_3   0.854472 0.103121 0.933012 -0.632316
H50   H     H_    0.835963 0.122879 0.891012 0.230650
H51   H     H_    0.823401 0.074389 0.991847 0.215346
H52   H     H_    0.886661 0.064641 0.893217 0.231853
N3    N     N_2   0.874763 0.845908 0.962106 -0.434667
H53   H     H_    0.845020 0.859671 0.944603 0.253731
C159  C     C_3   0.918665 0.805878 0.894452 -0.555576
H54   H     H_    0.948003 0.843617 0.845461 0.242270
H55   H     H_    0.903256 0.770344 0.858467 0.208824
H56   H     H_    0.939894 0.772954 0.923768 0.253177
N4    N     N_2   0.130938 0.150547 0.035515 -0.415765
H57   H     H_    0.091170 0.160377 0.078621 0.293844
C160  C     C_3   0.152406 0.084693 0.051706 -0.665629
H58   H     H_    0.134390 0.074144 0.124620 0.219824
H59   H     H_    0.196488 0.088468 0.025985 0.230741
H60   H     H_    0.143464 0.039055 0.018741 0.223928
N5    N     N_2   0.632922 0.351200 0.032373 -0.442166
H61   H     H_    0.632803 0.405547 0.041412 0.260004
C161  C     C_3   0.591565 0.310797 0.104340 -0.555769
H62   H     H_    0.585849 0.332525 0.169406 0.212103
H63   H     H_    0.603513 0.253997 0.100793 0.223525
H64   H     H_    0.552899 0.313905 0.100805 0.265021
N6    N     N_2   0.390447 0.683321 0.955516 -0.405193
H65   H     H_    0.431587 0.689472 0.926616 0.312202
C162  C     C_3   0.370820 0.632367 0.912332 -0.626719
H66   H     H_    0.355769 0.661639 0.870676 0.228481
H67   H     H_    0.337841 0.598615 0.961631 0.215978
H68   H     H_    0.403948 0.596684 0.868229 0.226339
N7    N     N_2   0.380662 0.330947 0.956393 -0.442825
H69   H     H_    0.377343 0.383249 0.940360 0.268060
C163  C     C_3   0.429236 0.294339 0.895796 -0.562031
H70   H     H_    0.437845 0.306366 0.825849 0.213541
H71   H     H_    0.424268 0.235828 0.906083 0.231408
H72   H     H_    0.464143 0.311379 0.905865 0.244168
N8    N     N_2   0.632428 0.647876 0.033833 -0.419369
H73   H     H_    0.592921 0.656794 0.079022 0.284268
C164  C     C_3   0.655470 0.581795 0.045667 -0.653115
H74   H     H_    0.640807 0.571053 0.117994 0.223176
H75   H     H_    0.699882 0.585415 0.014112 0.229624
H76   H     H_    0.644135 0.536363 0.015502 0.224058
C165  C     C_2   0.090571 0.812115 0.781363 0.433705
H77   H     H_    0.094708 0.841823 0.723103 0.086149
O57   O     O_2   0.050828 0.774866 0.821523 -0.554361
C166  C     C_2   0.910632 0.186324 0.221665 0.430779
H78   H     H_    0.903855 0.157366 0.281795 0.078318
O58   O     O_2   0.952715 0.219171 0.181441 -0.525812
C167  C     C_2   0.910430 0.814037 0.222931 0.416208
H79   H     H_    0.904375 0.847033 0.279571 0.086640
O59   O     O_2   0.950791 0.777363 0.188072 -0.562196
C168  C     C_2   0.084685 0.206708 0.792053 0.416416
H80   H     H_    0.093587 0.224555 0.725630 0.096536
O60   O     O_2   0.037497 0.207199 0.847725 -0.535315
C169  C     C_2   0.591337 0.314980 0.775412 0.406008
H81   H     H_    0.583507 0.362740 0.746567 0.090150
O61   O     O_2   0.569505 0.259043 0.773267 -0.565929
C170  C     C_2   0.356023 0.596493 0.257842 0.441866
H82   H     H_    0.329126 0.550938 0.274323 0.012793
O62   O     O_2   0.388270 0.600195 0.288210 -0.498210
C171  C     C_2   0.409295 0.317595 0.226173 0.452524
H83   H     H_    0.403156 0.355458 0.278618 0.089206
O63   O     O_2   0.448105 0.277924 0.198946 -0.557241
C172  C     C_2   0.584559 0.706101 0.791677 0.407797
H84   H     H_    0.593336 0.722726 0.724884 0.080821
O64   O     O_2   0.537489 0.707519 0.847632 -0.554232

loop_
_geom_bond_atom_site_label_1
_geom_bond_atom_site_label_2
_ccdc_geom_bond_type
C10   H14   S    
C96   O3    A    
C51   C97   S    
Cu9   Cu10  S    
C79   C87   A    
C162  H66   S    
C102  O40   A    
C38   H21   S    
Cu5   O29   S    
C13   C112  A    
C19   C83   S    
C3    O19   A    
C157  H46   S    
Cu4   O4    S    
C31   C155  S    
C27   C151  S    
C107  C113  A    
C6    O9    A    
C152  O52   D    
C7    C68   S    
C74   H30   S    
C5    O21   A    
C147  H11   S    
N4    C160  S    
C168  H80   S    
C123  C131  A    
Cu8   O32   S    
Cu3   O19   S    
C149  H37   S    
C73   C81   A    
C26   C150  S    
C16   C109  A    
Cu5   O5    S    
C80   H36   S    
C167  H79   S    
C155  H43   S    
Cu2   O18   S    
C57   C65   A    
C171  O63   D    
C20   C28   A    
C27   C35   A    
C21   C29   A    
C29   C153  S    
C23   C31   A    
C48   N8    S    
C24   C32   A    
Cu8   O24   S    
C92   O7    A    
C98   O36   A    
C105  C112  A    
C63   C71   A    
C2    O18   A    
N1    C157  S    
Cu12  O34   S    
C136  H4    S    
C162  H68   S    
C155  O55   D    
C9    C116  A    
C135  H3    S    
C97   O41   A    
C50   C100  S    
C1    C70   S    
C60   C68   A    
C17   C25   A    
C3    C72   S    
Cu6   O14   S    
C62   C170  S    
C52   C98   S    
C18   C82   S    
C95   O31   A    
C171  H83   S    
C93   O29   A    
C126  C134  A    
C80   C88   A    
C23   C36   A    
Cu3   O11   S    
C118  C138  A    
C11   C143  A    
C4    C71   S    
C47   C87   A    
C96   C129  S    
C113  C115  A    
C15   C147  A    
C4    O20   A    
C15   H19   S    
C43   C83   A    
C124  C139  A    
C69   C77   A    
C127  C134  A    
C60   C168  S    
C75   C83   A    
C92   C125  S    
C71   C79   A    
C161  H63   S    
C12   C144  A    
Cu4   O20   S    
Cu7   O31   S    
C30   C154  S    
C96   O32   A    
C108  C115  A    
C109  C111  A    
C89   O25   A    
C164  H75   S    
C49   C99   S    
C66   C74   A    
C79   H35   S    
C124  C132  A    
C153  H41   S    
Cu10  O46   S    
C77   H33   S    
C52   C60   A    
C59   C67   A    
C43   N3    S    
C53   C61   A    
C35   H28   S    
N7    C163  S    
C55   C63   A    
C95   C130  S    
Cu11  O44   S    
C56   C64   A    
C41   N1    S    
C33   H26   S    
C102  O46   A    
C2    C69   S    
Cu5   O21   S    
C91   O8    A    
C12   H16   S    
C40   H23   S    
C44   C52   A    
C104  O38   A    
C89   O6    A    
C77   C85   A    
C158  H50   S    
C159  H56   S    
C169  O61   D    
Cu7   O7    S    
C99   O33   A    
Cu1   O17   S    
C106  C111  A    
C170  H82   S    
Cu2   O10   S    
C131  C136  A    
C130  C136  A    
C167  O59   D    
C166  O58   D    
C8    O11   A    
C75   H31   S    
Cu4   O28   S    
N5    H61   S    
C76   H32   S    
C142  H6    S    
C160  H58   S    
C47   N7    S    
C63   C171  S    
C9    H13   S    
C143  H7    S    
C14   H18   S    
C156  O56   D    
C42   C50   A    
C172  O64   D    
C20   C84   S    
C78   H34   S    
C67   C75   A    
C44   N4    S    
C105  C109  A    
C2    O13   A    
C22   C30   A    
C119  C138  A    
Cu4   O12   S    
C154  H42   S    
C114  C116  A    
N3    C159  S    
C141  H5    S    
C163  H72   S    
C121  C139  A    
N8    C164  S    
C122  C140  A    
C72   C80   A    
Cu10  O38   S    
Cu3   O27   S    
C100  O44   A    
C17   C38   A    
C107  C139  A    
C110  C112  A    
C107  C116  A    
C19   C40   A    
C105  C137  A    
C8    C67   S    
C158  H52   S    
C159  H54   S    
C168  O60   D    
C117  C125  A    
C16   H20   S    
C25   C33   A    
C119  C127  A    
C157  H48   S    
Cu12  O43   S    
N2    H49   S    
C18   C26   A    
C76   C84   A    
C151  H39   S    
C64   C172  S    
C4    O15   A    
Cu6   O30   S    
C54   C104  S    
Cu9   O48   S    
Cu8   O16   S    
C119  C147  A    
C160  H60   S    
C117  C145  A    
C10   C142  A    
C108  C114  A    
C165  O57   D    
C5    O10   A    
C6    O22   A    
C6    C65   S    
C150  O50   D    
C95   O4    A    
Cu2   Cu5   S    
C90   C127  S    
C48   C88   A    
Cu7   O23   S    
C13   C145  A    
C99   O43   A    
C103  O37   A    
N1    H45   S    
Cu2   O26   S    
C15   C110  A    
C74   C82   A    
Cu6   O6    S    
C21   C85   S    
C162  H67   S    
C145  H9    S    
C163  H70   S    
C50   C58   A    
C121  C141  A    
C46   N6    S    
Cu1   O9    S    
C161  H62   S    
C20   C39   A    
C5    C66   S    
C21   C34   A    
C54   C62   A    
C34   H25   S    
N6    H65   S    
C152  H40   S    
N4    H57   S    
Cu4   Cu7   S    
C92   O28   A    
C41   C81   A    
C46   C54   A    
Cu3   Cu8   S    
C24   C88   S    
C42   N2    S    
C149  O49   D    
C1    O17   A    
C68   C76   A    
C91   O27   A    
Cu11  O33   S    
C150  H38   S    
C55   C101  S    
C59   C167  S    
C121  C129  A    
C44   C84   A    
C120  C128  A    
Cu9   O40   S    
C98   O42   A    
C41   C49   A    
C11   H15   S    
C94   C131  S    
C36   H27   S    
Cu11  O36   S    
C94   O1    A    
C100  O34   A    
Cu5   O13   S    
C43   C51   A    
C164  H74   S    
C53   C103  S    
C13   H17   S    
C37   H22   S    
C17   C81   S    
Cu10  O47   S    
C22   C86   S    
C58   C166  S    
C106  C138  A    
C94   O30   A    
C56   C102  S    
C28   C36   A    
N7    H69   S    
C29   C37   A    
C120  C137  A    
Cu2   O2    S    
C73   H29   S    
C89   C128  S    
C25   C149  S    
N8    H73   S    
C91   C126  S    
C70   C78   A    
C169  H81   S    
C42   C82   A    
Cu1   Cu6   S    
C49   C57   A    
Cu12  O42   S    
C144  H8    S    
N2    C158  S    
C18   C37   A    
C28   C152  S    
C90   O26   A    
C151  O51   D    
C146  H10   S    
C65   C73   A    
C11   C114  A    
Cu9   O45   S    
C160  H59   S    
C26   C34   A    
Cu11  Cu12  S    
C101  O39   A    
C103  O47   A    
C57   C165  S    
Cu6   O22   S    
C101  O45   A    
C48   C56   A    
C90   O5    A    
C7    O23   A    
C78   C86   A    
C64   C72   A    
C129  C135  A    
C62   C70   A    
Cu1   O25   S    
C58   C66   A    
C161  H64   S    
C14   C111  A    
C24   C35   A    
Cu3   O3    S    
C118  C146  A    
C154  O54   D    
C108  C140  A    
C9    C141  A    
C164  H76   S    
N3    H53   S    
C104  O48   A    
C123  C140  A    
C134  H2    S    
C153  O53   D    
C45   C85   A    
C8    O24   A    
Cu10  O39   S    
C125  C133  A    
Cu11  O41   S    
Cu12  O35   S    
C32   C156  S    
N6    C162  S    
C158  H51   S    
C51   C59   A    
C122  C142  A    
C93   C132  S    
C19   C27   A    
C47   C55   A    
C12   C113  A    
C106  C110  A    
C61   C69   A    
C3    O16   A    
C157  H47   S    
C22   C33   A    
C1    O14   A    
C45   N5    S    
C117  C137  A    
C39   H24   S    
C7    O12   A    
C133  H1    S    
C120  C148  A    
C14   C146  A    
C16   C148  A    
C166  H78   S    
Cu7   O15   S    
C93   O2    A    
C163  H71   S    
N5    C161  S    
C128  C133  A    
Cu9   O37   S    
C97   O35   A    
C132  C135  A    
C148  H12   S    
C31   C39   A    
C32   C40   A    
C165  H77   S    
C156  H44   S    
C45   C53   A    
C170  O62   D    
C172  H84   S    
C123  C143  A    
C124  C144  A    
C23   C87   S    
C118  C126  A    
C30   C38   A    
C61   C169  S    
C122  C130  A    
Cu8   O8    S    
C10   C115  A    
Cu1   O1    S    
C159  H55   S    
C46   C86   A    
