data_mof_unit_38116.cif
_audit_creation_date              2012-12-10T20:06:23-0500
_audit_creation_method            fapswitch 2.2
_symmetry_space_group_name_H-M    P1
_symmetry_Int_Tables_number       1
_space_group_crystal_system       triclinic
_cell_length_a                    19.326599
_cell_length_b                    18.510287
_cell_length_c                    10.734439
_cell_angle_alpha                 89.995664
_cell_angle_beta                  90.600159
_cell_angle_gamma                 90.072649
_cell_volume                      3839.93404323

loop_
_atom_site_label
_atom_site_type_symbol
_atom_type_description
_atom_site_fract_x
_atom_site_fract_y
_atom_site_fract_z
_atom_type_partial_charge
C1    C     C_R   0.365955 0.500088 0.501832 0.926018
C2    C     C_R   0.634048 0.500178 0.497773 0.925956
C3    C     C_R   0.852615 0.498743 0.490051 0.040059
C4    C     C_R   0.147355 0.499217 0.496749 0.039799
C5    C     C_R   0.816237 0.548346 0.415860 -0.200989
C6    C     C_R   0.182623 0.548007 0.574481 -0.200644
C7    C     C_R   0.744508 0.549958 0.417569 0.377587
C8    C     C_R   0.254390 0.549240 0.577393 0.377102
C9    C     C_R   0.708813 0.500522 0.493285 -0.125944
C10   C     C_R   0.291164 0.500256 0.502813 -0.124848
C11   C     C_R   0.964157 0.564378 0.491703 -0.178675
C12   C     C_R   0.035788 0.564505 0.492328 -0.179015
C13   C     C_R   0.071954 0.498955 0.493181 0.130832
C14   C     C_R   0.928024 0.498700 0.490000 0.130759
C15   C     C_R   0.035853 0.433252 0.491596 -0.171953
C16   C     C_R   0.964168 0.433132 0.489206 -0.172465
C17   C     C_R   0.558766 0.725977 0.530059 -0.015592
C18   C     C_R   0.441161 0.725733 0.470061 -0.017135
C19   C     C_R   0.560837 0.802130 0.530908 -0.072859
C20   C     C_R   0.438939 0.801868 0.469355 -0.072455
C21   C     C_R   0.499868 0.842178 0.500042 0.034048
C22   C     C_R   0.506289 0.500270 0.260072 0.903707
C23   C     C_R   0.493589 0.500231 0.739875 0.903998
C24   C     C_R   0.446286 0.963631 0.556199 -0.206884
C25   C     C_R   0.553478 0.963674 0.443434 -0.205917
C26   C     C_R   0.446212 0.039374 0.556029 -0.107677
C27   C     C_R   0.553684 0.039423 0.443614 -0.107758
C28   C     C_R   0.499987 0.077942 0.499852 0.283250
C29   C     C_R   0.499860 0.924105 0.499864 0.097161
C30   C     C_R   0.543971 0.197238 0.580806 0.250909
C31   C     C_R   0.456087 0.197159 0.418974 0.251004
C32   C     C_R   0.543072 0.273475 0.579669 0.384025
C33   C     C_R   0.456963 0.273392 0.420243 0.384272
C34   C     C_R   0.500031 0.158499 0.499859 -0.242601
C35   C     C_R   0.536898 0.633182 0.110621 -0.188055
C36   C     C_R   0.461882 0.632790 0.888978 -0.188174
C37   C     C_R   0.521362 0.699032 0.052664 -0.004121
C38   C     C_R   0.477150 0.698820 0.946692 -0.003570
C39   C     C_R   0.486727 0.567186 0.939202 0.078215
C40   C     C_R   0.512392 0.567324 0.060617 0.078263
C41   C     C_R   0.512184 0.501224 0.126508 -0.120785
C42   C     C_R   0.487418 0.501101 0.873383 -0.121074
C43   C     C_R   0.504668 0.435601 0.063355 -0.156420
C44   C     C_R   0.495226 0.435551 0.936602 -0.156059
C45   C     C_R   0.745217 0.450297 0.565855 -0.209202
C46   C     C_R   0.255852 0.450918 0.426583 -0.208318
C47   C     C_R   0.816822 0.449738 0.565086 -0.163186
C48   C     C_R   0.184262 0.450720 0.422753 -0.163574
H1    H     H_    0.506103 0.384189 0.111553 0.210105
H2    H     H_    0.494115 0.384122 0.888437 0.210208
H3    H     H_    0.604595 0.695573 0.555153 0.163477
H4    H     H_    0.395356 0.695150 0.445053 0.163500
H5    H     H_    0.403937 0.936037 0.600298 0.163612
H6    H     H_    0.595770 0.936090 0.399316 0.163442
H7    H     H_    0.404182 0.067985 0.600069 0.152617
H8    H     H_    0.595752 0.068074 0.399550 0.152522
H9    H     H_    0.569336 0.633914 0.193278 0.216869
H10   H     H_    0.429494 0.633151 0.806216 0.215393
H11   H     H_    0.718278 0.412496 0.625151 0.217581
H12   H     H_    0.283673 0.413626 0.367845 0.218225
H13   H     H_    0.844192 0.411797 0.624466 0.155789
H14   H     H_    0.157796 0.413406 0.360789 0.156106
H15   H     H_    0.843560 0.585350 0.355503 0.165992
H16   H     H_    0.154393 0.584570 0.634122 0.166023
H17   H     H_    0.937052 0.615537 0.493878 0.136688
H18   H     H_    0.062887 0.615761 0.491862 0.136700
H19   H     H_    0.063010 0.382112 0.493595 0.143414
H20   H     H_    0.937023 0.381922 0.486380 0.143262
N1    N     N_R   0.500000 0.689440 0.500000 -0.110623
N2    N     N_R   0.500000 0.310560 0.500000 -0.205878
O1    O     O_R   0.398180 0.560840 0.499970 -0.603012
O2    O     O_R   0.601820 0.560840 0.500030 -0.601556
O3    O     O_R   0.398180 0.439210 0.499910 -0.580983
O4    O     O_R   0.601820 0.439210 0.500090 -0.580800
O5    O     O_R   0.500000 0.560830 0.316760 -0.628630
O6    O     O_R   0.500000 0.560830 0.683240 -0.628942
O7    O     O_R   0.500000 0.439200 0.316700 -0.581028
O8    O     O_R   0.500000 0.439200 0.683300 -0.580725
Zn1   Zn    Zn3+2 0.500000 0.581210 0.500000 0.984040
Zn2   Zn    Zn3+2 0.500000 0.418790 0.500000 1.050173
C49   C     C_R   0.627680 0.836666 0.565994 0.078835
C50   C     C_R   0.631887 0.887274 0.663434 -0.123641
C51   C     C_R   0.695267 0.919004 0.695488 -0.097193
C52   C     C_R   0.755050 0.900351 0.630978 -0.113686
C53   C     C_R   0.751527 0.849951 0.534234 -0.133812
C54   C     C_R   0.688234 0.818103 0.501890 -0.156325
H21   H     H_    0.586187 0.902889 0.713539 0.133237
H22   H     H_    0.697982 0.958182 0.770234 0.157034
H23   H     H_    0.804083 0.925016 0.655845 0.134997
H24   H     H_    0.797838 0.835614 0.484136 0.139445
H25   H     H_    0.686270 0.779534 0.426025 0.178089
C55   C     C_R   0.371908 0.836073 0.435014 0.078675
C56   C     C_R   0.367227 0.886671 0.337635 -0.123914
C57   C     C_R   0.303667 0.918100 0.306373 -0.097605
C58   C     C_R   0.244174 0.899156 0.371633 -0.114049
C59   C     C_R   0.248168 0.848758 0.468326 -0.133872
C60   C     C_R   0.311641 0.817207 0.499867 -0.155593
H26   H     H_    0.412700 0.902523 0.286995 0.133323
H27   H     H_    0.300586 0.957280 0.231669 0.156898
H28   H     H_    0.195004 0.923595 0.347389 0.134944
H29   H     H_    0.202086 0.834196 0.519012 0.139557
H30   H     H_    0.313970 0.778634 0.575701 0.177930
Cl1   Cl    Cl    0.599221 0.150380 0.685293 -0.553241
Cl2   Cl    Cl    0.400856 0.150209 0.314388 -0.553055
Cl3   Cl    Cl    0.598137 0.320521 0.682824 -0.543999
Cl4   Cl    Cl    0.401945 0.320323 0.317076 -0.545044
C61   C     C_R   0.554631 0.765595 0.101042 0.100946
C62   C     C_R   0.515249 0.825475 0.137376 -0.135249
C63   C     C_R   0.547782 0.891264 0.163790 -0.144607
C64   C     C_R   0.619882 0.896618 0.160770 -0.129702
C65   C     C_R   0.659625 0.836080 0.132100 -0.136449
C66   C     C_R   0.627202 0.770852 0.101672 -0.125878
H31   H     H_    0.459376 0.822040 0.138752 0.138118
H32   H     H_    0.517172 0.938382 0.185607 0.154233
H33   H     H_    0.644950 0.947612 0.181421 0.139123
H34   H     H_    0.715482 0.840100 0.130779 0.141649
H35   H     H_    0.658566 0.725120 0.074612 0.165696
C67   C     C_R   0.443724 0.765125 0.897969 0.100864
C68   C     C_R   0.482967 0.825244 0.861804 -0.134971
C69   C     C_R   0.450273 0.890834 0.835264 -0.145198
C70   C     C_R   0.378146 0.895731 0.837796 -0.129415
C71   C     C_R   0.338549 0.834936 0.866201 -0.136776
C72   C     C_R   0.371135 0.769915 0.896873 -0.126833
H36   H     H_    0.538852 0.822156 0.860693 0.138013
H37   H     H_    0.480788 0.938140 0.813686 0.154033
H38   H     H_    0.352946 0.946566 0.816975 0.139090
H39   H     H_    0.282673 0.838598 0.867139 0.141813
H40   H     H_    0.339874 0.723988 0.923765 0.165994
Cl5   Cl    Cl    0.702009 0.612439 0.319340 -0.714113
Cl6   Cl    Cl    0.295593 0.610642 0.679568 -0.712892

loop_
_geom_bond_atom_site_label_1
_geom_bond_atom_site_label_2
_ccdc_geom_bond_type
C17   N1    A    
C56   C57   A    
C61   C66   A    
C65   C66   A    
O6    Zn1   S    
C23   O6    A    
C26   H7    S    
C17   H3    S    
O1    Zn1   S    
C49   C50   A    
C33   Cl4   S    
C18   H4    S    
C68   H36   S    
C9    C45   A    
C20   C55   S    
C1    O1    A    
C23   C42   S    
C35   C37   A    
C24   C26   A    
C37   C61   S    
O2    Zn1   S    
C36   H10   S    
C54   H25   S    
C66   H35   S    
C11   C14   A    
O8    Zn2   S    
C22   C41   S    
C15   C16   A    
C71   H39   S    
C62   C63   A    
C5    H15   S    
C6    H16   S    
C4    C13   S    
C67   C68   A    
C64   C65   A    
C58   C59   A    
C30   Cl1   S    
C10   C46   A    
C61   C62   A    
C31   C33   A    
C65   H34   S    
C16   H20   S    
C49   C54   A    
C2    O4    A    
C18   N1    A    
C51   H22   S    
C28   C34   S    
O4    Zn2   S    
C59   H29   S    
C41   C43   A    
C42   C44   A    
C22   O5    A    
C2    O2    A    
C55   C60   A    
C39   C42   A    
C45   C47   A    
C25   C29   A    
C53   H24   S    
C46   C48   A    
C30   C34   A    
N2    Zn2   S    
C25   H6    S    
C58   H28   S    
C4    C6    A    
C39   C40   A    
C5    C7    A    
C27   H8    S    
C43   H1    S    
C32   N2    A    
C24   H5    S    
C53   C54   A    
C21   C29   S    
C62   H31   S    
C43   C44   A    
C37   C38   A    
C48   H14   S    
C51   C52   A    
C11   C12   A    
C15   H19   S    
C59   C60   A    
C20   C21   A    
C50   H21   S    
C31   C34   A    
C52   C53   A    
C70   C71   A    
C3    C14   S    
C33   N2    A    
C63   H32   S    
C40   C41   A    
C32   Cl3   S    
C13   C15   A    
C8    Cl6   S    
C14   C16   A    
N1    Zn1   S    
C52   H23   S    
C69   C70   A    
C4    C48   A    
O7    Zn2   S    
C44   H2    S    
C7    C9    A    
C45   H11   S    
C46   H12   S    
C69   H37   S    
C36   C39   A    
C1    C10   S    
C60   H30   S    
C22   O7    A    
C3    C5    A    
C47   H13   S    
C6    C8    A    
C68   C69   A    
C25   C27   A    
C26   C28   A    
C35   H9    S    
C1    O3    A    
C31   Cl2   S    
C36   C38   A    
C35   C40   A    
C70   H38   S    
C63   C64   A    
C30   C32   A    
C72   H40   S    
C12   H18   S    
C57   H27   S    
C64   H33   S    
C3    C47   A    
C55   C56   A    
C17   C19   A    
O3    Zn2   S    
C18   C20   A    
C67   C72   A    
C23   O8    A    
C57   C58   A    
C7    Cl5   S    
C38   C67   S    
C24   C29   A    
C12   C13   A    
C8    C10   A    
C50   C51   A    
C27   C28   A    
C71   C72   A    
C19   C49   S    
C2    C9    S    
O5    Zn1   S    
C56   H26   S    
C11   H17   S    
C19   C21   A    
