data_mof_unit_32312.cif
_audit_creation_date              2012-12-10T17:25:18-0500
_audit_creation_method            fapswitch 2.2
_symmetry_space_group_name_H-M    P1
_symmetry_Int_Tables_number       1
_space_group_crystal_system       triclinic
_cell_length_a                    27.770944
_cell_length_b                    10.851216
_cell_length_c                    9.599562
_cell_angle_alpha                 88.095493
_cell_angle_beta                  90.778791
_cell_angle_gamma                 93.998184
_cell_volume                      2883.9948554

loop_
_atom_site_label
_atom_site_type_symbol
_atom_type_description
_atom_site_fract_x
_atom_site_fract_y
_atom_site_fract_z
_atom_type_partial_charge
C1    C     C_R   0.500930 0.261649 0.503047 0.845349
C2    C     C_R   0.273311 0.467680 0.399533 -0.146631
C3    C     C_R   0.252879 0.501682 0.523594 0.261841
C4    C     C_R   0.101190 0.491017 0.553382 -0.129506
C5    C     C_R   0.124841 0.380032 0.553303 -0.142588
C6    C     C_R   0.097264 0.266563 0.559389 0.623524
C7    C     C_R   0.128526 0.605032 0.542667 -0.031672
C8    C     C_R   0.353813 0.498438 0.500666 -0.100376
C9    C     C_R   0.644717 0.484193 0.500497 -0.017211
C10   C     C_R   0.971622 0.370880 0.582069 -0.049813
C11   C     C_R   0.976436 0.594602 0.526715 0.065565
C12   C     C_R   0.407284 0.498281 0.499172 0.806989
C13   C     C_R   0.948745 0.480994 0.548278 0.013074
C14   C     C_R   0.942154 0.263354 0.620913 0.569655
C15   C     C_R   0.892080 0.261843 0.609057 -0.195393
C16   C     C_R   0.869553 0.367224 0.562660 -0.118076
C17   C     C_R   0.897782 0.477441 0.533843 -0.057318
C18   C     C_R   0.875057 0.584121 0.489767 0.008506
C19   C     C_R   0.824495 0.580081 0.481455 0.532558
C20   C     C_R   0.819143 0.365616 0.547136 0.573966
C21   C     C_R   0.717946 0.427413 0.619199 -0.107606
C22   C     C_R   0.667893 0.431192 0.616062 -0.236703
C23   C     C_R   0.495148 0.735738 0.498312 0.791863
C24   C     C_R   0.671937 0.523549 0.383001 -0.213348
C25   C     C_R   0.721845 0.515405 0.384030 -0.090147
C26   C     C_R   0.745451 0.470412 0.503618 0.331445
C27   C     C_R   0.022728 0.372824 0.572602 -0.015050
C28   C     C_R   0.050171 0.488178 0.560845 0.040738
C29   C     C_R   0.026908 0.600747 0.554085 0.025974
C30   C     C_R   0.047244 0.263456 0.566914 -0.218823
C31   C     C_R   0.105589 0.715042 0.552344 -0.129416
C32   C     C_R   0.953226 0.695803 0.467756 -0.227548
C33   C     C_R   0.903283 0.691860 0.453133 -0.127470
C34   C     C_R   0.592249 0.495223 0.500526 0.769380
C35   C     C_R   0.055631 0.713855 0.571131 0.097728
C36   C     C_R   0.485790 0.099585 0.768147 -0.162461
C37   C     C_R   0.463285 0.030609 0.877179 -0.171725
C38   C     C_R   0.442498 0.912880 0.854160 0.638832
C39   C     C_R   0.448328 0.859810 0.726035 -0.219034
C40   C     C_R   0.474228 0.925762 0.617910 0.002102
C41   C     C_R   0.486897 0.052994 0.631930 -0.003601
C42   C     C_R   0.500419 0.125697 0.509495 -0.226412
C43   C     C_R   0.507994 0.065956 0.384330 0.586128
C44   C     C_R   0.503041 0.938953 0.379939 -0.259508
C45   C     C_R   0.175519 0.386200 0.544645 0.582947
C46   C     C_R   0.488494 0.867912 0.496947 -0.157269
C47   C     C_R   0.551930 0.689170 0.143240 -0.123650
C48   C     C_R   0.559750 0.804231 0.077818 -0.228046
C49   C     C_R   0.551029 0.816384 0.936599 -0.178221
C50   C     C_R   0.548775 0.708467 0.859545 0.231974
C51   C     C_R   0.525751 0.596737 0.924010 0.082125
C52   C     C_R   0.526126 0.592988 0.073759 0.173660
C53   C     C_R   0.473901 0.413110 0.076042 -0.100933
C54   C     C_R   0.473450 0.413803 0.928339 0.640119
C55   C     C_R   0.178800 0.606474 0.529111 0.534653
C56   C     C_R   0.282427 0.532869 0.639343 0.185111
C57   C     C_R   0.332670 0.533786 0.624617 -0.211364
C58   C     C_R   0.323349 0.462570 0.386465 0.122553
Cu1   Cu    Cu3+1 0.500000 0.499990 0.640660 0.981221
Cu2   Cu    Cu3+1 0.500000 0.500010 0.359340 0.975013
H1    H     H_    0.126953 0.802429 0.553066 0.211295
H2    H     H_    0.973514 0.778449 0.429815 0.155255
H3    H     H_    0.654756 0.562073 0.291033 0.150419
H4    H     H_    0.886949 0.773375 0.411779 0.192413
H5    H     H_    0.742283 0.546374 0.292623 0.156078
H6    H     H_    0.504494 0.185154 0.796515 0.217135
H7    H     H_    0.462065 0.068840 0.979757 0.201075
H8    H     H_    0.249367 0.441247 0.313868 0.147826
H9    H     H_    0.432222 0.767283 0.712133 0.172082
H10   H     H_    0.511339 0.895939 0.284552 0.194809
H11   H     H_    0.452336 0.342124 0.132962 0.174685
H12   H     H_    0.565010 0.680149 0.247913 0.185889
H13   H     H_    0.575244 0.882264 0.134506 0.173489
H14   H     H_    0.561016 0.905638 0.887093 0.143169
H15   H     H_    0.647403 0.393868 0.704694 0.157416
H16   H     H_    0.735361 0.391970 0.712316 0.160100
H17   H     H_    0.870930 0.177554 0.638494 0.216201
H18   H     H_    0.028455 0.173565 0.560258 0.227465
H19   H     H_    0.355934 0.561682 0.710662 0.188467
N1    N     N_R   0.201213 0.498200 0.532785 -0.477464
N2    N     N_R   0.797410 0.471686 0.509566 -0.463276
N3    N     N_R   0.500460 0.501210 0.147910 -0.220730
N4    N     N_R   0.500480 0.501290 0.852040 -0.247672
O1    O     O_R   0.500000 0.319640 0.618810 -0.561721
O2    O     O_2   0.792138 0.258523 0.568399 -0.535496
O3    O     O_2   0.205177 0.715142 0.512777 -0.526229
O4    O     O_2   0.802626 0.684507 0.448158 -0.541087
O5    O     O_R   0.500000 0.319660 0.381240 -0.518392
O6    O     O_R   0.430260 0.500010 0.618770 -0.543843
O7    O     O_R   0.430270 0.500030 0.381200 -0.581350
O8    O     O_R   0.500000 0.680340 0.618760 -0.606531
O9    O     O_R   0.500000 0.680360 0.381190 -0.588776
O10   O     O_R   0.569730 0.499970 0.618800 -0.589674
O11   O     O_R   0.569740 0.499990 0.381230 -0.592635
O12   O     O_2   0.199129 0.281574 0.548385 -0.444383
C59   C     C_3   0.341503 0.412677 0.252496 -0.393868
C60   C     C_3   0.358061 0.282058 0.275477 -0.736085
H20   H     H_    0.389110 0.280643 0.349253 0.244526
H21   H     H_    0.327953 0.219515 0.317486 0.267963
H22   H     H_    0.369146 0.246369 0.174572 0.246833
H23   H     H_    0.312198 0.407403 0.172423 0.198529
H24   H     H_    0.370323 0.475859 0.205418 0.233941
C61   C     C_3   0.259128 0.561976 0.776284 -0.376715
C62   C     C_3   0.293252 0.575631 0.902250 -0.813833
H25   H     H_    0.313421 0.491389 0.918835 0.257167
H26   H     H_    0.318857 0.658234 0.887779 0.279920
H27   H     H_    0.271910 0.588050 0.997163 0.248853
H28   H     H_    0.240485 0.648801 0.762075 0.239085
H29   H     H_    0.231389 0.486299 0.802844 0.211809
C63   C     C_3   0.035772 0.830802 0.624656 -0.414353
C64   C     C_3   0.061915 0.875918 0.756887 -0.709529
H30   H     H_    0.062070 0.799863 0.837259 0.242993
H31   H     H_    0.099588 0.911070 0.734586 0.272194
H32   H     H_    0.042936 0.953050 0.799297 0.269177
H33   H     H_    0.038969 0.905326 0.542377 0.230620
H34   H     H_    0.997411 0.814971 0.654514 0.230168
F1    F     F_    0.522362 0.129481 0.266009 -0.669380
F2    F     F_    0.419111 0.847216 0.958525 -0.666164
C65   C     C_3   0.593171 0.711826 0.767521 -0.322414
C66   C     C_3   0.631654 0.632872 0.832017 -0.808907
H35   H     H_    0.643205 0.668601 0.935239 0.243757
H36   H     H_    0.617458 0.535495 0.847691 0.253356
H37   H     H_    0.663756 0.638193 0.764062 0.252782
H38   H     H_    0.585131 0.697551 0.657232 0.213780
H39   H     H_    0.611246 0.806705 0.758043 0.169990
F3    F     F_    0.443727 0.329917 0.862225 -0.669836
F4    F     F_    0.118148 0.157301 0.554182 -0.625367
F5    F     F_    0.960523 0.161721 0.681183 -0.684670

loop_
_geom_bond_atom_site_label_1
_geom_bond_atom_site_label_2
_ccdc_geom_bond_type
C10   C27   A    
C59   H23   S    
C21   C26   A    
C59   H24   S    
C41   C42   A    
C57   H19   S    
C64   H30   S    
C34   O10   A    
C7    C55   A    
C62   H26   S    
C60   H20   S    
Cu2   O5    S    
C65   H38   S    
C1    O1    A    
C40   C46   A    
C54   F3    S    
C21   H16   S    
C12   O7    A    
C28   C29   A    
Cu1   N4    S    
C6    F4    S    
C63   H34   S    
C19   O4    S    
C5    C6    A    
C36   H6    S    
C9    C22   A    
C15   C16   A    
C14   F5    S    
C56   C57   A    
C18   C19   A    
Cu1   O6    S    
C31   H1    S    
C63   C64   S    
C54   N4    A    
C58   C59   S    
C4    C28   A    
Cu2   N3    S    
C66   H36   S    
C16   C17   A    
C44   H10   S    
C61   H28   S    
C45   N1    A    
C66   H37   S    
C8    C12   S    
C8    C58   A    
C1    O5    A    
Cu1   Cu2   S    
C23   C46   S    
C21   C22   A    
C20   O2    S    
C27   C30   A    
C36   C41   A    
C22   H15   S    
C4    C7    A    
C3    N1    S    
C62   H25   S    
C60   H21   S    
C44   C46   A    
C17   C18   A    
Cu2   O9    S    
C38   C39   A    
C7    C31   A    
C51   C52   A    
C12   O6    A    
C25   H5    S    
Cu1   O1    S    
C10   C14   A    
C39   C40   A    
C25   C26   A    
C53   C54   A    
C5    C45   A    
C50   C65   S    
C53   N3    A    
C38   F2    S    
C43   C44   A    
C37   C38   A    
C8    C57   A    
C3    C56   A    
C47   C48   A    
C14   C15   A    
C16   C20   A    
C59   C60   S    
C50   C51   A    
C39   H9    S    
C64   H31   S    
Cu1   O8    S    
C24   C25   A    
C52   N3    A    
C35   C63   S    
C43   F1    S    
C65   H39   S    
C40   C41   A    
C6    C30   A    
C11   C32   A    
C26   N2    S    
C9    C34   S    
C31   C35   A    
C42   C43   A    
C53   H11   S    
C51   N4    A    
C61   C62   S    
C60   H22   S    
C66   H35   S    
C48   C49   A    
C49   H14   S    
C48   H13   S    
C34   O11   A    
C56   C61   S    
C4    C5    A    
C10   C13   A    
C65   C66   S    
C2    C58   A    
C9    C24   A    
C47   C52   A    
Cu2   O7    S    
C24   H3    S    
C29   C35   A    
C2    H8    S    
C13   C17   A    
C61   H29   S    
C32   C33   A    
C55   O3    S    
C2    C3    A    
C32   H2    S    
C19   N2    A    
C55   N1    A    
C11   C13   A    
C15   H17   S    
C33   H4    S    
C37   H7    S    
C64   H32   S    
C23   O8    A    
C18   C33   A    
C47   H12   S    
C30   H18   S    
C1    C42   S    
C11   C29   A    
C36   C37   A    
C49   C50   A    
C27   C28   A    
C23   O9    A    
Cu1   O10   S    
C20   N2    A    
C63   H33   S    
C62   H27   S    
Cu2   O11   S    
C45   O12   S    
