data_mof_unit_36210.cif
_audit_creation_date              2012-12-10T19:25:03-0500
_audit_creation_method            fapswitch 2.2
_symmetry_space_group_name_H-M    P1
_symmetry_Int_Tables_number       1
_space_group_crystal_system       triclinic
_cell_length_a                    15.717182
_cell_length_b                    10.470855
_cell_length_c                    9.783735
_cell_angle_alpha                 90.457056
_cell_angle_beta                  89.997738
_cell_angle_gamma                 89.807375
_cell_volume                      1610.07176912

loop_
_atom_site_label
_atom_site_type_symbol
_atom_type_description
_atom_site_fract_x
_atom_site_fract_y
_atom_site_fract_z
_atom_type_partial_charge
C1    C     C_R   0.500067 0.257611 0.499382 0.868012
C2    C     C_3   0.566665 0.554305 0.953016 0.071808
C3    C     C_3   0.498183 0.384362 0.950159 -0.163875
C4    C     C_3   0.501817 0.615638 0.049841 -0.163882
C5    C     C_3   0.434215 0.560712 0.951667 -0.116764
C6    C     C_3   0.565785 0.439288 0.048333 -0.116762
C7    C     C_R   0.338212 0.500307 0.500006 0.889122
C8    C     C_R   0.661788 0.499692 0.499994 0.889138
C9    C     C_3   0.973211 0.408734 0.583332 0.431118
C10   C     C_3   0.026789 0.591238 0.416695 0.431102
C11   C     C_3   0.029209 0.388127 0.456716 0.485438
C12   C     C_R   0.499933 0.742389 0.500618 0.868008
C13   C     C_3   0.970792 0.611846 0.543310 0.485430
C14   C     C_1   0.249439 0.501605 0.500360 -0.160463
C15   C     C_1   0.750561 0.498385 0.499642 -0.160479
C16   C     C_3   0.027937 0.523335 0.630973 -0.520800
C17   C     C_3   0.972065 0.476637 0.369052 -0.520872
C18   C     C_3   0.083470 0.502671 0.502038 -0.074349
C19   C     C_3   0.916530 0.497300 0.497987 -0.074381
C20   C     C_1   0.174227 0.502546 0.501285 0.057792
C21   C     C_1   0.825773 0.497435 0.498726 0.057691
C22   C     C_3   0.569786 0.042679 0.565165 -0.176394
C23   C     C_3   0.570302 0.956453 0.436438 -0.189787
C24   C     C_3   0.430214 0.957321 0.434835 -0.176392
C25   C     C_3   0.006031 0.190752 0.357590 0.106216
C26   C     C_3   0.045956 0.060575 0.329645 -0.778320
C27   C     C_3   0.993971 0.809219 0.642438 0.106185
C28   C     C_3   0.954045 0.939395 0.670390 -0.778289
C29   C     C_3   0.909627 0.352516 0.786677 0.134978
C30   C     C_3   0.863860 0.244791 0.859215 -0.822344
C31   C     C_3   0.090322 0.647437 0.213304 0.135065
C32   C     C_3   0.136257 0.755099 0.140879 -0.821839
C33   C     C_2   0.356633 0.380971 0.104308 0.930088
C34   C     C_3   0.429698 0.043547 0.563562 -0.189782
C35   C     C_2   0.643366 0.619029 0.895690 0.930091
C36   C     C_3   0.499927 0.877528 0.501786 0.027101
C37   C     C_3   0.500073 0.122472 0.498214 0.027101
C38   C     C_3   0.499406 0.961024 0.630681 -0.117437
C39   C     C_3   0.500594 0.038975 0.369319 -0.117434
C40   C     C_3   0.433335 0.445695 0.046984 0.071804
H1    H     H_    0.947427 0.457465 0.264596 0.171022
H2    H     H_    0.503993 0.712749 0.096088 0.148515
H3    H     H_    0.378832 0.611067 0.906356 0.150251
H4    H     H_    0.621168 0.388933 0.093644 0.150253
H5    H     H_    0.983690 0.230233 0.258582 0.133991
H6    H     H_    0.950598 0.177407 0.426808 0.171859
H7    H     H_    0.071071 0.019792 0.426008 0.266205
H8    H     H_    0.997515 0.994651 0.286486 0.225470
H9    H     H_    0.099022 0.069831 0.255440 0.250251
H10   H     H_    0.049402 0.822568 0.573219 0.171864
H11   H     H_    0.016313 0.769735 0.741443 0.133988
H12   H     H_    0.052579 0.542508 0.735426 0.171020
H13   H     H_    0.900981 0.930136 0.744598 0.250268
H14   H     H_    0.002487 0.005318 0.713551 0.225488
H15   H     H_    0.928929 0.980182 0.574031 0.266196
H16   H     H_    0.862977 0.431156 0.770019 0.178904
H17   H     H_    0.961696 0.387228 0.854240 0.146399
H18   H     H_    0.909155 0.166059 0.881428 0.250809
H19   H     H_    0.836555 0.280635 0.956998 0.216701
H20   H     H_    0.811576 0.207648 0.793887 0.255621
H21   H     H_    0.038176 0.612960 0.145711 0.146332
H22   H     H_    0.136863 0.568597 0.229869 0.178814
H23   H     H_    0.627431 0.915963 0.385034 0.147254
H24   H     H_    0.188634 0.791983 0.206234 0.255525
H25   H     H_    0.163482 0.719250 0.043039 0.216651
H26   H     H_    0.091078 0.834049 0.118782 0.250711
H27   H     H_    0.310303 0.234612 0.213967 0.339689
H28   H     H_    0.689695 0.765391 0.786034 0.339691
H29   H     H_    0.372569 0.084037 0.614966 0.147255
H30   H     H_    0.626512 0.082373 0.617916 0.140406
H31   H     H_    0.373488 0.917627 0.382083 0.140398
H32   H     H_    0.498895 0.925179 0.737186 0.172278
H33   H     H_    0.501105 0.074821 0.262814 0.172277
H34   H     H_    0.496007 0.287251 0.903912 0.148516
N1    N     N_3   0.499940 0.500030 0.863290 -0.106240
N2    N     N_3   0.500060 0.499970 0.136710 -0.106240
O1    O     O_R   0.500000 0.313960 0.616610 -0.633256
O2    O     O_3   0.932456 0.728476 0.582858 -0.589681
O3    O     O_3   0.943407 0.305886 0.662312 -0.614783
O4    O     O_3   0.056613 0.694075 0.337719 -0.614800
O5    O     O_2   0.285876 0.426008 0.084794 -0.662842
O6    O     O_R   0.366484 0.269023 0.179414 -0.804592
O7    O     O_2   0.714123 0.573990 0.915197 -0.662855
O8    O     O_R   0.633515 0.730979 0.820589 -0.804597
O9    O     O_R   0.500000 0.686040 0.383390 -0.633259
O10   O     O_R   0.500040 0.313950 0.383350 -0.590922
O11   O     O_R   0.499960 0.686050 0.616650 -0.590923
O12   O     O_R   0.376760 0.499990 0.616610 -0.618560
O13   O     O_R   0.623240 0.500010 0.383390 -0.618557
O14   O     O_R   0.376790 0.499980 0.383350 -0.597852
O15   O     O_R   0.623210 0.500020 0.616650 -0.597857
O16   O     O_3   0.067546 0.271497 0.417168 -0.589682
Zn1   Zn    Zn3+2 0.499980 0.500010 0.655740 0.971991
Zn2   Zn    Zn3+2 0.500020 0.499990 0.344260 0.971989

loop_
_geom_bond_atom_site_label_1
_geom_bond_atom_site_label_2
_ccdc_geom_bond_type
C2    C35   S    
C11   C18   S    
C34   C37   S    
C1    O1    A    
C31   H21   S    
C27   O2    S    
C31   O4    S    
C24   C36   S    
C12   O9    A    
C19   C21   S    
C9    C16   S    
C28   H14   S    
C10   C17   S    
C22   C38   S    
O11   Zn1   S    
C24   C39   S    
C9    O3    S    
O13   Zn2   S    
C3    H34   S    
O10   Zn2   S    
N2    Zn2   S    
O12   Zn1   S    
C11   O16   S    
C9    C19   S    
C7    C14   S    
C7    O12   A    
C30   H20   S    
C12   C36   S    
C3    N1    S    
C33   O6    S    
C27   H10   S    
C26   H8    S    
C3    C6    S    
C23   H23   S    
C5    H3    S    
C6    H4    S    
C31   H22   S    
C2    C6    S    
C28   H15   S    
C27   H11   S    
O14   Zn2   S    
C38   H32   S    
C33   C40   S    
C13   C19   S    
H28   O8    S    
C14   C20   T    
C32   H24   S    
C26   H9    S    
C35   O7    D    
C25   C26   S    
C22   C37   S    
C24   C34   S    
C40   N2    S    
C5    N1    S    
C2    C4    S    
C29   C30   S    
O15   Zn1   S    
O9    Zn2   S    
C31   C32   S    
C29   O3    S    
C28   H13   S    
C30   H19   S    
C8    O15   A    
C9    C11   S    
C34   H29   S    
C26   H7    S    
C29   H17   S    
C3    C40   S    
C8    C15   S    
C13   C16   S    
C25   H5    S    
N1    Zn1   S    
C32   H26   S    
C1    O10   A    
C13   O2    S    
C11   C17   S    
C25   O16   S    
C10   O4    S    
C12   O11   A    
C34   C38   S    
C16   H12   S    
C4    C5    S    
C10   C13   S    
C35   O8    S    
C6    N2    S    
C29   H16   S    
C1    C37   S    
C36   C38   S    
C37   C39   S    
C7    O14   A    
C4    H2    S    
C10   C18   S    
C23   C39   S    
C30   H18   S    
O1    Zn1   S    
C17   C19   S    
C18   C20   S    
C39   H33   S    
C17   H1    S    
C4    N2    S    
C15   C21   T    
H27   O6    S    
C16   C18   S    
C23   C36   S    
C5    C40   S    
C27   C28   S    
C22   C23   S    
C8    O13   A    
C33   O5    D    
C25   H6    S    
C22   H30   S    
C2    N1    S    
C24   H31   S    
C32   H25   S    
