data_mof_unit_56709.cif
_audit_creation_date              2012-12-11T16:45:07-0500
_audit_creation_method            fapswitch 2.2
_symmetry_space_group_name_H-M    P1
_symmetry_Int_Tables_number       1
_space_group_crystal_system       triclinic
_cell_length_a                    8.281081
_cell_length_b                    17.323926
_cell_length_c                    18.76591
_cell_angle_alpha                 98.455488
_cell_angle_beta                  90.798267
_cell_angle_gamma                 96.116147
_cell_volume                      2646.55354305

loop_
_atom_site_label
_atom_site_type_symbol
_atom_type_description
_atom_site_fract_x
_atom_site_fract_y
_atom_site_fract_z
_atom_type_partial_charge
Ba1   Ba    Ba6+2 0.849550 0.533890 0.465080 1.650141
Ba2   Ba    Ba6+2 0.340280 0.466170 0.534930 1.658750
C1    C     C_3   0.690485 0.815265 0.270494 -0.226642
C2    C     C_3   0.607817 0.733694 0.277117 0.269968
C3    C     C_3   0.463899 0.353141 0.313410 0.268954
C4    C     C_3   0.428191 0.330560 0.232229 -0.273745
C5    C     C_3   0.172886 0.268119 0.719892 0.299840
C6    C     C_3   0.213568 0.200773 0.759151 -0.287670
C7    C     C_3   0.654500 0.279954 0.719899 0.302875
C8    C     C_3   0.732769 0.250868 0.783632 -0.332547
C9    C     C_R   0.000783 0.469772 0.052298 0.015270
C10   C     C_R   0.910149 0.428606 0.100280 0.044167
C11   C     C_R   0.755238 0.392422 0.079797 -0.079738
C12   C     C_3   0.114567 0.692512 0.267887 0.334084
C13   C     C_R   0.687860 0.398325 0.013217 -0.089063
C14   C     C_R   0.777172 0.437181 0.962525 0.016434
C15   C     C_R   0.936280 0.472076 0.982116 0.033767
C16   C     C_R   0.708696 0.443253 0.894215 -0.098894
C17   C     C_R   0.807326 0.474471 0.840382 -0.080222
C18   C     C_R   0.968356 0.509996 0.861302 0.034938
C19   C     C_R   0.029004 0.510952 0.932961 0.032277
C20   C     C_R   0.757153 0.469406 0.765939 -0.027695
C21   C     C_R   0.867094 0.494695 0.716131 -0.286821
C22   C     C_R   0.019718 0.533947 0.736551 0.042656
C23   C     C_3   0.096528 0.713675 0.192146 -0.243267
C24   C     C_R   0.070071 0.544582 0.810776 -0.033733
C25   C     C_R   0.154977 0.508483 0.074793 -0.006267
C26   C     C_R   0.214172 0.509405 0.146602 -0.008129
C27   C     C_R   0.117515 0.470451 0.195541 -0.055025
C28   C     C_R   0.971770 0.425952 0.169294 -0.033449
C29   C     C_R   0.220269 0.587088 0.835947 -0.050075
C30   C     C_R   0.277780 0.589437 0.907228 0.019067
C31   C     C_R   0.184622 0.549323 0.955354 0.019647
C32   C     C_R   0.247310 0.548111 0.026185 0.016432
C33   C     C_R   0.431299 0.628544 0.930323 -0.095992
C34   C     C_3   0.222158 0.706068 0.618050 0.308584
C35   C     C_R   0.493516 0.626511 0.999755 -0.063431
C36   C     C_R   0.402589 0.586479 0.048272 0.052761
C37   C     C_R   0.369600 0.548659 0.169030 -0.042488
C38   C     C_R   0.463845 0.585246 0.118570 -0.086807
C39   C     C_R   0.423590 0.550902 0.241601 -0.025250
C40   C     C_R   0.318532 0.519695 0.291001 -0.284012
C41   C     C_R   0.167938 0.477736 0.269209 0.055565
C42   C     C_R   0.408625 0.716730 0.467900 -0.279842
C43   C     C_R   0.555840 0.744275 0.505099 0.081488
C44   C     C_R   0.616970 0.823669 0.508931 -0.113035
C45   C     C_3   0.250652 0.795111 0.635658 -0.370960
C46   C     C_R   0.529163 0.875432 0.476905 -0.007784
C47   C     C_R   0.376242 0.847892 0.443705 -0.126151
C48   C     C_R   0.315262 0.768629 0.440058 -0.015051
C49   C     C_R   0.599103 0.160139 0.463790 -0.074852
C50   C     C_R   0.646582 0.241207 0.474876 0.033123
C51   C     C_R   0.895748 0.221806 0.534098 0.025712
C52   C     C_R   0.848574 0.140353 0.524988 -0.062556
C53   C     C_R   0.698870 0.109216 0.490124 0.045036
C54   C     C_1   0.642909 0.026250 0.484712 0.038524
C55   C     C_1   0.592252 0.957421 0.480989 0.024474
C56   C     C_3   0.924608 0.278471 0.339553 0.299911
C57   C     C_R   0.792206 0.271529 0.511300 -0.299735
C58   C     C_3   0.814040 0.238644 0.275840 -0.250331
C59   C     C_3   0.711002 0.647199 0.684268 0.298096
C60   C     C_3   0.720028 0.675420 0.765450 -0.282675
H1    H     H_    0.570947 0.733023 0.333854 -0.001903
H2    H     H_    0.347830 0.812488 0.678140 0.132360
H3    H     H_    0.287884 0.821098 0.587188 0.057632
H4    H     H_    0.137020 0.818746 0.655094 0.138769
H5    H     H_    0.854110 0.313285 0.379607 -0.053916
H6    H     H_    0.763116 0.284046 0.249783 0.073512
H7    H     H_    0.714154 0.198711 0.293880 0.120902
H8    H     H_    0.883851 0.203890 0.235059 0.143348
H9    H     H_    0.831088 0.631588 0.665498 -0.004941
H10   H     H_    0.619993 0.594687 0.673299 0.054334
H11   H     H_    0.794565 0.830643 0.309792 0.130336
H12   H     H_    0.731775 0.625669 0.795295 0.009465
H13   H     H_    0.606799 0.701166 0.782218 0.096081
H14   H     H_    0.499370 0.720835 0.240130 0.022241
H15   H     H_    0.354613 0.373101 0.340134 0.033475
H16   H     H_    0.563696 0.402048 0.321830 0.056515
H17   H     H_    0.385994 0.380213 0.209079 0.020329
H18   H     H_    0.539904 0.315917 0.204667 0.062525
H19   H     H_    0.736407 0.815862 0.215218 0.106382
H20   H     H_    0.281712 0.288197 0.691859 0.094669
H21   H     H_    0.317947 0.220213 0.797659 0.156697
H22   H     H_    0.107353 0.179324 0.789127 0.123380
H23   H     H_    0.246067 0.151194 0.719449 0.113037
H24   H     H_    0.750817 0.311922 0.691079 -0.044433
H25   H     H_    0.822473 0.209657 0.764991 0.103685
H26   H     H_    0.638998 0.220141 0.814444 0.135923
H27   H     H_    0.035624 0.636878 0.269974 0.095629
H28   H     H_    0.795954 0.301248 0.820386 0.143151
H29   H     H_    0.683491 0.361122 0.116182 0.061153
H30   H     H_    0.565057 0.370988 0.002808 0.129351
H31   H     H_    0.830270 0.486095 0.659695 0.059532
H32   H     H_    0.900427 0.390788 0.202662 0.088869
H33   H     H_    0.295781 0.617712 0.800243 0.097198
H34   H     H_    0.505041 0.659493 0.894139 0.066711
H35   H     H_    0.613056 0.656463 0.015536 0.078282
H36   H     H_    0.583572 0.614818 0.133862 0.093405
H37   H     H_    0.242875 0.683012 0.278090 -0.115687
H38   H     H_    0.359408 0.523311 0.346497 0.070056
H39   H     H_    0.485245 0.137146 0.435463 0.083539
H40   H     H_    0.303953 0.887970 0.421884 0.101387
H41   H     H_    0.925984 0.101983 0.546236 0.079507
H42   H     H_    0.730774 0.845270 0.537853 0.088788
H43   H     H_    0.360635 0.655764 0.465339 0.066548
H44   H     H_    0.828205 0.334203 0.520105 0.072031
H45   H     H_    0.119479 0.662717 0.151853 0.077203
H46   H     H_    0.970485 0.726787 0.182473 0.101447
H47   H     H_    0.337127 0.683041 0.601429 0.004158
H48   H     H_    0.129335 0.690171 0.573633 0.066201
O1    O     O_2   0.878040 0.448040 0.325130 -0.477386
O2    O     O_3   0.664084 0.707525 0.649468 -0.640992
O3    O     O_3   0.065706 0.752741 0.318909 -0.600127
O4    O     O_2   0.311660 0.551990 0.674910 -0.471491
O5    O     O_3   0.062910 0.546080 0.585630 -0.493231
O6    O     O_3   0.538690 0.410940 0.631180 -0.463556
O7    O     O_3   0.169499 0.676545 0.680025 -0.630050
O8    O     O_3   0.620260 0.406250 0.463620 -0.471469
O9    O     O_3   0.120960 0.369680 0.595180 -0.486537
O10   O     O_2   0.233293 0.227466 0.560689 -0.479486
O11   O     O_3   0.042455 0.240165 0.671482 -0.669438
O12   O     O_3   0.126800 0.453980 0.414370 -0.479358
O13   O     O_3   0.569440 0.593820 0.536390 -0.488825
O14   O     O_2   0.359400 0.311980 0.465480 -0.458925
O15   O     O_3   0.510083 0.287968 0.341411 -0.656173
O16   O     O_2   0.411929 0.459356 0.754405 -0.506972
O17   O     O_3   0.529556 0.324775 0.745804 -0.600379
O18   O     O_3   0.651020 0.589120 0.368830 -0.462315
O19   O     O_2   0.751952 0.529829 0.242129 -0.492765
O20   O     O_3   0.051278 0.324465 0.312696 -0.671931
O21   O     O_3   0.717527 0.678531 0.257063 -0.589260
O22   O     O_2   0.830300 0.688050 0.534560 -0.462699
O23   O     O_3   0.068750 0.630380 0.404830 -0.483146
O24   O     O_2   0.981006 0.771877 0.452874 -0.474606
P1    P     P_3+3 0.048060 0.426210 0.336320 0.970292
P2    P     P_3+3 0.655920 0.678120 0.556130 0.991603
P3    P     P_3+3 0.108107 0.731726 0.405196 0.966140
P4    P     P_3+3 0.141640 0.573850 0.663690 0.981166
P5    P     P_3+3 0.079429 0.266361 0.585884 0.932914
P6    P     P_3+3 0.633643 0.587038 0.275756 0.946030
P7    P     P_3+3 0.534289 0.309825 0.435114 0.959246
P8    P     P_3+3 0.560842 0.419957 0.724528 0.939783
C61   C     C_2   0.000867 0.218292 0.375227 0.457933
H49   H     H_    0.091717 0.238120 0.417720 0.016096
O25   O     O_2   0.964771 0.147794 0.357134 -0.592589
C62   C     C_1   0.859802 0.734671 0.785180 0.320285
N1    N     N_1   0.970158 0.781296 0.800761 -0.271595
C63   C     C_1   0.576824 0.874744 0.284543 0.249975
N2    N     N_1   0.487666 0.921942 0.295428 -0.273716
C64   C     C_1   0.306099 0.262087 0.215986 0.377899
N3    N     N_1   0.210643 0.207784 0.202854 -0.263528
C65   C     C_2   0.211982 0.783728 0.182237 0.485730
H50   H     H_    0.203008 0.839851 0.215409 0.056337
O26   O     O_2   0.315533 0.778308 0.136642 -0.575936
C66   C     C_2   0.125736 0.336759 0.770987 0.560797
H51   H     H_    0.092259 0.387192 0.749005 -0.031608
O27   O     O_2   0.123532 0.336879 0.836080 -0.577987
C67   C     C_1   0.580939 0.211814 0.669981 0.251932
N4    N     N_1   0.521534 0.157727 0.631361 -0.301818
C68   C     C_2   0.530798 0.425116 0.885043 0.548939
H52   H     H_    0.457179 0.472036 0.881659 0.013363
O28   O     O_2   0.465384 0.358305 0.883577 -0.544028

loop_
_geom_bond_atom_site_label_1
_geom_bond_atom_site_label_2
_ccdc_geom_bond_type
Ba1   O1    S    
C53   C54   S    
O23   P3    S    
C66   O27   D    
C6    H21   S    
C39   C40   A    
C17   C18   A    
Ba1   O18   S    
Ba1   O22   S    
O1    P1    D    
O24   P3    D    
C35   H35   S    
Ba2   O8    S    
C48   P3    S    
C5    C6    S    
C37   C39   A    
C33   H34   S    
C10   C11   A    
C2    H1    S    
C8    H26   S    
C7    O17   S    
C23   C65   S    
C58   H7    S    
C26   C27   A    
C33   C35   A    
O2    P2    S    
C16   C17   A    
C38   H36   S    
C3    C4    S    
C19   C31   A    
C56   C58   S    
C61   H49   S    
C9    C10   A    
C54   C55   T    
C34   C45   S    
C6    H23   S    
Ba1   O12   S    
C39   P6    S    
O21   P6    S    
C13   H30   S    
C1    H11   S    
Ba2   O6    S    
C56   C61   S    
O20   P1    S    
O15   P7    S    
C14   C15   A    
C1    H19   S    
C21   C22   A    
C47   H40   S    
C9    C25   A    
Ba1   P2    S    
C7    C8    S    
C45   H4    S    
C59   H9    S    
C24   C29   A    
C51   P5    S    
C27   C41   A    
C5    O11   S    
Ba1   O23   S    
C2    O21   S    
Ba2   O12   S    
C25   C32   A    
C51   C57   A    
C44   C46   A    
C8    H25   S    
C57   H44   S    
C49   C50   A    
Ba2   P4    S    
C30   C33   A    
C52   H41   S    
C46   C55   S    
C17   C20   A    
C63   N2    T    
C45   H2    S    
C26   C37   A    
C22   P4    S    
C42   H43   S    
O8    P7    S    
C44   H42   S    
O16   P8    D    
C15   C19   A    
C21   H31   S    
O17   P8    S    
C68   O28   D    
Ba1   O13   S    
C12   H27   S    
C35   C36   A    
C50   C57   A    
C40   H38   S    
C7    H24   S    
Ba2   O5    S    
C4    H18   S    
C29   C30   A    
O5    P4    S    
C58   H8    S    
O22   P2    D    
C20   P8    S    
C31   C32   A    
O10   P5    D    
C6    H22   S    
C41   P1    S    
C34   O7    S    
C8    H28   S    
O6    P8    S    
C59   H10   S    
C46   C47   A    
C11   H29   S    
C65   O26   D    
C11   C13   A    
C34   H48   S    
C67   N4    T    
O3    P3    S    
O14   P7    D    
C40   C41   A    
C3    H15   S    
C1    C2    S    
C37   C38   A    
C42   C43   A    
C23   H45   S    
C62   N1    T    
C42   C48   A    
C61   O25   D    
C52   C53   A    
C9    C15   A    
C43   P2    S    
C10   C28   A    
C32   C36   A    
C20   C21   A    
C22   C24   A    
C34   H47   S    
O7    P4    S    
Ba2   O9    S    
C51   C52   A    
Ba2   O14   S    
C49   H39   S    
C12   O3    S    
C50   P7    S    
O13   P2    S    
O9    P5    S    
C30   C31   A    
O11   P5    S    
O18   P6    S    
C28   H32   S    
C68   H52   S    
C36   C38   A    
Ba2   O4    S    
C12   H37   S    
C4    H17   S    
O19   P6    D    
C18   C24   A    
C7    C67   S    
C56   O20   S    
C29   H33   S    
Ba1   Ba2   S    
C49   C53   A    
Ba1   O8    S    
O4    P4    D    
C12   C23   S    
C59   C60   S    
C60   H13   S    
O12   P1    S    
C2    H14   S    
C16   C68   S    
C27   C28   A    
C4    C64   S    
C43   C44   A    
C56   H5    S    
C1    C63   S    
C5    H20   S    
C5    C66   S    
C18   C19   A    
C58   H6    S    
C14   C16   A    
C47   C48   A    
C60   C62   S    
C3    O15   S    
C66   H51   S    
C64   N3    T    
C60   H12   S    
C65   H50   S    
Ba1   O5    S    
C3    H16   S    
Ba1   P1    S    
C59   O2    S    
C45   H3    S    
Ba2   O13   S    
C13   C14   A    
C23   H46   S    
C25   C26   A    
