data_mof_unit_65084.cif
_audit_creation_date              2012-12-11T14:24:06-0500
_audit_creation_method            fapswitch 2.2
_symmetry_space_group_name_H-M    P1
_symmetry_Int_Tables_number       1
_space_group_crystal_system       triclinic
_cell_length_a                    6.952358
_cell_length_b                    17.459479
_cell_length_c                    18.865971
_cell_angle_alpha                 105.370218
_cell_angle_beta                  89.652557
_cell_angle_gamma                 90.437941
_cell_volume                      2208.046445

loop_
_atom_site_label
_atom_site_type_symbol
_atom_type_description
_atom_site_fract_x
_atom_site_fract_y
_atom_site_fract_z
_atom_type_partial_charge
O1    O     O_R   0.494360 0.416740 0.414860 -0.538480
O2    O     O_R   0.818980 0.432970 0.557290 -0.525353
O3    O     O_R   0.994290 0.583260 0.585140 -0.536808
C1    C     C_R   0.649957 0.415971 0.580640 0.716921
O4    O     O_R   0.823740 0.407570 0.413690 -0.536954
O5    O     O_R   0.999090 0.557670 0.440510 -0.521494
C2    C     C_R   0.654496 0.385001 0.386508 0.747132
O6    O     O_R   0.489560 0.442330 0.559490 -0.521682
O7    O     O_3   0.662450 0.549280 0.508970 -0.362334
V1    V     V_3+5 0.935350 0.490860 0.498340 1.408172
O8    O     O_R   0.329100 0.567030 0.442710 -0.523900
C3    C     C_R   0.160976 0.584098 0.419421 0.719221
O9    O     O_R   0.324330 0.592430 0.586310 -0.546432
C4    C     C_R   0.154361 0.616317 0.612392 0.668753
V2    V     V_3+5 0.435960 0.509140 0.501660 1.401978
O10   O     O_3   0.158990 0.450720 0.491030 -0.359781
C5    C     C_2   0.275615 0.788823 0.784209 -0.119867
C6    C     C_2   0.114868 0.813409 0.823838 -0.282238
H1    H     H_    0.410480 0.819993 0.800891 0.134419
H2    H     H_    0.982087 0.779805 0.811060 0.170766
C7    C     C_2   0.283307 0.716942 0.720325 -0.161541
C8    C     C_2   0.136248 0.690065 0.673302 0.136894
H3    H     H_    0.419625 0.685797 0.711079 0.098843
C9    C     C_1   0.110600 0.863943 0.132669 -0.212744
C10   C     C_1   0.118181 0.821394 0.176251 0.000665
C11   C     C_1   0.127744 0.771206 0.228164 -0.000979
C12   C     C_1   0.135928 0.728940 0.271977 -0.001047
C13   C     C_1   0.145500 0.678729 0.323869 0.000152
C14   C     C_1   0.153099 0.636140 0.367412 -0.216813
C15   C     C_1   0.641251 0.364038 0.632679 -0.213833
C16   C     C_1   0.636877 0.321445 0.676245 -0.000291
C17   C     C_1   0.633224 0.271193 0.728124 -0.001227
C18   C     C_1   0.630469 0.228863 0.771928 -0.001328
C19   C     C_1   0.626818 0.178616 0.823810 -0.000402
C20   C     C_1   0.622449 0.136026 0.867379 -0.213192
C21   C     C_2   0.778242 0.211672 0.215248 -0.128184
C22   C     C_2   0.613668 0.182825 0.180246 -0.312078
H4    H     H_    0.913973 0.184760 0.193485 0.136681
H5    H     H_    0.476266 0.208769 0.200233 0.128561
C23   C     C_2   0.790416 0.279518 0.282772 -0.132668
C24   C     C_2   0.637545 0.317580 0.319937 -0.310674
H6    H     H_    0.934115 0.298278 0.302577 0.134998
H7    H     H_    0.492666 0.299770 0.301759 0.129989
O11   O     O_R   0.774180 0.057760 0.940580 -0.521444
O12   O     O_R   0.439830 0.092440 0.086330 -0.541667
O13   O     O_R   0.264640 0.942310 0.059470 -0.522499
C25   C     C_R   0.608470 0.115071 0.113558 0.745593
O14   O     O_R   0.444740 0.067040 0.942730 -0.525781
O15   O     O_R   0.269590 0.916730 0.914840 -0.534314
C26   C     C_R   0.613763 0.084084 0.919410 0.718741
O16   O     O_R   0.769230 0.083340 0.085210 -0.535098
O17   O     O_3   0.601340 0.950770 0.991070 -0.362364
V3    V     V_3+5 0.328370 0.009130 0.001660 1.409032
O18   O     O_R   0.939550 0.907490 0.913620 -0.540453
C27   C     C_R   0.108733 0.884221 0.887290 0.728068
O19   O     O_R   0.934640 0.932890 0.057220 -0.525451
C28   C     C_R   0.102745 0.915919 0.080596 0.715675
V4    V     V_3+5 0.827780 0.990750 0.998250 1.410211
O20   O     O_3   0.104690 0.049230 0.008930 -0.361864
N1    N     N_2   0.962356 0.734317 0.678894 -0.519543
H8    H     H_    0.839340 0.700042 0.666965 0.259617
C29   C     C_3   0.968411 0.796693 0.641520 -0.533030
H9    H     H_    0.832078 0.830653 0.651828 0.191210
H10   H     H_    0.985733 0.770782 0.581316 0.180797
H11   H     H_    0.089230 0.838437 0.662418 0.212741

loop_
_geom_bond_atom_site_label_1
_geom_bond_atom_site_label_2
_ccdc_geom_bond_type
O5    V1    S    
O2    C1    A    
O8    C3    A    
C29   H9    S    
O1    V2    S    
C25   O16   A    
C3    C14   S    
C22   C25   S    
O7    V1    S    
O11   V4    S    
C16   C17   S    
O3    V1    S    
O9    V2    S    
C1    O6    A    
C17   C18   T    
C4    C8    S    
C20   C26   S    
O14   C26   A    
C5    C6    D    
V3    O20   S    
O12   V3    S    
O4    V1    S    
C22   H5    S    
O16   V4    S    
V1    O10   S    
O9    C4    A    
O19   C28   A    
C21   H4    S    
O5    C3    A    
C24   H7    S    
C13   C14   T    
C11   C12   T    
C15   C16   T    
O3    C4    A    
O17   V4    S    
C6    C27   S    
N1    H8    S    
O15   V3    S    
O13   V3    S    
C23   H6    S    
C23   C24   D    
C5    H1    S    
O19   V4    S    
C7    C8    D    
C18   C19   S    
O6    V2    S    
C6    H2    S    
C7    H3    S    
O13   C28   A    
C8    N1    S    
O14   V3    S    
C1    C15   S    
V4    O20   S    
V2    O10   S    
O2    V1    S    
C21   C23   S    
C9    C10   T    
N1    C29   S    
C19   C20   T    
O18   V4    S    
O12   C25   A    
O11   C26   A    
C12   C13   S    
O4    C2    A    
O18   C27   A    
C21   C22   D    
C2    C24   S    
C29   H10   S    
C29   H11   S    
O1    C2    A    
C10   C11   S    
O15   C27   A    
O8    V2    S    
C5    C7    S    
O7    V2    S    
O17   V3    S    
C9    C28   S    
