data_mof_unit_66755.cif
_audit_creation_date              2012-12-11T14:19:29-0500
_audit_creation_method            fapswitch 2.2
_symmetry_space_group_name_H-M    P1
_symmetry_Int_Tables_number       1
_space_group_crystal_system       triclinic
_cell_length_a                    8.201929
_cell_length_b                    12.580288
_cell_length_c                    15.070774
_cell_angle_alpha                 95.0277
_cell_angle_beta                  99.358448
_cell_angle_gamma                 97.771556
_cell_volume                      1510.66396616

loop_
_atom_site_label
_atom_site_type_symbol
_atom_type_description
_atom_site_fract_x
_atom_site_fract_y
_atom_site_fract_z
_atom_type_partial_charge
Ba1   Ba    Ba6+2 0.153570 0.551840 0.456200 1.646916
Ba2   Ba    Ba6+2 0.656590 0.448150 0.543720 1.645979
C1    C     C_3   0.378772 0.817416 0.115188 -0.276075
C2    C     C_R   0.728361 0.814268 0.463840 -0.280625
C3    C     C_R   0.694264 0.995218 0.430155 -0.097424
C4    C     C_3   0.888075 0.839394 0.241519 0.335840
C5    C     C_R   0.628653 0.886136 0.426484 -0.005674
C6    C     C_R   0.888941 0.850288 0.512750 0.055428
C7    C     C_R   0.954135 0.963036 0.522213 -0.050975
C8    C     C_R   0.855719 0.036596 0.479208 -0.058177
C9    C     C_R   0.920678 0.149423 0.488589 0.045999
C10   C     C_R   0.179241 0.113835 0.578092 -0.034130
C11   C     C_R   0.115616 0.004176 0.571466 -0.104040
C12   C     C_3   0.370848 0.778490 0.207654 0.331292
C13   C     C_R   0.226801 0.467603 0.767878 -0.281654
C14   C     C_R   0.128400 0.428768 0.828545 0.005301
C15   C     C_R   0.192995 0.441903 0.921546 -0.131521
C16   C     C_3   0.902801 0.947052 0.201570 -0.240324
C17   C     C_R   0.357940 0.496524 0.955411 0.018672
C18   C     C_R   0.450250 0.540005 0.891602 -0.106941
C19   C     C_R   0.385551 0.525053 0.799307 0.040067
C20   C     C_R   0.598766 0.562789 0.087204 -0.134618
C21   C     C_R   0.667418 0.576000 0.178985 0.010176
C22   C     C_R   0.413563 0.481784 0.212837 0.062778
C23   C     C_3   0.640029 0.780349 0.687141 0.277209
C24   C     C_R   0.342678 0.468140 0.120575 -0.125874
C25   C     C_R   0.432507 0.510393 0.055299 -0.000941
C26   C     C_R   0.573105 0.539107 0.241859 -0.285406
C27   C     C_3   0.723000 0.311080 0.269956 0.278058
C28   C     C_3   0.679922 0.280270 0.167565 -0.279001
C29   C     C_3   0.081140 0.690208 0.730417 0.280686
C30   C     C_3   0.115898 0.722202 0.832054 -0.387557
C31   C     C_3   0.187378 0.223358 0.333930 0.291483
C32   C     C_3   0.239343 0.113366 0.346171 -0.359544
C33   C     C_1   0.826352 0.252600 0.131275 0.307722
C34   C     C_3   0.566632 0.872893 0.645332 -0.370130
C35   C     C_1   0.212684 0.828368 0.067453 0.328079
C36   C     C_1   0.799170 0.938966 0.111450 0.334891
C37   C     C_3   0.989902 0.053606 0.887320 -0.350333
C38   C     C_3   0.418367 0.243552 0.836428 -0.288750
C39   C     C_3   0.928948 0.163241 0.755570 0.418592
C40   C     C_3   0.910759 0.051320 0.788179 -0.227072
C41   C     C_3   0.405313 0.129105 0.789807 0.346423
C42   C     C_3   0.465793 0.055799 0.860262 -0.331417
C43   C     C_R   0.079104 0.185687 0.540530 -0.270109
H1    H     H_    0.269210 0.708979 0.201654 0.094532
H2    H     H_    0.210192 0.271560 0.401309 0.014671
H3    H     H_    0.256969 0.073010 0.280816 0.144416
H4    H     H_    0.143655 0.061720 0.373920 0.067809
H5    H     H_    0.359623 0.123009 0.393113 0.153860
H6    H     H_    0.490835 0.749775 0.230713 -0.061266
H7    H     H_    0.432441 0.758973 0.073119 0.051944
H8    H     H_    0.761545 0.812910 0.731206 0.047155
H9    H     H_    0.663127 0.723605 0.631293 0.025913
H10   H     H_    0.508074 0.918648 0.694176 0.142268
H11   H     H_    0.665640 0.928893 0.624038 0.059838
H12   H     H_    0.636581 0.348552 0.133822 0.029218
H13   H     H_    0.470226 0.840544 0.585607 0.141324
H14   H     H_    0.459420 0.897064 0.123980 0.103931
H15   H     H_    0.859688 0.155558 0.684887 0.045580
H16   H     H_    0.063127 0.192061 0.756204 -0.119654
H17   H     H_    0.970170 0.996665 0.745699 0.069815
H18   H     H_    0.776328 0.018393 0.780100 0.128599
H19   H     H_    0.273416 0.095578 0.760915 -0.020661
H20   H     H_    0.397913 0.060748 0.918106 0.076662
H21   H     H_    0.601431 0.079913 0.886844 0.146258
H22   H     H_    0.968515 0.850913 0.309600 0.061057
H23   H     H_    0.577853 0.210184 0.151344 0.103037
H24   H     H_    0.443039 0.970442 0.830002 0.111057
H25   H     H_    0.615669 0.046653 0.396199 0.107039
H26   H     H_    0.196067 0.952289 0.603425 0.101814
H27   H     H_    0.129637 0.270536 0.546938 0.070130
H28   H     H_    0.676564 0.729778 0.459189 0.074729
H29   H     H_    0.680858 0.592258 0.043087 0.082642
H30   H     H_    0.111461 0.409736 0.965136 0.080035
H31   H     H_    0.219416 0.422028 0.101888 0.096414
H32   H     H_    0.571576 0.588210 0.910758 0.068555
H33   H     H_    0.628141 0.548457 0.312914 0.069834
H34   H     H_    0.192422 0.663308 0.708939 0.027976
H35   H     H_    0.756507 0.815770 0.249116 -0.087126
H36   H     H_    0.176957 0.457660 0.696122 0.062484
H37   H     H_    0.864433 0.009606 0.247202 0.033552
H38   H     H_    0.034124 0.972098 0.194454 0.108927
H39   H     H_    0.613388 0.337739 0.293851 0.020965
H40   H     H_    0.829554 0.378324 0.285653 0.055719
H41   H     H_    0.919883 0.097672 0.931770 0.171961
H42   H     H_    0.986078 0.969692 0.905001 0.146373
H43   H     H_    0.121495 0.093537 0.899606 0.110239
H44   H     H_    0.378685 0.297226 0.785674 0.083877
H45   H     H_    0.973951 0.623656 0.714039 0.067660
H46   H     H_    0.336346 0.244934 0.888144 0.048972
H47   H     H_    0.549190 0.274878 0.869628 0.153790
H48   H     H_    0.226884 0.786141 0.850860 0.129948
H49   H     H_    0.139532 0.651883 0.868748 0.070702
H50   H     H_    0.005655 0.753117 0.852821 0.137158
H51   H     H_    0.053051 0.211527 0.304758 0.044829
N1    N     N_1   0.941793 0.230900 0.102664 -0.305289
N2    N     N_1   0.081718 0.836919 0.029392 -0.291689
N3    N     N_1   0.719132 0.932976 0.039968 -0.315452
O1    O     O_2   0.168170 0.764170 0.543850 -0.459842
O2    O     O_2   0.785117 0.428238 0.819921 -0.476080
O3    O     O_3   0.861543 0.234594 0.811316 -0.581449
O4    O     O_3   0.898670 0.629780 0.545890 -0.496231
O5    O     O_3   0.409490 0.443300 0.392340 -0.480663
O6    O     O_2   0.674250 0.555830 0.719690 -0.467658
O7    O     O_3   0.532161 0.734090 0.741683 -0.640771
O8    O     O_2   0.501661 0.116322 0.551798 -0.479046
O9    O     O_3   0.507094 0.129135 0.723049 -0.576616
O10   O     O_3   0.365980 0.695510 0.380810 -0.483035
O11   O     O_2   0.288425 0.885787 0.434110 -0.484040
O12   O     O_3   0.275635 0.271123 0.271986 -0.625271
O13   O     O_3   0.045812 0.780768 0.688235 -0.655420
O14   O     O_3   0.343601 0.863488 0.268049 -0.610924
O15   O     O_2   0.136040 0.444100 0.280280 -0.472076
O16   O     O_3   0.934510 0.640480 0.335500 -0.485657
O17   O     O_2   0.001302 0.562837 0.177141 -0.490249
O18   O     O_3   0.942363 0.761546 0.185071 -0.584857
O19   O     O_2   0.642110 0.235770 0.456130 -0.452596
O20   O     O_3   0.911620 0.370210 0.454030 -0.499586
O21   O     O_3   0.444310 0.304480 0.619110 -0.456441
O22   O     O_3   0.761317 0.220219 0.311412 -0.655863
O23   O     O_3   0.400800 0.556680 0.607590 -0.466963
O24   O     O_3   0.875770 0.359510 0.664420 -0.482884
P1    P     P_3+3 0.998660 0.747790 0.570900 0.961940
P2    P     P_3+3 0.306970 0.411860 0.294270 0.996422
P3    P     P_3+3 0.886428 0.633850 0.218165 0.959437
P4    P     P_3+3 0.811620 0.252200 0.429030 0.961644
P5    P     P_3+3 0.912803 0.364925 0.782538 0.979181
P6    P     P_3+3 0.407216 0.834899 0.378890 0.954043
P7    P     P_3+3 0.498964 0.593156 0.719931 0.960164
P8    P     P_3+3 0.403578 0.164234 0.620518 0.963979

loop_
_geom_bond_atom_site_label_1
_geom_bond_atom_site_label_2
_ccdc_geom_bond_type
C30   H49   S    
C10   P8    S    
O21   P8    S    
C39   C40   S    
C42   H21   S    
C17   C18   A    
C37   H42   S    
C2    C6    A    
Ba2   O19   S    
C12   H1    S    
Ba2   O24   S    
C10   C11   A    
C24   C25   A    
C3    H25   S    
O16   P3    S    
O14   P6    S    
C18   H32   S    
C23   H8    S    
O13   P1    S    
C34   H13   S    
C13   C14   A    
C28   H12   S    
O2    P5    D    
C39   O3    S    
O11   P6    D    
Ba1   Ba2   S    
Ba1   O20   S    
C7    C11   A    
Ba1   O23   S    
O9    P8    S    
Ba1   O10   S    
C38   C41   S    
O5    P2    S    
C12   H6    S    
C6    C7    A    
C27   O22   S    
O12   P2    S    
C24   H31   S    
C29   O13   S    
C31   O12   S    
C39   H16   S    
C38   H44   S    
C17   C25   S    
O18   P3    S    
C40   H17   S    
C4    O18   S    
C27   H40   S    
Ba2   P4    S    
C30   H48   S    
O17   P3    D    
C43   H27   S    
C42   H20   S    
C37   H43   S    
C2    C5    A    
O4    P1    S    
C16   H37   S    
Ba1   O1    S    
C35   N2    T    
C41   H19   S    
C16   H38   S    
C37   C40   S    
Ba2   O23   S    
C4    C16   S    
C32   H5    S    
C23   H9    S    
C27   H39   S    
C13   H36   S    
C3    C5    A    
O15   P2    D    
Ba2   O21   S    
C6    P1    S    
C11   H26   S    
O1    P1    D    
C9    P4    S    
C41   C42   S    
C27   C28   S    
C34   H11   S    
C4    H35   S    
C29   C30   S    
Ba2   O5    S    
C1    H7    S    
C29   H45   S    
C31   C32   S    
C42   H24   S    
C21   C26   A    
C38   H47   S    
C29   H34   S    
C14   P5    S    
Ba1   O5    S    
C2    H28   S    
C1    C12   S    
C21   P3    S    
C28   C33   S    
O8    P8    D    
C4    H22   S    
C20   C25   A    
O10   P6    S    
C22   P2    S    
C31   H2    S    
C9    C43   A    
C32   H3    S    
O19   P4    D    
C20   H29   S    
C31   H51   S    
C26   H33   S    
C7    C8    A    
O7    P7    S    
Ba1   O4    S    
C32   H4    S    
C23   O7    S    
C22   C26   A    
C39   H15   S    
Ba1   P2    S    
C36   N3    T    
Ba2   O20   S    
O22   P4    S    
O6    P7    D    
C10   C43   A    
C12   O14   S    
Ba2   O6    S    
O3    P5    S    
C16   C36   S    
Ba1   P1    S    
C3    C8    A    
C34   H10   S    
C22   C24   A    
O24   P5    S    
C14   C15   A    
Ba2   O4    S    
C15   C17   A    
C41   O9    S    
C38   H46   S    
C19   P7    S    
C5    P6    S    
C8    C9    A    
C23   C34   S    
C13   C19   A    
C30   H50   S    
C18   C19   A    
C1    C35   S    
Ba1   O15   S    
C15   H30   S    
C20   C21   A    
Ba1   O16   S    
C37   H41   S    
C33   N1    T    
C40   H18   S    
O23   P7    S    
C28   H23   S    
O20   P4    S    
C1    H14   S    
