data_mof_unit_40327.cif
_audit_creation_date              2012-12-10T16:55:42-0500
_audit_creation_method            fapswitch 2.2
_symmetry_space_group_name_H-M    P1
_symmetry_Int_Tables_number       1
_space_group_crystal_system       triclinic
_cell_length_a                    7.791147
_cell_length_b                    8.573196
_cell_length_c                    10.481893
_cell_angle_alpha                 91.258387
_cell_angle_beta                  85.027211
_cell_angle_gamma                 93.827922
_cell_volume                      695.854793199

loop_
_atom_site_label
_atom_site_type_symbol
_atom_type_description
_atom_site_fract_x
_atom_site_fract_y
_atom_site_fract_z
_atom_type_partial_charge
C1    C     C_R   0.545847 0.794712 0.496708 0.960476
C2    C     C_3   0.500258 0.500159 0.877601 0.037242
C3    C     C_3   0.395542 0.379301 0.046355 -0.188945
C4    C     C_3   0.604457 0.620699 0.953645 -0.188945
C5    C     C_2   0.569866 0.958333 0.494839 -0.388019
C6    C     C_2   0.430133 0.041668 0.505161 -0.388019
C7    C     C_R   0.454153 0.205288 0.503292 0.960476
C8    C     C_R   0.500597 0.500284 0.742537 0.858750
C9    C     C_R   0.499403 0.499716 0.257463 0.858750
C10   C     C_3   0.338091 0.515089 0.969438 -0.134375
C11   C     C_3   0.661909 0.484911 0.030562 -0.134375
C12   C     C_3   0.442682 0.635596 0.048156 -0.179864
C13   C     C_3   0.557318 0.364404 0.951844 -0.179864
C14   C     C_3   0.499742 0.499841 0.122399 0.037242
H1    H     H_    0.205814 0.527389 0.940754 0.142352
H2    H     H_    0.298262 0.990338 0.514976 0.180087
H3    H     H_    0.794186 0.472611 0.059246 0.142352
H4    H     H_    0.395961 0.745577 0.092282 0.133347
H5    H     H_    0.604039 0.254423 0.907718 0.133347
H6    H     H_    0.310596 0.281459 0.089025 0.129422
H7    H     H_    0.689404 0.718541 0.910975 0.129422
H8    H     H_    0.013619 0.381874 0.403749 0.188470
H9    H     H_    0.986381 0.618126 0.596251 0.188470
H10   H     H_    0.701738 0.009662 0.485024 0.180087
N1    N     N_2   0.950320 0.457950 0.465730 -0.174832
N2    N     N_2   0.049680 0.542050 0.534270 -0.174832
O1    O     O_R   0.389250 0.738570 0.508410 -0.612315
O2    O     O_R   0.610750 0.261430 0.491590 -0.612315
O3    O     O_R   0.678390 0.711620 0.486450 -0.630048
O4    O     O_R   0.321610 0.288380 0.513550 -0.630048
O5    O     O_R   0.355460 0.513510 0.697030 -0.626744
O6    O     O_R   0.644540 0.486490 0.302970 -0.626744
O7    O     O_R   0.644600 0.486560 0.675070 -0.628431
O8    O     O_R   0.355400 0.513440 0.324930 -0.628431
Zn1   Zn    Zn3+2 0.306940 0.517990 0.514670 0.933427
Zn2   Zn    Zn3+2 0.693060 0.482010 0.485330 0.933427

loop_
_geom_bond_atom_site_label_1
_geom_bond_atom_site_label_2
_ccdc_geom_bond_type
C2    C4    S    
C9    C14   S    
C6    C7    S    
C3    C14   S    
C4    C12   S    
C3    C13   S    
C8    O7    A    
C1    O3    A    
C3    H6    S    
C7    O4    A    
C4    C11   S    
C4    H7    S    
C11   C13   S    
O3    Zn2   S    
C9    O8    A    
C5    H10   S    
C10   C12   S    
O4    Zn1   S    
C1    C5    S    
O6    Zn2   S    
C12   C14   S    
C10   H1    S    
C5    C6    D    
C11   C14   S    
O5    Zn1   S    
C13   H5    S    
N1    Zn2   S    
C6    H2    S    
C2    C10   S    
N2    Zn1   S    
O7    Zn2   S    
O2    Zn2   S    
C1    O1    A    
O8    Zn1   S    
H9    N2    S    
C12   H4    S    
C3    C10   S    
C2    C13   S    
C11   H3    S    
C9    O6    A    
O1    Zn1   S    
N1    N2    D    
C8    O5    A    
C2    C8    S    
C7    O2    A    
H8    N1    S    
