data_mof_unit_7884.cif
_audit_creation_date              2012-10-26T18:26:33-0400
_audit_creation_method            fapswitch 2.2
_symmetry_space_group_name_H-M    P1
_symmetry_Int_Tables_number       1
_space_group_crystal_system       triclinic
_cell_length_a                    15.814277
_cell_length_b                    8.716641
_cell_length_c                    7.522569
_cell_angle_alpha                 103.340242
_cell_angle_beta                  94.986681
_cell_angle_gamma                 94.209296
_cell_volume                      1000.48426137

loop_
_atom_site_label
_atom_site_type_symbol
_atom_type_description
_atom_site_fract_x
_atom_site_fract_y
_atom_site_fract_z
_atom_type_partial_charge
C1    C     C_R   0.497312 0.199710 0.452940 0.549536
C2    C     C_3   0.989099 0.648079 0.577950 0.293546
C3    C     C_1   0.249746 0.485998 0.500064 -0.007510
C4    C     C_1   0.750254 0.514002 0.499936 -0.007510
C5    C     C_3   0.038121 0.538781 0.675052 -0.135842
C6    C     C_3   0.961879 0.461219 0.324948 -0.135842
C7    C     C_3   0.082238 0.485115 0.498758 0.031967
C8    C     C_3   0.917762 0.514885 0.501242 0.031967
C9    C     C_1   0.173825 0.480827 0.498944 -0.026896
C10   C     C_1   0.826175 0.519173 0.501055 -0.026896
C11   C     C_3   0.946518 0.105292 0.272799 -0.017423
C12   C     C_R   0.502688 0.800290 0.547060 0.549536
C13   C     C_3   0.960072 0.930892 0.216319 -0.358357
C14   C     C_3   0.053482 0.894708 0.727201 -0.017423
C15   C     C_3   0.039928 0.069108 0.783682 -0.358357
C16   C     C_1   0.414549 0.347013 0.927670 0.439704
C17   C     C_1   0.585451 0.652987 0.072330 0.439704
C18   C     C_R   0.339858 0.495290 0.500075 0.552754
C19   C     C_R   0.660142 0.504710 0.499925 0.552754
C20   C     C_2   0.496049 0.031384 0.427177 -0.135872
C21   C     C_2   0.503951 0.968616 0.572823 -0.135872
C22   C     C_3   0.965853 0.403066 0.597043 -0.141347
C23   C     C_3   0.034147 0.596934 0.402957 -0.141347
C24   C     C_3   0.010901 0.351921 0.422050 0.293546
Cu1   Cu    Cu3+1 0.509330 0.517380 0.684380 0.996277
Cu2   Cu    Cu3+1 0.490670 0.482620 0.315620 0.996277
H1    H     H_    0.935349 0.325549 0.676162 0.097081
H2    H     H_    0.899255 0.860602 0.151272 0.131089
H3    H     H_    0.008663 0.911841 0.117858 0.160171
H4    H     H_    0.099540 0.881173 0.621903 0.136871
H5    H     H_    0.081928 0.858211 0.849593 0.130637
H6    H     H_    0.991336 0.088159 0.882142 0.160171
H7    H     H_    0.100745 0.139398 0.848729 0.131089
H8    H     H_    0.017876 0.109778 0.660299 0.183857
H9    H     H_    0.064651 0.674451 0.323838 0.097081
H10   H     H_    0.929830 0.430299 0.182325 0.102256
H11   H     H_    0.070170 0.569701 0.817675 0.102256
H12   H     H_    0.488607 0.958782 0.287269 0.139168
H13   H     H_    0.511393 0.041218 0.712731 0.139168
H14   H     H_    0.918072 0.141789 0.150408 0.130637
H15   H     H_    0.900460 0.118827 0.378097 0.136871
H16   H     H_    0.982124 0.890222 0.339701 0.183857
N1    N     N_2   0.476600 0.456420 0.038510 -0.202058
N2    N     N_2   0.523400 0.543580 0.961490 -0.202058
N3    N     N_1   0.362406 0.255016 0.837059 -0.338238
N4    N     N_1   0.637594 0.744984 0.162941 -0.338238
O1    O     O_R   0.506070 0.286130 0.619780 -0.507153
O2    O     O_3   0.974377 0.805410 0.658284 -0.560386
O3    O     O_R   0.493930 0.713870 0.380220 -0.507153
O4    O     O_R   0.490300 0.256770 0.308360 -0.507872
O5    O     O_R   0.509700 0.743230 0.691640 -0.507872
O6    O     O_R   0.386960 0.514660 0.655680 -0.499932
O7    O     O_R   0.613040 0.485340 0.344320 -0.499932
O8    O     O_R   0.371190 0.485310 0.344260 -0.506026
O9    O     O_R   0.628810 0.514690 0.655740 -0.506026
O10   O     O_3   0.025623 0.194590 0.341716 -0.560386

loop_
_geom_bond_atom_site_label_1
_geom_bond_atom_site_label_2
_ccdc_geom_bond_type
C16   N3    T    
C8    C22   S    
N1    N2    D    
Cu1   O5    S    
C13   H2    S    
C3    C9    T    
C5    H11   S    
C24   O10   S    
C20   H12   S    
C1    O4    A    
Cu1   O1    S    
C15   H8    S    
C21   H13   S    
C14   H5    S    
C6    C24   S    
C19   O7    A    
C6    C8    S    
C12   O3    A    
Cu1   O6    S    
C18   O6    A    
C15   H6    S    
C11   O10   S    
C20   C21   D    
C11   C13   S    
C16   N1    S    
C14   H4    S    
C7    C23   S    
C6    C23   S    
Cu2   O8    S    
Cu1   N2    S    
C13   H3    S    
C13   H16   S    
C6    H10   S    
Cu2   N1    S    
C11   H15   S    
C23   H9    S    
C22   H1    S    
Cu2   O4    S    
C11   H14   S    
C22   C24   S    
C17   N2    S    
C2    C5    S    
C18   O8    A    
C4    C10   T    
C7    C24   S    
Cu2   O7    S    
C12   O5    A    
C17   N4    T    
C3    C18   S    
C8    C10   S    
Cu2   O3    S    
C19   O9    A    
C2    C23   S    
C7    C9    S    
C5    C7    S    
C1    O1    A    
C1    C20   S    
C14   O2    S    
C2    O2    S    
Cu1   Cu2   S    
C14   C15   S    
C4    C19   S    
C12   C21   S    
C15   H7    S    
C2    C8    S    
C5    C22   S    
Cu1   O9    S    
