data_mof_unit_23670.cif
_audit_creation_date              2013-03-05T17:01:39-0500
_audit_creation_method            fapswitch 2.2
_symmetry_space_group_name_H-M    P1
_symmetry_Int_Tables_number       1
_space_group_crystal_system       triclinic
_cell_length_a                    10.741563
_cell_length_b                    16.061298
_cell_length_c                    16.68385
_cell_angle_alpha                 87.310267
_cell_angle_beta                  90.239724
_cell_angle_gamma                 91.496432
_cell_volume                      2874.19099575

loop_
_atom_site_label
_atom_site_type_symbol
_atom_site_description
_atom_site_fract_x
_atom_site_fract_y
_atom_site_fract_z
_atom_type_partial_charge
O1    O     O_R   0.494470 0.422540 0.612660 -0.620584
O2    O     O_R   0.504400 0.561840 0.618900 -0.649939
C1    C     C_R   0.493628 0.488660 0.653255 0.958791
O3    O     O_R   0.680240 0.430340 0.496890 -0.601340
O4    O     O_R   0.690170 0.569650 0.503130 -0.582346
C2    C     C_R   0.743405 0.499130 0.497403 0.901795
Zn1   Zn    Zn3+2 0.493370 0.406980 0.495830 1.010662
Zn2   Zn    Zn3+2 0.506630 0.593020 0.504170 1.025171
O5    O     O_R   0.495600 0.438160 0.381100 -0.580961
O6    O     O_R   0.505530 0.577460 0.387340 -0.569936
O7    O     O_R   0.309830 0.430350 0.496870 -0.618276
O8    O     O_R   0.319760 0.569660 0.503110 -0.576460
C3    C     C_R   0.492809 0.511693 0.346152 0.897743
C4    C     C_R   0.260105 0.500012 0.513200 0.883189
C5    C     C_3   0.924818 0.426407 0.565851 0.109478
H1    H     H_    0.885077 0.364378 0.552717 0.181037
C6    C     C_3   0.069829 0.421102 0.558909 -0.496235
H2    H     H_    0.115649 0.410293 0.618138 0.205157
H3    H     H_    0.093356 0.365757 0.524905 0.215508
H4    H     H_    0.145618 0.478488 0.385610 0.239755
C7    C     C_3   0.945264 0.476218 0.416526 0.226954
C8    C     C_3   0.929578 0.582267 0.539028 0.144492
C9    C     C_3   0.881091 0.496800 0.501891 -0.195122
H5    H     H_    0.880315 0.587890 0.597222 0.150984
C10   C     C_3   0.124410 0.502749 0.515310 -0.016295
C11   C     C_3   0.081774 0.508992 0.426556 -0.400918
C12   C     C_3   0.070139 0.577404 0.561351 -0.299841
H6    H     H_    0.070797 0.554159 0.625045 0.181579
H7    H     H_    0.092356 0.575609 0.409486 0.183253
C13   C     C_R   0.459546 0.480965 0.737504 -0.085155
C14   C     C_R   0.406001 0.548760 0.772608 -0.331451
C15   C     C_R   0.359923 0.540909 0.850381 0.331378
C16   C     C_R   0.375762 0.464933 0.895154 0.171923
C17   C     C_R   0.423297 0.394963 0.858873 -0.042883
C18   C     C_R   0.464672 0.403771 0.779659 -0.218319
C19   C     C_R   0.408212 0.447000 0.138381 -0.230050
C20   C     C_R   0.418739 0.447164 0.221030 0.257559
C21   C     C_R   0.444807 0.516852 0.090748 0.272310
N1    N     N_2   0.369352 0.463203 0.979230 -0.155242
N2    N     N_2   0.440604 0.517476 0.006414 -0.134022
C22   C     C_R   0.470339 0.518497 0.258536 -0.216682
H8    H     H_    0.371564 0.391315 0.111465 0.193061
H9    H     H_    0.501440 0.350508 0.750945 0.176292
C23   C     C_R   0.502276 0.591581 0.209378 -0.040045
C24   C     C_R   0.491575 0.587507 0.125942 -0.246305
H10   H     H_    0.520436 0.640402 0.086959 0.162380
H11   H     H_    0.396946 0.607392 0.738617 0.194178
N3    N     N_R   0.515460 0.716920 0.509720 -0.137934
C25   C     C_R   0.465032 0.772227 0.452913 0.420057
C26   C     C_R   0.484497 0.858299 0.459939 -0.346313
C27   C     C_R   0.540189 0.890875 0.527946 0.209307
C28   C     C_R   0.586768 0.833953 0.587077 -0.082422
C29   C     C_R   0.576083 0.747237 0.574942 -0.036383
C30   C     C_R   0.581867 0.152571 0.523208 -0.283095
C31   C     C_R   0.584277 0.239931 0.518828 0.026748
C32   C     C_R   0.474877 0.108191 0.498397 0.259681
N4    N     N_2   0.551864 0.979697 0.535535 -0.170367
N5    N     N_2   0.467438 0.018871 0.499317 -0.195959
N6    N     N_R   0.484530 0.283060 0.490290 -0.106355
H12   H     H_    0.665862 0.273388 0.539677 0.169832
H13   H     H_    0.663029 0.120370 0.545782 0.166494
H14   H     H_    0.613465 0.703575 0.619494 0.168211
C33   C     C_R   0.379541 0.242111 0.466211 0.015275
C34   C     C_R   0.372161 0.154238 0.468873 -0.104612
H15   H     H_    0.300785 0.277796 0.445403 0.195695
H16   H     H_    0.451044 0.900946 0.413118 0.202231
C35   C     C_R   0.139086 0.662561 0.566116 0.145760
C36   C     C_R   0.145101 0.722362 0.501521 0.072974
C37   C     C_R   0.188951 0.803736 0.512937 -0.129012
C38   C     C_R   0.235629 0.825508 0.587356 -0.164686
C39   C     C_R   0.237442 0.766132 0.650883 -0.123836
C40   C     C_R   0.188444 0.685835 0.640823 -0.160584
H17   H     H_    0.113180 0.707989 0.442421 0.183342
H18   H     H_    0.188703 0.849737 0.463439 0.169605
H19   H     H_    0.271413 0.888177 0.595532 0.151905
H20   H     H_    0.274469 0.782821 0.708548 0.180889
H21   H     H_    0.186562 0.642419 0.692443 0.151957
C41   C     C_R   0.887414 0.510637 0.335744 0.127670
C42   C     C_R   0.780208 0.469429 0.305682 -0.152916
C43   C     C_R   0.747489 0.476704 0.224555 -0.148500
C44   C     C_R   0.811947 0.532011 0.172350 -0.103790
C45   C     C_R   0.913305 0.577566 0.200400 -0.131976
C46   C     C_R   0.953216 0.565525 0.279808 -0.064368
H22   H     H_    0.725587 0.426326 0.343165 0.202623
H23   H     H_    0.671970 0.438739 0.201906 0.162833
H24   H     H_    0.784122 0.538850 0.110009 0.153825
H25   H     H_    0.964687 0.619958 0.159571 0.159064
H26   H     H_    0.037896 0.598930 0.293835 0.150566
N7    N     N_R   0.374843 0.373750 0.265544 0.227270
O9    O     O_R   0.410934 0.300627 0.246127 -0.395288
O10   O     O_R   0.282555 0.378632 0.315032 -0.366217
C47   C     C_R   0.436628 0.313901 0.904564 0.132715
C48   C     C_R   0.338038 0.280059 0.952017 -0.139764
C49   C     C_R   0.350815 0.204006 0.995179 -0.113557
C50   C     C_R   0.461611 0.160779 0.991112 -0.096697
C51   C     C_R   0.559899 0.193545 0.943890 -0.138979
C52   C     C_R   0.547739 0.269708 0.900797 -0.143919
H27   H     H_    0.250955 0.312223 0.955198 0.151430
H28   H     H_    0.274603 0.178460 0.031627 0.149032
H29   H     H_    0.471271 0.101865 0.024496 0.132058
H30   H     H_    0.645731 0.160011 0.940825 0.136824
H31   H     H_    0.625519 0.294546 0.865282 0.154864
C53   C     C_R   0.546734 0.674068 0.237997 0.148539
C54   C     C_R   0.491480 0.747052 0.205555 -0.056443
C55   C     C_R   0.540630 0.825971 0.221603 -0.078102
C56   C     C_R   0.644393 0.833497 0.271323 -0.170811
C57   C     C_R   0.700438 0.762151 0.303752 -0.114985
C58   C     C_R   0.653271 0.682804 0.286453 -0.081073
H32   H     H_    0.410392 0.742856 0.166989 0.146584
H33   H     H_    0.497237 0.881287 0.196149 0.138887
H34   H     H_    0.681677 0.894610 0.284549 0.144357
H35   H     H_    0.781601 0.769078 0.341368 0.213798
H36   H     H_    0.700687 0.628757 0.310162 0.168082
N8    N     N_R   0.300426 0.610399 0.884459 0.213693
O11   O     O_R   0.217814 0.598008 0.940905 -0.368688
O12   O     O_R   0.320760 0.685927 0.854853 -0.428608
N9    N     N_R   0.882365 0.440321 0.648236 0.186488
O13   O     O_R   0.959993 0.445792 0.708006 -0.410471
O14   O     O_R   0.764001 0.435220 0.664191 -0.426224
C59   C     C_R   0.641175 0.863178 0.663052 0.119583
C60   C     C_R   0.755059 0.832489 0.692082 -0.138999
C61   C     C_R   0.805385 0.859673 0.764023 -0.121485
C62   C     C_R   0.742193 0.917152 0.807992 -0.105203
C63   C     C_R   0.628249 0.947276 0.780278 -0.131184
C64   C     C_R   0.577576 0.920273 0.708367 -0.117658
H37   H     H_    0.805480 0.788002 0.659029 0.184435
H38   H     H_    0.893436 0.836099 0.785702 0.152601
H39   H     H_    0.781250 0.938074 0.863701 0.131667
H40   H     H_    0.578867 0.991313 0.814711 0.134267
H41   H     H_    0.488027 0.943149 0.688645 0.133709
C65   C     C_R   0.255218 0.112033 0.442861 0.119882
C66   C     C_R   0.140143 0.134186 0.474504 -0.130263
C67   C     C_R   0.029875 0.093939 0.450901 -0.067267
C68   C     C_R   0.033369 0.031543 0.395397 -0.106035
C69   C     C_R   0.147015 0.009795 0.362861 -0.150243
C70   C     C_R   0.257460 0.050056 0.386076 -0.089096
H42   H     H_    0.135899 0.181926 0.518104 0.122311
H43   H     H_    0.941723 0.110979 0.475835 0.143225
H44   H     H_    0.947982 0.000259 0.377388 0.139003
H45   H     H_    0.149555 0.961791 0.319519 0.163128
H46   H     H_    0.344428 0.033304 0.359314 0.143215
N10   N     N_R   0.384853 0.746610 0.388015 0.189973
O15   O     O_R   0.332477 0.673268 0.388527 -0.392431
O16   O     O_R   0.339036 0.802722 0.338164 -0.476996
N11   N     N_R   0.949201 0.384202 0.406649 0.187150
O17   O     O_R   0.036221 0.353629 0.363555 -0.335636
O18   O     O_R   0.851374 0.336339 0.421067 -0.451035
N12   N     N_R   0.898281 0.658046 0.491016 0.210140
O19   O     O_R   0.859161 0.722623 0.526788 -0.442889
O20   O     O_R   0.899371 0.660486 0.413335 -0.502320

loop_
_geom_bond_atom_site_label_1
_geom_bond_atom_site_label_2
_geom_bond_distance
_ccdc_geom_bond_type
C55   H33   1.082355 S    
C33   H15   1.081136 S    
C48   C49   1.398164 A    
C31   N6    1.363113 A    
C57   H35   1.078520 S    
C19   H8    1.083673 S    
C50   C51   1.396887 A    
C7    C11   1.555989 S    
C3    C22   1.479997 S    
C44   C45   1.387801 A    
N4    N5    1.254164 D    
C69   C70   1.398281 A    
C24   H10   1.084865 S    
C59   C60   1.406453 A    
Zn1   O7    2.016823 S    
C70   H46   1.082731 S    
C13   C18   1.398672 A    
C19   C20   1.383194 A    
N12   O20   1.294862 A    
C35   C40   1.414978 A    
N9    O14   1.299765 A    
C42   H22   1.075073 S    
O7    C4    1.293219 A    
C56   C57   1.394055 A    
C45   H25   1.082684 S    
C6    H2    1.110469 S    
C17   C18   1.395800 A    
C61   H38   1.082463 S    
O5    C3    1.293369 A    
C21   C24   1.383933 A    
C53   C54   1.411891 A    
C40   H21   1.082324 S    
O1    Zn1   1.976676 S    
C64   H41   1.083040 S    
C32   N5    1.434104 S    
C66   C67   1.398519 A    
C7    C41   1.564990 S    
C57   C58   1.401319 A    
C32   C34   1.418031 A    
C38   C39   1.392521 A    
C27   N4    1.440284 S    
N7    O10   1.299052 A    
C18   H9    1.083982 S    
C44   H24   1.082386 S    
C5    C9    1.596225 S    
C46   H26   1.074479 S    
C67   H43   1.082629 S    
C4    C10   1.460012 S    
C14   H11   1.082619 S    
C31   H12   1.080805 S    
C25   N10   1.448752 S    
C69   H45   1.082435 S    
O3    Zn1   2.032542 S    
C41   C46   1.429477 A    
Zn1   N6    1.996557 S    
C54   C55   1.397423 A    
N11   O18   1.302141 A    
C23   C53   1.495211 S    
C47   C52   1.407576 A    
N11   O17   1.301729 A    
C56   H34   1.082402 S    
C8    C9    1.606004 S    
N3    C29   1.368389 A    
C30   C32   1.407516 A    
C61   C62   1.396985 A    
C35   C36   1.410075 A    
C62   C63   1.396814 A    
N12   O19   1.300573 A    
O3    C2    1.281717 A    
C65   C70   1.406755 A    
C68   H44   1.082485 S    
C50   H29   1.082374 S    
C36   C37   1.398846 A    
C10   C11   1.547653 S    
C5    N9    1.478698 S    
C60   H37   1.080589 S    
O1    C1    1.286326 A    
C7    N11   1.496436 S    
C58   H36   1.076381 S    
C1    C13   1.452798 S    
Zn2   N3    1.996248 S    
C43   H23   1.079755 S    
C29   H14   1.081104 S    
C14   C15   1.389706 A    
C34   C65   1.484707 S    
C13   C14   1.398147 A    
Zn2   O8    2.032542 S    
C51   C52   1.398346 A    
C26   C27   1.397373 A    
C37   H18   1.081976 S    
C16   N1    1.403618 S    
C26   H16   1.081105 S    
C60   C61   1.398180 A    
C53   C58   1.406181 A    
C28   C59   1.484541 S    
N3    C25   1.386561 A    
C8    N12   1.470928 S    
C45   C46   1.397100 A    
C49   C50   1.396883 A    
C8    C12   1.556658 S    
C7    C9    1.636197 S    
C67   C68   1.397350 A    
C22   C23   1.434973 A    
C8    H5    1.116176 S    
C42   C43   1.397321 A    
C65   C66   1.406877 A    
C39   H20   1.082159 S    
N1    N2    1.245261 D    
C28   C29   1.418402 A    
C5    C6    1.567259 S    
C30   C31   1.401152 A    
C41   C42   1.414992 A    
O2    Zn2   1.955781 S    
C23   C24   1.400738 A    
C52   H31   1.082965 S    
O8    C4    1.279090 A    
C43   C44   1.388298 A    
O6    C3    1.290910 A    
O4    Zn2   2.016824 S    
N8    O12   1.301570 A    
N8    O11   1.301573 A    
C68   C69   1.397319 A    
C30   H13   1.082545 S    
C10   C12   1.579334 S    
C55   C56   1.392708 A    
N6    C33   1.359424 A    
C20   N7    1.433848 S    
C6    C10   1.570473 S    
C15   C16   1.414302 A    
C19   C21   1.393071 A    
O2    C1    1.285941 A    
C36   H17   1.075873 S    
C27   C28   1.412285 A    
N9    O13   1.301868 A    
C21   N2    1.407113 S    
C62   H39   1.082346 S    
O4    C2    1.289749 A    
H4    C11   1.109000 S    
C49   H28   1.082356 S    
C2    C9    1.481908 S    
C47   C48   1.407224 A    
C6    H3    1.111828 S    
C16   C17   1.409409 A    
C63   H40   1.082545 S    
N10   O16   1.302139 A    
C59   C64   1.407592 A    
C20   C22   1.429190 A    
C37   C38   1.393419 A    
C17   C47   1.487421 S    
C12   C35   1.543477 S    
C33   C34   1.410122 A    
Zn1   O5    1.955781 S    
C39   C40   1.397333 A    
C38   H19   1.082470 S    
C11   H7    1.097340 S    
Zn2   O6    1.976678 S    
C25   C26   1.403021 A    
C12   H6    1.109745 S    
N10   O15   1.291774 A    
C54   H32   1.083292 S    
C66   H42   1.083328 S    
C15   N8    1.441261 S    
N7    O9    1.301962 A    
C51   H30   1.082424 S    
C48   H27   1.083015 S    
C5    H1    1.104671 S    
C63   C64   1.398153 A    
