data_mof_unit_34123.cif
_audit_creation_date              2012-12-10T20:31:51-0500
_audit_creation_method            fapswitch 2.2
_symmetry_space_group_name_H-M    P1
_symmetry_Int_Tables_number       1
_space_group_crystal_system       triclinic
_cell_length_a                    9.869839
_cell_length_b                    10.677032
_cell_length_c                    15.472923
_cell_angle_alpha                 90.049833
_cell_angle_beta                  67.700307
_cell_angle_gamma                 89.974747
_cell_volume                      1508.59895439

loop_
_atom_site_label
_atom_site_type_symbol
_atom_type_description
_atom_site_fract_x
_atom_site_fract_y
_atom_site_fract_z
_atom_type_partial_charge
C1    C     C_R   0.501488 0.740047 0.497361 0.880610
C2    C     C_R   0.401848 0.444204 0.916316 0.122166
C3    C     C_R   0.257501 0.483643 0.971731 0.168493
C4    C     C_R   0.502770 0.415508 0.958811 0.018005
C5    C     C_R   0.464052 0.444873 0.054137 0.070747
C6    C     C_R   0.316246 0.474860 0.108887 -0.210227
C7    C     C_R   0.214424 0.492460 0.068125 -0.243953
C8    C     C_R   0.641594 0.361023 0.909112 -0.266444
C9    C     C_R   0.744639 0.345701 0.949701 0.237495
C10   C     C_R   0.713296 0.388571 0.041036 0.100204
C11   C     C_R   0.573880 0.442034 0.092075 0.052404
C12   C     C_R   0.408349 0.497916 0.676082 0.878260
C13   C     C_R   0.816769 0.378850 0.083378 -0.173987
C14   C     C_R   0.782318 0.420537 0.174795 -0.227995
C15   C     C_R   0.548703 0.494458 0.179371 -0.231775
C16   C     C_R   0.385428 0.936237 0.485409 0.136352
C17   C     C_R   0.509269 0.871457 0.482905 -0.103943
C18   C     C_R   0.642051 0.935142 0.462705 -0.219308
C19   C     C_R   0.642188 0.064680 0.462502 -0.216782
C20   C     C_R   0.509519 0.128590 0.482571 -0.102059
C21   C     C_R   0.385570 0.063967 0.485198 0.115346
C22   C     C_3   0.230957 0.071520 0.554058 -0.442021
C23   C     C_R   0.501694 0.259982 0.497166 0.887595
C24   C     C_3   0.230882 0.929541 0.554411 -0.486742
C25   C     C_R   0.901878 0.592047 0.545565 0.213217
C26   C     C_R   0.958975 0.416030 0.448074 -0.139880
C27   C     C_R   0.102905 0.415953 0.448122 -0.125936
C28   C     C_R   0.044414 0.592004 0.545507 0.206687
C29   C     C_3   0.990181 0.620192 0.647313 -0.515335
C30   C     C_3   0.836313 0.620424 0.647575 -0.479454
C31   C     C_R   0.591559 0.498339 0.323836 0.863274
C32   C     C_R   0.350280 0.487164 0.777581 -0.067282
C33   C     C_R   0.646732 0.477067 0.223218 -0.051930
C34   C     C_R   0.159548 0.517862 0.929642 -0.174822
C35   C     C_R   0.206045 0.520180 0.832696 -0.138334
C36   C     C_R   0.444694 0.445505 0.819365 -0.256063
H1    H     H_    0.103304 0.518595 0.111823 0.147925
H2    H     H_    0.922732 0.336009 0.047675 0.192199
H3    H     H_    0.742699 0.886002 0.453419 0.169994
H4    H     H_    0.742908 0.113688 0.453081 0.166541
H5    H     H_    0.221924 0.113301 0.621919 0.226655
H6    H     H_    0.156336 0.112368 0.522831 0.202717
H7    H     H_    0.222144 0.888711 0.622433 0.204681
H8    H     H_    0.156004 0.888258 0.523555 0.203207
H9    H     H_    0.928764 0.346709 0.407589 0.139509
H10   H     H_    0.181220 0.346502 0.407701 0.147620
H11   H     H_    0.010055 0.541908 0.688352 0.230643
H12   H     H_    0.450732 0.547903 0.215923 0.152084
H13   H     H_    0.026181 0.713768 0.661679 0.198617
H14   H     H_    0.768064 0.542652 0.689356 0.220569
H15   H     H_    0.783476 0.714219 0.661944 0.203772
H16   H     H_    0.859197 0.404981 0.208394 0.153690
H17   H     H_    0.049109 0.547823 0.971527 0.151004
H18   H     H_    0.131217 0.551597 0.801108 0.158024
H19   H     H_    0.554569 0.420993 0.774387 0.150832
H20   H     H_    0.275577 0.483112 0.183985 0.145617
H21   H     H_    0.671784 0.325185 0.839145 0.179093
N1    N     N_R   0.856900 0.500860 0.500610 -0.102913
N2    N     N_R   0.142540 0.500820 0.500610 -0.100432
O1    O     O_R   0.385310 0.683210 0.499990 -0.614434
O2    O     O_R   0.614650 0.683240 0.500000 -0.619584
O3    O     O_R   0.319830 0.499970 0.632240 -0.606444
O4    O     O_R   0.549170 0.500000 0.632250 -0.616450
O5    O     O_R   0.385350 0.316760 0.500000 -0.613025
O6    O     O_R   0.614690 0.316790 0.500010 -0.622211
O7    O     O_R   0.450830 0.500000 0.367750 -0.618845
O8    O     O_R   0.680170 0.500030 0.367760 -0.617443
Zn1   Zn    Zn3+2 0.346870 0.499980 0.499990 0.949047
Zn2   Zn    Zn3+2 0.653130 0.500020 0.500010 0.940709
Br1   Br    Br    0.928052 0.268648 0.874836 -0.579556

loop_
_geom_bond_atom_site_label_1
_geom_bond_atom_site_label_2
_ccdc_geom_bond_type
C26   C27   A    
C31   O7    A    
O7    Zn1   S    
C18   H3    S    
C31   C33   S    
N1    Zn2   S    
C5    C11   A    
C29   C30   S    
N2    Zn1   S    
C12   O3    A    
C9    C10   A    
C1    C17   S    
C19   C20   A    
C26   H9    S    
C20   C23   S    
O3    Zn1   S    
C4    C8    A    
C23   O6    A    
C14   C33   A    
C2    C3    A    
C7    H1    S    
C16   C24   S    
C36   H19   S    
C29   H13   S    
C21   C22   S    
C12   C32   S    
C35   H18   S    
C31   O8    A    
C26   N1    A    
C28   C29   S    
C13   H2    S    
C22   H6    S    
C11   C15   A    
C15   H12   S    
C29   H11   S    
O6    Zn2   S    
C2    C4    A    
O5    Zn1   S    
C27   H10   S    
C23   O5    A    
C30   H15   S    
C17   C18   A    
C6    C7    A    
C3    C7    A    
C10   C11   A    
C30   H14   S    
C5    C6    A    
C24   H8    S    
C22   C24   S    
C28   N2    A    
C22   H5    S    
C16   C17   A    
C25   N1    A    
C25   C28   A    
C2    C36   A    
C32   C35   A    
C32   C36   A    
C18   C19   A    
C9    Br1   S    
O1    Zn1   S    
C34   H17   S    
C34   C35   A    
C19   H4    S    
C1    O1    A    
O2    Zn2   S    
C25   C30   S    
C12   O4    A    
C24   H7    S    
C4    C5    A    
C27   N2    A    
C3    C34   A    
C20   C21   A    
C13   C14   A    
C16   C21   A    
C15   C33   A    
C8    H21   S    
C14   H16   S    
O4    Zn2   S    
C6    H20   S    
C8    C9    A    
O8    Zn2   S    
C10   C13   A    
C1    O2    A    
