data_mof_unit_26679.cif
_audit_creation_date              2012-12-10T17:51:29-0500
_audit_creation_method            fapswitch 2.2
_symmetry_space_group_name_H-M    P1
_symmetry_Int_Tables_number       1
_space_group_crystal_system       triclinic
_cell_length_a                    9.915338
_cell_length_b                    10.67307
_cell_length_c                    16.657108
_cell_angle_alpha                 94.050382
_cell_angle_beta                  84.592902
_cell_angle_gamma                 92.649901
_cell_volume                      1749.15556679

loop_
_atom_site_label
_atom_site_type_symbol
_atom_type_description
_atom_site_fract_x
_atom_site_fract_y
_atom_site_fract_z
_atom_type_partial_charge
C1    C     C_R   0.504537 0.740101 0.494151 0.972888
C2    C     C_R   0.342937 0.430840 0.781904 0.334283
C3    C     C_R   0.451263 0.306290 0.156760 0.412097
C4    C     C_R   0.437144 0.360351 0.235113 -0.274333
C5    C     C_R   0.646661 0.485136 0.209371 0.391329
C6    C     C_R   0.660182 0.431171 0.130661 -0.202058
C7    C     C_R   0.561292 0.344598 0.103654 -0.075027
C8    C     C_2   0.460176 0.390559 0.986234 -0.179604
C9    C     C_2   0.553942 0.325978 0.016901 0.428491
C10   C     C_R   0.532506 0.451653 0.261472 -0.186755
C11   C     C_R   0.312329 0.869676 0.410053 -0.228497
C12   C     C_R   0.479901 0.495130 0.653563 0.982892
C13   C     C_R   0.190568 0.921009 0.396267 0.350104
C14   C     C_R   0.149798 0.031615 0.440128 0.316569
C15   C     C_R   0.236881 0.094638 0.492885 0.329344
C16   C     C_R   0.371431 0.054184 0.494426 -0.094040
C17   C     C_R   0.399290 0.932269 0.463742 -0.048025
C18   C     C_R   0.512111 0.875134 0.488962 -0.195883
C19   C     C_R   0.614029 0.948036 0.526482 0.366663
C20   C     C_R   0.594673 0.073813 0.547382 0.363284
C21   C     C_R   0.480434 0.129150 0.524118 -0.213969
C22   C     C_R   0.839905 0.643304 0.617286 -0.161856
C23   C     C_R   0.494341 0.261296 0.509070 0.920872
C24   C     C_R   0.889175 0.696671 0.686620 0.330858
C25   C     C_R   0.024773 0.692966 0.694919 -0.147670
C26   C     C_R   0.114315 0.646269 0.630943 0.388369
C27   C     C_R   0.064417 0.571585 0.561910 0.103382
C28   C     C_R   0.919602 0.570457 0.559467 0.083228
C29   C     C_R   0.934500 0.432893 0.442743 0.060689
C30   C     C_R   0.077418 0.433303 0.442519 -0.001380
C31   C     C_R   0.519546 0.494546 0.346547 0.910947
C32   C     C_R   0.466198 0.474277 0.740270 -0.201322
C33   C     C_R   0.583850 0.488603 0.781046 -0.144496
C34   C     C_R   0.581354 0.460012 0.860658 -0.086083
C35   C     C_R   0.461948 0.412911 0.900937 0.004562
C36   C     C_R   0.341622 0.401020 0.862646 0.389736
H1    H     H_    0.339342 0.781260 0.377952 0.198902
H2    H     H_    0.885580 0.377615 0.395969 0.168505
N1    N     N_R   0.857140 0.501200 0.500750 -0.105079
N2    N     N_R   0.142740 0.501280 0.500770 -0.099679
O1    O     O_R   0.385310 0.683220 0.500000 -0.577771
O2    O     O_R   0.614640 0.683250 0.500010 -0.596113
O3    O     O_R   0.371780 0.500010 0.615800 -0.528216
O4    O     O_R   0.601110 0.500030 0.615800 -0.653479
O5    O     O_R   0.385360 0.316750 0.499990 -0.598602
O6    O     O_R   0.614690 0.316780 0.500000 -0.575227
O7    O     O_R   0.398890 0.499970 0.384200 -0.642614
O8    O     O_R   0.628220 0.499990 0.384200 -0.577355
Zn1   Zn    Zn3+2 0.346870 0.499980 0.499990 1.048391
Zn2   Zn    Zn3+2 0.653130 0.500020 0.500010 1.050799
H3    H     H_    0.679364 0.520871 0.751191 0.211008
H4    H     H_    0.742847 0.463266 0.088795 0.220552
Cl1   Cl    Cl    0.773560 0.890700 0.540872 -0.438387
Cl2   Cl    Cl    0.085693 0.838447 0.329315 -0.402875
Cl3   Cl    Cl    0.989585 0.090743 0.429636 -0.435567
Cl4   Cl    Cl    0.162708 0.195568 0.572071 -0.385869
Cl5   Cl    Cl    0.711262 0.160590 0.606900 -0.377493
H5    H     H_    0.739173 0.665106 0.608912 0.248220
Cl6   Cl    Cl    0.783077 0.781865 0.759199 -0.450533
H6    H     H_    0.352009 0.329811 0.275763 0.196697
H7    H     H_    0.061849 0.742484 0.748192 0.240570
Cl7   Cl    Cl    0.269667 0.726379 0.644632 -0.543465
H8    H     H_    0.135769 0.378182 0.395721 0.147313
Cl8   Cl    Cl    0.769496 0.600095 0.238217 -0.470465
Cl9   Cl    Cl    0.678793 0.239208 0.957435 -0.407715
Cl10  Cl    Cl    0.189858 0.345152 0.915504 -0.382047
Cl11  Cl    Cl    0.326146 0.195677 0.125422 -0.447116
Cl12  Cl    Cl    0.189828 0.407281 0.735496 -0.427946
H9    H     H_    0.383853 0.438784 0.026830 0.184508
H10   H     H_    0.673050 0.475857 0.891143 0.208560

loop_
_geom_bond_atom_site_label_1
_geom_bond_atom_site_label_2
_ccdc_geom_bond_type
C29   H2    S    
C22   H5    S    
C29   C30   A    
C23   O5    A    
C2    C36   A    
C33   H3    S    
O6    Zn2   S    
C3    C7    A    
C35   C36   A    
O5    Zn1   S    
C27   N2    A    
C32   C33   A    
C19   Cl1   S    
C9    Cl9   S    
O8    Zn2   S    
C14   Cl3   S    
C26   Cl7   S    
C30   N2    A    
C5    C10   A    
O7    Zn1   S    
C23   O6    A    
C22   C28   A    
C13   C14   A    
C12   C32   S    
C2    C32   A    
C11   C13   A    
C4    H6    S    
C8    H9    S    
C16   C21   A    
C3    Cl11  S    
O2    Zn2   S    
C24   Cl6   S    
C30   H8    S    
C25   H7    S    
C22   C24   A    
C1    O1    A    
C33   C34   A    
C17   C18   A    
C6    C7    A    
C2    Cl12  S    
C31   O8    A    
C21   C23   S    
C26   C27   A    
C5    C6    A    
C34   C35   A    
C15   Cl4   S    
C36   Cl10  S    
C16   C17   A    
C4    C10   A    
C15   C16   A    
C20   C21   A    
C7    C9    S    
C1    O2    A    
C27   C28   A    
N1    Zn2   S    
C18   C19   A    
C24   C25   A    
C19   C20   A    
C12   O4    A    
C13   Cl2   S    
O4    Zn2   S    
C29   N1    A    
C11   H1    S    
C1    C18   S    
C34   H10   S    
O3    Zn1   S    
C31   O7    A    
C28   N1    A    
C6    H4    S    
C25   C26   A    
C14   C15   A    
C20   Cl5   S    
C12   O3    A    
O1    Zn1   S    
C11   C17   A    
C3    C4    A    
N2    Zn1   S    
C5    Cl8   S    
C8    C9    D    
C8    C35   S    
C10   C31   S    
