data_mof_unit_23053.cif
_audit_creation_date              2012-12-10T19:48:51-0500
_audit_creation_method            fapswitch 2.2
_symmetry_space_group_name_H-M    P1
_symmetry_Int_Tables_number       1
_space_group_crystal_system       triclinic
_cell_length_a                    25.981172
_cell_length_b                    25.897366
_cell_length_c                    22.224101
_cell_angle_alpha                 89.951588
_cell_angle_beta                  54.206842
_cell_angle_gamma                 90.022699
_cell_volume                      12129.1549795

loop_
_atom_site_label
_atom_site_type_symbol
_atom_type_description
_atom_site_fract_x
_atom_site_fract_y
_atom_site_fract_z
_atom_type_partial_charge
C1    C     C_R   0.849303 0.750012 0.301230 0.572990
C2    C     C_R   0.443124 0.246424 0.505789 0.062753
C3    C     C_R   0.305818 0.974026 0.455002 -0.039721
C4    C     C_R   0.750933 0.554606 0.503928 0.006245
C5    C     C_R   0.750920 0.445464 0.504138 -0.001066
C6    C     C_R   0.248113 0.054075 0.495841 -0.002983
C7    C     C_R   0.251531 0.945652 0.507072 0.006093
C8    C     C_R   0.755487 0.527990 0.556985 0.210072
C9    C     C_R   0.753219 0.472230 0.558812 0.161974
C10   C     C_R   0.190977 0.025838 0.545679 0.194074
C11   C     C_R   0.195210 0.973378 0.559430 0.178912
C12   C     C_3   0.742623 0.469300 0.390304 0.320537
C13   C     C_R   0.943334 0.253561 0.505408 0.059161
C14   C     C_3   0.742827 0.531073 0.390156 0.305254
C15   C     C_3   0.376139 0.969939 0.394613 0.342363
C16   C     C_3   0.372888 0.030640 0.384563 0.307894
C17   C     C_R   0.749981 0.890096 0.499910 0.611500
C18   C     C_R   0.748224 0.109927 0.501478 0.595301
C19   C     C_R   0.249923 0.390090 0.499978 0.616595
C20   C     C_R   0.248193 0.609923 0.501497 0.596851
C21   C     C_R   0.889615 0.749412 0.501130 0.587001
C22   C     C_R   0.889640 0.250605 0.501120 0.577076
C23   C     C_R   0.389618 0.249432 0.501137 0.576949
C24   C     C_R   0.943265 0.746437 0.505506 0.062234
C25   C     C_R   0.389645 0.750602 0.501122 0.582242
C26   C     C_R   0.610020 0.750045 0.499808 0.567831
C27   C     C_R   0.610050 0.249945 0.499776 0.565802
C28   C     C_R   0.110021 0.250023 0.499811 0.553937
C29   C     C_R   0.110040 0.749936 0.499794 0.550942
C30   C     C_R   0.553092 0.777143 0.446562 0.009042
C31   C     C_R   0.552569 0.221931 0.447452 0.016674
C32   C     C_R   0.053876 0.275312 0.445012 0.008423
C33   C     C_R   0.053530 0.723899 0.445567 0.014449
C34   C     C_R   0.552783 0.753121 0.503092 0.007521
C35   C     C_R   0.499655 0.776499 0.447534 -0.058856
C36   C     C_R   0.552770 0.246802 0.503122 0.003862
C37   C     C_R   0.052867 0.252942 0.502907 0.008328
C38   C     C_R   0.052852 0.746861 0.502932 0.005208
C39   C     C_R   0.494778 0.735548 0.566201 -0.069051
C40   C     C_R   0.495075 0.265255 0.565676 -0.079249
C41   C     C_R   0.994426 0.236934 0.566873 -0.068261
C42   C     C_R   0.994578 0.763350 0.566615 -0.071223
C43   C     C_R   0.499169 0.222862 0.448381 -0.048027
C44   C     C_R   0.000410 0.274716 0.446008 -0.077586
C45   C     C_R   0.000091 0.724827 0.446528 -0.067161
C46   C     C_3   0.536526 0.771974 0.365003 0.153963
C47   C     C_3   0.535987 0.226127 0.365769 0.142127
C48   C     C_3   0.037117 0.267429 0.363884 0.152069
C49   C     C_R   0.849380 0.250009 0.301210 0.585402
C50   C     C_3   0.036772 0.731304 0.364291 0.139802
C51   C     C_3   0.596491 0.772804 0.363452 0.426987
C52   C     C_3   0.595983 0.224628 0.364132 0.417346
C53   C     C_3   0.097071 0.268178 0.362317 0.424877
C54   C     C_3   0.096795 0.729858 0.362582 0.419214
C55   C     C_3   0.470982 0.723628 0.957174 0.050026
C56   C     C_3   0.468874 0.270747 0.956908 0.054692
C57   C     C_3   0.963941 0.252080 0.957190 0.061331
C58   C     C_3   0.964189 0.753782 0.957034 0.055975
C59   C     C_3   0.528042 0.806501 0.956041 0.349012
C60   C     C_R   0.349380 0.250082 0.301218 0.556524
C61   C     C_3   0.534571 0.194670 0.956229 0.346977
C62   C     C_3   0.055454 0.297672 0.955968 0.341964
C63   C     C_3   0.048929 0.699598 0.956183 0.348112
C64   C     C_3   0.491674 0.802500 0.042581 0.073679
C65   C     C_3   0.497687 0.199586 0.042792 0.067740
C66   C     C_3   0.009878 0.296840 0.043809 0.069544
C67   C     C_3   0.010296 0.706017 0.042794 0.070801
C68   C     C_1   0.389101 0.749492 0.222332 0.188464
C69   C     C_1   0.388875 0.250620 0.222309 0.167422
C70   C     C_1   0.888295 0.250497 0.222308 0.194226
C71   C     C_R   0.349387 0.749997 0.301219 0.555602
C72   C     C_1   0.888154 0.749901 0.222346 0.177180
C73   C     C_3   0.538091 0.748484 0.926154 -0.135586
C74   C     C_3   0.538389 0.251762 0.926094 -0.142981
C75   C     C_3   0.036888 0.249242 0.926264 -0.137965
C76   C     C_3   0.036909 0.751116 0.926166 -0.142631
C77   C     C_R   0.650561 0.750000 0.698857 0.532647
C78   C     C_R   0.650655 0.250021 0.698846 0.565214
C79   C     C_R   0.150496 0.250031 0.698881 0.518247
C80   C     C_R   0.150563 0.749955 0.698855 0.555158
C81   C     C_3   0.421469 0.727780 0.044659 0.305479
C82   C     C_R   0.439819 0.736179 0.568425 0.236204
C83   C     C_3   0.419370 0.265214 0.044163 0.302503
C84   C     C_3   0.917391 0.258304 0.044235 0.320479
C85   C     C_3   0.916487 0.746606 0.044289 0.298211
C86   C     C_3   0.462195 0.746567 0.074291 -0.139443
C87   C     C_3   0.461599 0.253406 0.074237 -0.139612
C88   C     C_3   0.960357 0.250706 0.074246 -0.148139
C89   C     C_3   0.959720 0.751726 0.074306 -0.143181
C90   C     C_3   0.522470 0.710034 0.045335 0.324992
C91   C     C_3   0.517141 0.295333 0.045356 0.339344
C92   C     C_3   0.002733 0.198556 0.045084 0.333615
C93   C     C_R   0.440078 0.264693 0.567993 0.232809
C94   C     C_3   0.001548 0.803732 0.045510 0.335005
C95   C     C_3   0.570093 0.712563 0.955910 0.310255
C96   C     C_3   0.565962 0.292654 0.956022 0.312417
C97   C     C_3   0.045173 0.195250 0.955997 0.330310
C98   C     C_3   0.050987 0.802452 0.956213 0.309758
C99   C     C_1   0.422037 0.748335 0.155810 0.161049
C100  C     C_1   0.421502 0.251730 0.155772 0.139944
C101  C     C_1   0.920647 0.250822 0.155779 0.146601
C102  C     C_1   0.920192 0.750390 0.155824 0.141159
C103  C     C_1   0.578394 0.748970 0.844520 0.163188
C104  C     C_R   0.939486 0.237629 0.569020 0.236266
C105  C     C_1   0.578822 0.251225 0.844483 0.158767
C106  C     C_1   0.077410 0.249502 0.844613 0.155915
C107  C     C_1   0.077672 0.750633 0.844536 0.161448
C108  C     C_1   0.611312 0.749568 0.777893 0.183500
C109  C     C_1   0.611646 0.250546 0.777869 0.190438
C110  C     C_1   0.110808 0.249869 0.777960 0.177491
C111  C     C_1   0.111037 0.750124 0.777904 0.193035
C112  C     C_R   0.785636 0.974037 0.440840 -0.097148
C113  C     C_R   0.785167 0.026649 0.441497 -0.036855
C114  C     C_R   0.285249 0.473998 0.440894 -0.043881
C115  C     C_R   0.939606 0.762718 0.568834 0.234995
C116  C     C_R   0.284628 0.526601 0.441358 -0.034408
C117  C     C_R   0.743178 0.945700 0.504374 0.005434
C118  C     C_R   0.742173 0.054184 0.505696 0.001100
C119  C     C_R   0.243095 0.445682 0.504540 0.006481
C120  C     C_R   0.242071 0.554173 0.505741 -0.005791
C121  C     C_R   0.691372 0.971491 0.567950 0.204816
C122  C     C_R   0.691077 0.027161 0.569104 0.151070
C123  C     C_R   0.191535 0.471484 0.568344 0.208841
C124  C     C_R   0.191266 0.527159 0.569464 0.154297
C125  C     C_R   0.749978 0.610066 0.499872 0.618258
C126  C     C_R   0.443208 0.753674 0.505660 0.064930
C127  C     C_R   0.750108 0.389949 0.500190 0.598134
C128  C     C_R   0.249354 0.109999 0.497263 0.565638
C129  C     C_R   0.250756 0.889901 0.503007 0.576737
C130  C     C_3   0.855396 0.030971 0.383330 0.398751
C131  C     C_3   0.855870 0.970633 0.382618 0.364230
C132  C     C_3   0.354674 0.530968 0.382151 0.391365
C133  C     C_3   0.355387 0.470626 0.382209 0.386566
C134  C     C_R   0.747914 0.525968 0.453645 -0.054128
C135  C     C_R   0.749530 0.474074 0.452503 -0.044041
C136  C     C_R   0.304436 0.026120 0.450885 -0.049304
Cl1   Cl    Cl    0.448679 0.858318 0.097726 -0.341857
Cl2   Cl    Cl    0.487122 0.358866 0.080823 -0.284004
Cl3   Cl    Cl    0.957870 0.141185 0.091302 -0.296804
Cl4   Cl    Cl    0.953841 0.861055 0.081021 -0.264472
Cl5   Cl    Cl    0.560926 0.728805 0.088972 -0.317222
Cl6   Cl    Cl    0.556266 0.284707 0.090501 -0.330948
Cl7   Cl    Cl    0.051573 0.196255 0.079024 -0.310764
Cl8   Cl    Cl    0.041112 0.811262 0.090667 -0.318472
Cl9   Cl    Cl    0.369155 0.714049 0.650631 -0.397512
Cl10  Cl    Cl    0.369888 0.287985 0.649559 -0.391829
Cl11  Cl    Cl    0.868134 0.217714 0.652231 -0.396815
Cl12  Cl    Cl    0.461370 0.142375 0.098309 -0.352698
Cl13  Cl    Cl    0.868504 0.783211 0.651743 -0.386204
Cl14  Cl    Cl    0.895092 0.060311 0.419071 -0.363547
Cl15  Cl    Cl    0.895960 0.941049 0.417711 -0.365223
Cl16  Cl    Cl    0.395480 0.561223 0.415884 -0.362585
Cl17  Cl    Cl    0.396061 0.441928 0.417130 -0.367079
Cl18  Cl    Cl    0.521284 0.712730 0.336188 -0.352011
Cl19  Cl    Cl    0.522402 0.285258 0.334994 -0.369844
Cl20  Cl    Cl    0.019754 0.207314 0.339175 -0.353974
Cl21  Cl    Cl    0.020794 0.791536 0.338286 -0.370688
Cl22  Cl    Cl    0.643839 0.715197 0.331268 -0.346391
Cl23  Cl    Cl    0.982425 0.357404 0.092489 -0.299641
Cl24  Cl    Cl    0.645367 0.281140 0.329210 -0.330452
Cl25  Cl    Cl    0.142316 0.209538 0.334208 -0.353614
Cl26  Cl    Cl    0.143835 0.787640 0.332369 -0.354561
Cl27  Cl    Cl    0.441450 0.732168 0.902267 -0.402970
Cl28  Cl    Cl    0.441194 0.257425 0.900999 -0.359885
Cl29  Cl    Cl    0.945250 0.289679 0.904391 -0.347118
Cl30  Cl    Cl    0.942623 0.725313 0.901013 -0.350610
Cl31  Cl    Cl    0.602112 0.839786 0.919983 -0.312206
Cl32  Cl    Cl    0.611762 0.167664 0.920607 -0.329610
Cl33  Cl    Cl    0.134973 0.293047 0.931896 -0.312327
Cl34  Cl    Cl    0.990445 0.648666 0.098213 -0.326998
Cl35  Cl    Cl    0.131333 0.690805 0.920685 -0.322591
Cl36  Cl    Cl    0.646931 0.737502 0.925368 -0.272964
Cl37  Cl    Cl    0.644497 0.274337 0.927391 -0.280462
Cl38  Cl    Cl    0.127979 0.182174 0.915886 -0.265524
Cl39  Cl    Cl    0.132078 0.803365 0.927583 -0.291095
Cl40  Cl    Cl    0.500448 0.645724 0.082363 -0.254566
H1    H     H_    0.492261 0.720372 0.613314 0.196325
H2    H     H_    0.474598 0.312105 0.946087 0.237477
H3    H     H_    0.952677 0.214781 0.944783 0.225711
H4    H     H_    0.958061 0.793532 0.946438 0.236226
H5    H     H_    0.530247 0.806649 0.340375 0.178226
H6    H     H_    0.528622 0.191300 0.342439 0.197760
H7    H     H_    0.032101 0.301244 0.336842 0.178909
H8    H     H_    0.030777 0.697450 0.338193 0.181519
H9    H     H_    0.419336 0.864055 0.910933 0.400297
H10   H     H_    0.434335 0.123972 0.908334 0.407625
H11   H     H_    0.024285 0.409046 0.869278 0.405416
H12   H     H_    0.492834 0.281092 0.612273 0.195647
H13   H     H_    0.974852 0.596725 0.906441 0.407415
H14   H     H_    0.561243 0.576968 0.898317 0.404990
H15   H     H_    0.545820 0.422539 0.893342 0.401544
H16   H     H_    0.957025 0.094437 0.923865 0.405641
H17   H     H_    0.996358 0.911583 0.892247 0.409118
H18   H     H_    0.336027 0.652637 0.025889 0.393745
H19   H     H_    0.379636 0.407432 0.061708 0.397832
H20   H     H_    0.772758 0.206858 0.071948 0.408941
H21   H     H_    0.836891 0.873565 0.061551 0.398323
H22   H     H_    0.599282 0.853859 0.665087 0.365779
H23   H     H_    0.991538 0.223014 0.614764 0.197293
H24   H     H_    0.650123 0.043516 0.723183 0.376354
H25   H     H_    0.099626 0.353887 0.666043 0.363527
H26   H     H_    0.151310 0.543251 0.723085 0.378180
H27   H     H_    0.830724 0.075014 0.243847 0.398396
H28   H     H_    0.782021 0.932250 0.320676 0.367700
H29   H     H_    0.330735 0.566836 0.239655 0.405086
H30   H     H_    0.332423 0.427687 0.240880 0.403371
H31   H     H_    0.809766 0.554599 0.673995 0.403443
H32   H     H_    0.853220 0.412643 0.550216 0.340052
H33   H     H_    0.022655 0.020719 0.617382 0.397096
H34   H     H_    0.991849 0.777624 0.614228 0.200964
H35   H     H_    0.133542 0.010848 0.714036 0.367535
H36   H     H_    0.770676 0.424133 0.248734 0.389019
H37   H     H_    0.795068 0.561701 0.229394 0.362300
H38   H     H_    0.504736 0.913908 0.344650 0.381186
H39   H     H_    0.512721 0.047005 0.305775 0.367837
H40   H     H_    0.577605 0.424917 0.527923 0.394242
H41   H     H_    0.681644 0.586124 0.316945 0.381440
H42   H     H_    0.345077 0.891086 0.280118 0.396183
H43   H     H_    0.469420 0.085246 0.228848 0.378540
H44   H     H_    0.697552 0.860626 0.208160 0.394468
H45   H     H_    0.529178 0.806750 0.051188 0.223713
H46   H     H_    0.729818 0.135990 0.294944 0.384230
H47   H     H_    0.194561 0.354447 0.203743 0.404073
H48   H     H_    0.230158 0.640836 0.294489 0.395651
H49   H     H_    0.276451 0.774159 0.064575 0.409233
H50   H     H_    0.304211 0.200409 0.194572 0.367261
H51   H     H_    0.792236 0.352594 0.084832 0.397323
H52   H     H_    0.822501 0.672427 0.194034 0.364802
H53   H     H_    0.535447 0.200699 0.051357 0.221928
H54   H     H_    0.039735 0.288885 0.063018 0.226518
H55   H     H_    0.045927 0.719099 0.051490 0.223238
H56   H     H_    0.481353 0.682666 0.945055 0.218581
O1    O     O_3   0.750020 0.750020 0.500000 -0.517610
O2    O     O_R   0.741140 0.134170 0.457020 -0.495111
O3    O     O_3   0.111720 0.537846 0.726962 -0.384487
O4    O     O_2   0.871555 0.122914 0.318065 -0.247740
O5    O     O_2   0.937017 0.052302 0.236118 -0.096011
O6    O     O_3   0.817291 0.054288 0.288292 -0.470694
O7    O     O_2   0.939590 0.948763 0.236107 -0.066032
O8    O     O_2   0.870140 0.879295 0.316485 -0.247093
O9    O     O_3   0.821584 0.950642 0.282571 -0.410219
O10   O     O_2   0.368656 0.622211 0.316081 -0.232416
O11   O     O_2   0.434613 0.551632 0.234595 -0.111104
O12   O     O_3   0.314321 0.551893 0.288843 -0.465924
O13   O     O_R   0.241140 0.365830 0.457020 -0.476960
O14   O     O_2   0.437965 0.448462 0.235593 -0.109676
O15   O     O_2   0.370071 0.378694 0.317813 -0.238205
O16   O     O_3   0.318779 0.448364 0.285370 -0.448206
O17   O     O_2   0.786064 0.618493 0.593174 -0.296843
O18   O     O_2   0.699076 0.567103 0.693531 -0.194208
O19   O     O_3   0.814976 0.536199 0.631694 -0.396642
O20   O     O_2   0.716972 0.462333 0.700513 -0.112432
O21   O     O_2   0.729760 0.382287 0.637001 -0.278625
O22   O     O_3   0.831153 0.431849 0.597650 -0.408573
O23   O     O_2   0.088794 0.082397 0.647190 -0.201550
O24   O     O_R   0.241140 0.634170 0.457020 -0.493141
O25   O     O_2   0.120803 0.085035 0.519233 -0.221324
O26   O     O_3   0.063754 0.003293 0.596614 -0.412027
O27   O     O_2   0.088497 0.916852 0.647454 -0.141905
O28   O     O_2   0.168381 0.911604 0.672303 -0.235260
O29   O     O_3   0.099827 0.994078 0.712928 -0.406243
O30   O     O_2   0.871627 0.455408 0.292960 -0.135683
O31   O     O_2   0.806216 0.379134 0.326751 -0.240088
O32   O     O_3   0.808476 0.443546 0.236696 -0.373910
O33   O     O_2   0.800852 0.622040 0.320611 -0.290106
O34   O     O_2   0.868946 0.555026 0.313969 -0.159854
O35   O     O_R   0.862350 0.719680 0.336040 -0.499146
O36   O     O_3   0.828679 0.546055 0.231623 -0.364693
O37   O     O_2   0.400949 0.981872 0.498526 -0.150987
O38   O     O_2   0.395744 0.894255 0.465115 -0.258126
O39   O     O_3   0.495381 0.947449 0.370455 -0.402290
O40   O     O_2   0.428821 0.124934 0.363965 -0.252711
O41   O     O_2   0.389688 0.081183 0.480183 -0.201974
O42   O     O_3   0.493984 0.048995 0.359391 -0.379008
O43   O     O_2   0.643349 0.454041 0.381238 -0.144845
O44   O     O_2   0.680187 0.378724 0.411623 -0.247815
O45   O     O_3   0.614847 0.445862 0.514504 -0.467767
O46   O     O_R   0.862350 0.280320 0.336040 -0.495981
O47   O     O_2   0.614138 0.544855 0.490739 -0.147763
O48   O     O_2   0.676556 0.621328 0.427618 -0.261891
O49   O     O_3   0.657860 0.557610 0.352593 -0.395729
O50   O     O_2   0.448249 0.950514 0.245257 -0.142827
O51   O     O_2   0.418565 0.876493 0.325927 -0.240047
O52   O     O_3   0.331639 0.917533 0.318842 -0.467839
O53   O     O_2   0.335374 0.018901 0.292490 -0.126776
O54   O     O_2   0.350480 0.106538 0.316914 -0.243229
O55   O     O_3   0.450753 0.052153 0.227992 -0.390295
O56   O     O_2   0.604938 0.877126 0.358771 -0.253375
O57   O     O_R   0.362350 0.219680 0.336040 -0.488661
O58   O     O_2   0.700539 0.828790 0.321331 -0.191190
O59   O     O_3   0.668080 0.830876 0.230793 -0.415695
O60   O     O_2   0.601097 0.120258 0.365132 -0.220718
O61   O     O_2   0.661506 0.163464 0.243950 -0.201797
O62   O     O_3   0.705725 0.167349 0.322640 -0.427784
O63   O     O_2   0.109495 0.372168 0.351362 -0.260581
O64   O     O_2   0.203694 0.322132 0.315227 -0.176139
O65   O     O_3   0.169638 0.322333 0.226241 -0.402364
O66   O     O_2   0.105983 0.625671 0.354561 -0.254773
O67   O     O_2   0.165561 0.673837 0.237285 -0.155780
O68   O     O_R   0.362350 0.780320 0.336040 -0.501965
O69   O     O_3   0.208456 0.674026 0.317366 -0.420932
O70   O     O_2   0.303440 0.759105 0.159519 -0.181581
O71   O     O_2   0.364825 0.826809 0.071553 -0.138500
O72   O     O_3   0.318555 0.757234 0.034412 -0.379519
O73   O     O_2   0.375739 0.161085 0.069691 -0.158481
O74   O     O_2   0.326388 0.221804 0.035836 -0.054092
O75   O     O_3   0.298635 0.227090 0.166877 -0.399312
O76   O     O_2   0.843458 0.329606 0.154082 -0.212216
O77   O     O_2   0.916380 0.366212 0.030902 -0.114995
O78   O     O_3   0.817586 0.321209 0.059196 -0.356983
O79   O     O_R   0.698420 0.780360 0.663960 -0.490844
O80   O     O_2   0.904308 0.637796 0.068622 -0.166895
O81   O     O_2   0.839816 0.677353 0.035948 -0.062598
O82   O     O_3   0.809654 0.692458 0.166864 -0.420977
O83   O     O_R   0.698420 0.219640 0.663960 -0.485072
O84   O     O_R   0.198420 0.280360 0.663960 -0.491704
O85   O     O_3   0.750020 0.249980 0.500000 -0.515400
O86   O     O_R   0.198420 0.719640 0.663960 -0.487282
O87   O     O_R   0.801620 0.780400 0.336040 -0.471315
O88   O     O_R   0.801620 0.219600 0.336040 -0.475025
O89   O     O_R   0.301620 0.280400 0.336040 -0.474322
O90   O     O_R   0.301620 0.719600 0.336040 -0.469405
O91   O     O_R   0.637700 0.719640 0.663960 -0.524814
O92   O     O_R   0.637700 0.280360 0.663960 -0.514816
O93   O     O_R   0.137700 0.219640 0.663960 -0.519613
O94   O     O_R   0.137700 0.780360 0.663960 -0.505475
O95   O     O_R   0.801870 0.634220 0.457010 -0.475258
O96   O     O_3   0.250020 0.250020 0.500000 -0.524638
O97   O     O_R   0.801870 0.365780 0.457010 -0.512562
O98   O     O_R   0.301870 0.134220 0.457010 -0.470624
O99   O     O_R   0.301870 0.865780 0.457010 -0.474126
O100  O     O_R   0.758890 0.865820 0.542980 -0.471883
O101  O     O_R   0.758890 0.134180 0.542980 -0.479212
O102  O     O_R   0.258890 0.365820 0.542980 -0.472851
O103  O     O_R   0.258890 0.634180 0.542980 -0.476187
O104  O     O_R   0.887320 0.719660 0.457000 -0.525253
O105  O     O_R   0.887320 0.280340 0.457000 -0.543847
O106  O     O_R   0.387320 0.219660 0.457000 -0.498483
O107  O     O_3   0.250020 0.749980 0.500000 -0.523973
O108  O     O_R   0.387320 0.780340 0.457000 -0.501115
O109  O     O_R   0.655700 0.780400 0.457020 -0.483596
O110  O     O_R   0.655700 0.219600 0.457020 -0.475222
O111  O     O_R   0.155700 0.280400 0.457020 -0.487154
O112  O     O_R   0.155700 0.719600 0.457020 -0.482832
O113  O     O_R   0.844340 0.780370 0.542980 -0.471434
O114  O     O_R   0.844340 0.219630 0.542980 -0.470062
O115  O     O_R   0.344340 0.280370 0.542980 -0.476895
O116  O     O_R   0.344340 0.719630 0.542980 -0.476969
O117  O     O_R   0.612730 0.719670 0.543000 -0.521654
O118  O     O_R   0.698170 0.634220 0.542990 -0.481113
O119  O     O_R   0.612730 0.280330 0.543000 -0.533744
O120  O     O_R   0.112730 0.219670 0.543000 -0.518862
O121  O     O_R   0.112730 0.780330 0.543000 -0.529602
O122  O     O_2   0.486904 0.903466 0.956159 -0.087870
O123  O     O_2   0.544408 0.857412 0.839229 -0.221256
O124  O     O_3   0.427550 0.835654 0.934158 -0.385939
O125  O     O_2   0.558047 0.138368 0.839739 -0.205443
O126  O     O_2   0.502118 0.094040 0.958128 -0.087351
O127  O     O_3   0.439409 0.154446 0.931349 -0.387342
O128  O     O_2   0.072282 0.402647 0.949337 -0.100377
O129  O     O_R   0.698170 0.365780 0.542990 -0.467824
O130  O     O_2   0.125819 0.357165 0.832347 -0.197172
O131  O     O_3   0.008689 0.376733 0.898738 -0.396540
O132  O     O_2   0.090450 0.635784 0.839448 -0.214598
O133  O     O_2   0.046256 0.594124 0.957932 -0.096979
O134  O     O_3   0.970181 0.630405 0.930256 -0.385071
O135  O     O_2   0.644614 0.655324 0.828863 -0.223051
O136  O     O_2   0.628556 0.621386 0.940522 -0.088431
O137  O     O_3   0.539221 0.609434 0.924186 -0.467180
O138  O     O_2   0.613411 0.389181 0.941303 -0.089401
O139  O     O_2   0.637658 0.349858 0.828349 -0.208644
O140  O     O_R   0.198170 0.134220 0.542990 -0.482420
O141  O     O_3   0.526931 0.389195 0.918843 -0.464178
O142  O     O_2   0.071506 0.139390 0.836134 -0.252520
O143  O     O_2   0.050154 0.090449 0.941703 -0.092636
O144  O     O_3   0.955654 0.127102 0.947919 -0.459340
O145  O     O_2   0.069128 0.906473 0.941751 -0.088035
O146  O     O_2   0.105977 0.859648 0.828734 -0.214330
O147  O     O_3   0.986714 0.878493 0.919294 -0.457650
O148  O     O_2   0.422177 0.618873 0.039017 -0.192491
O149  O     O_2   0.356779 0.658332 0.161215 -0.218178
O150  O     O_3   0.318071 0.660283 0.078379 -0.371518
O151  O     O_R   0.198170 0.865780 0.542990 -0.483857
O152  O     O_2   0.315112 0.320854 0.077421 -0.136477
O153  O     O_2   0.345752 0.333041 0.160800 -0.234808
O154  O     O_3   0.409614 0.378790 0.033310 -0.434372
O155  O     O_2   0.864697 0.157060 0.076083 -0.172299
O156  O     O_2   0.801728 0.224883 0.164331 -0.196247
O157  O     O_3   0.815483 0.222566 0.039230 -0.380701
O158  O     O_2   0.799294 0.774573 0.079068 -0.103533
O159  O     O_2   0.824670 0.807467 0.161051 -0.205719
O160  O     O_3   0.874577 0.850821 0.033462 -0.434333
O161  O     O_2   0.646493 0.928557 0.699719 -0.183925
O162  O     O_R   0.741140 0.865830 0.457020 -0.506661
O163  O     O_2   0.566161 0.957818 0.682866 -0.123672
O164  O     O_3   0.625357 0.874020 0.618515 -0.546966
O165  O     O_2   0.639115 0.118796 0.645505 -0.284294
O166  O     O_2   0.569109 0.056080 0.647307 -0.149207
O167  O     O_3   0.610803 0.037872 0.726542 -0.359905
O168  O     O_2   0.147181 0.428670 0.700080 -0.211429
O169  O     O_2   0.066499 0.457814 0.683774 -0.133190
O170  O     O_3   0.125582 0.373992 0.619402 -0.543138
O171  O     O_2   0.139567 0.618785 0.646100 -0.281345
O172  O     O_2   0.069267 0.556079 0.648524 -0.151583
S1    S     S_3+6 0.495769 0.851359 0.921540 0.199460
S2    S     S_3+6 0.371013 0.325056 0.080976 0.129584
S3    S     S_3+6 0.849786 0.213301 0.083305 0.135967
S4    S     S_3+6 0.852141 0.795272 0.081517 0.146583
S5    S     S_3+6 0.630465 0.933537 0.645026 0.125588
S6    S     S_3+6 0.626784 0.062022 0.647011 0.125275
S7    S     S_3+6 0.130840 0.433555 0.645663 0.110581
S8    S     S_3+6 0.127223 0.562011 0.647664 0.121684
S9    S     S_3+6 0.872340 0.066152 0.303610 0.164540
S10   S     S_3+6 0.873501 0.936328 0.302031 0.185096
S11   S     S_3+6 0.370073 0.565240 0.302541 0.166844
S12   S     S_3+6 0.507629 0.144649 0.921573 0.200033
S13   S     S_3+6 0.372512 0.435489 0.302457 0.168696
S14   S     S_3+6 0.763072 0.564386 0.620082 0.113990
S15   S     S_3+6 0.755394 0.436104 0.626292 0.129453
S16   S     S_3+6 0.114831 0.051157 0.578031 0.128290
S17   S     S_3+6 0.137024 0.947068 0.649166 0.137342
S18   S     S_3+6 0.809645 0.435927 0.311018 0.163152
S19   S     S_3+6 0.812122 0.564759 0.313582 0.116899
S20   S     S_3+6 0.416325 0.948098 0.435148 0.133243
S21   S     S_3+6 0.420896 0.073039 0.398791 0.110093
S22   S     S_3+6 0.669009 0.435933 0.423098 0.106783
S23   S     S_3+6 0.065063 0.359670 0.909373 0.194859
S24   S     S_3+6 0.670662 0.564665 0.418090 0.129882
S25   S     S_3+6 0.395818 0.927791 0.318398 0.123215
S26   S     S_3+6 0.375535 0.052434 0.304855 0.151760
S27   S     S_3+6 0.643641 0.829654 0.319510 0.114094
S28   S     S_3+6 0.641055 0.166609 0.322623 0.122540
S29   S     S_3+6 0.146232 0.323456 0.314540 0.123121
S30   S     S_3+6 0.144287 0.673612 0.316382 0.129834
S31   S     S_3+6 0.352225 0.770124 0.078383 0.182982
S32   S     S_3+6 0.356300 0.216250 0.076431 0.210122
S33   S     S_3+6 0.874902 0.320860 0.072720 0.202329
S34   S     S_3+6 0.038281 0.639047 0.921180 0.195869
S35   S     S_3+6 0.869570 0.686098 0.076203 0.193377
S36   S     S_3+6 0.596382 0.648660 0.911105 0.149505
S37   S     S_3+6 0.586635 0.356271 0.909938 0.153879
S38   S     S_3+6 0.030520 0.137215 0.919474 0.131243
S39   S     S_3+6 0.053539 0.862791 0.910315 0.154047
S40   S     S_3+6 0.381162 0.664520 0.081427 0.136538
Zn1   Zn    Zn3+2 0.675940 0.706640 0.561420 1.083380
Zn2   Zn    Zn3+2 0.762700 0.206610 0.561410 1.118254
Zn3   Zn    Zn3+2 0.262700 0.293390 0.561410 1.104410
Zn4   Zn    Zn3+2 0.262700 0.706610 0.561410 1.113519
Zn5   Zn    Zn3+2 0.737340 0.793410 0.438590 1.112215
Zn6   Zn    Zn3+2 0.737340 0.206590 0.438590 1.114209
Zn7   Zn    Zn3+2 0.237340 0.293410 0.438590 1.115823
Zn8   Zn    Zn3+2 0.237340 0.706590 0.438590 1.097857
Zn9   Zn    Zn3+2 0.675940 0.293360 0.561420 1.082757
Zn10  Zn    Zn3+2 0.175940 0.206640 0.561420 1.064082
Zn11  Zn    Zn3+2 0.175940 0.793360 0.561420 1.077209
Zn12  Zn    Zn3+2 0.824100 0.706650 0.438580 1.106524
Zn13  Zn    Zn3+2 0.824100 0.293350 0.438580 1.076116
Zn14  Zn    Zn3+2 0.324100 0.206650 0.438580 1.100314
Zn15  Zn    Zn3+2 0.324100 0.793350 0.438580 1.090175
Zn16  Zn    Zn3+2 0.762700 0.793390 0.561410 1.116932

loop_
_geom_bond_atom_site_label_1
_geom_bond_atom_site_label_2
_ccdc_geom_bond_type
C30   C51   S    
O105  Zn13  S    
C87   C91   S    
O9    S10   S    
C27   O110  A    
C33   C45   A    
O130  S23   D    
C131  Cl15  S    
O43   S22   D    
O81   S35   D    
C40   C93   A    
O20   S15   D    
O96   Zn7   S    
H28   O9    S    
C90   C95   S    
C51   S27   S    
H37   O36   S    
C4    C125  S    
C46   H5    S    
C47   H6    S    
O127  S12   S    
C63   C76   S    
O163  S5    D    
C76   C98   S    
O104  Zn12  S    
C90   Cl40  S    
O57   Zn14  S    
O107  Zn8   S    
H27   O6    S    
O71   S31   D    
O4    S9    D    
C91   C96   S    
O47   S24   D    
C12   C135  S    
O87   Zn5   S    
C97   Cl38  S    
O29   S17   S    
H29   O12   S    
C59   C73   S    
C81   C86   S    
O164  S5    S    
C91   Cl6   S    
C60   O57   A    
C85   S4    S    
C67   H55   S    
C127  O97   A    
C104  Cl11  S    
C18   O101  A    
C128  O140  A    
C65   C87   S    
H21   O160  S    
H19   O154  S    
H48   O69   S    
O76   S33   D    
C86   C90   S    
C30   C34   A    
O86   Zn4   S    
H52   O82   S    
C25   C126  S    
C1    O35   A    
H46   O62   S    
C123  S7    S    
C62   S23   S    
C47   C52   S    
C121  S5    S    
H13   O134  S    
O108  Zn15  S    
C84   S33   S    
O60   S28   D    
C76   C107  S    
O85   Zn2   S    
C61   C74   S    
O39   S20   S    
C79   O84   A    
C73   C95   S    
O107  Zn11  S    
C32   C53   S    
C20   C120  S    
C82   Cl9   S    
C59   Cl31  S    
C56   C83   S    
O42   S21   S    
C55   H56   S    
C50   H8    S    
C84   C88   S    
C25   O108  A    
O90   Zn8   S    
C18   O2    A    
O14   S13   D    
C17   O162  A    
C119  C123  A    
O124  S1    S    
C14   C134  S    
C56   Cl28  S    
C81   S40   S    
C33   C38   A    
O132  S34   D    
C61   Cl32  S    
C94   Cl8   S    
O168  S7    D    
O10   S11   D    
C130  C131  S    
O118  Zn1   S    
C55   Cl27  S    
O153  S2    D    
O141  S37   S    
C98   Cl39  S    
O8    S10   D    
C45   C50   S    
C1    O87   A    
C112  C131  S    
O147  S39   S    
C97   S38   S    
C15   S20   S    
C90   Cl5   S    
O169  S7    D    
C22   O105  A    
C116  C120  A    
C73   C103  S    
C81   S31   S    
C21   C24   S    
O156  S3    D    
C31   C36   A    
O83   Zn2   S    
C58   H4    S    
O172  S8    D    
C92   Cl3   S    
C43   C47   S    
O72   S31   S    
O116  Zn4   S    
C52   Cl24  S    
O44   S22   D    
O94   Zn11  S    
H39   O42   S    
H40   O45   S    
O112  Zn8   S    
O74   S32   D    
H16   O144  S    
O5    S9    D    
O51   S25   D    
C22   O114  A    
C70   C101  T    
C58   C76   S    
C123  C124  A    
O136  S36   D    
C56   H2    S    
O123  S1    D    
O21   S15   D    
C31   C43   A    
C66   C88   S    
O41   S21   D    
O137  S36   S    
H42   O52   S    
O45   S22   S    
O1    Zn1   S    
C89   C94   S    
C3    C136  A    
C118  C122  A    
C92   Cl7   S    
O1    Zn16  S    
C10   S16   S    
C20   O103  A    
O85   Zn13  S    
C27   O119  A    
O11   S11   D    
O34   S19   D    
C133  S13   S    
C29   C38   S    
C130  Cl14  S    
H10   O127  S    
C55   C81   S    
C95   Cl36  S    
O96   Zn3   S    
C114  C119  A    
O129  Zn9   S    
O16   S13   S    
C21   O104  A    
C66   Cl23  S    
O160  S4    S    
C92   C97   S    
C48   C53   S    
H15   O141  S    
C1    C72   S    
C113  C130  S    
C62   C66   S    
C34   C39   A    
C74   C96   S    
O107  Zn4   S    
O33   S19   D    
O106  Zn14  S    
O167  S6    S    
C14   S19   S    
O115  Zn3   S    
C46   C51   S    
C54   Cl26  S    
O24   Zn8   S    
O88   Zn6   S    
H30   O16   S    
C69   C100  T    
C5    C9    A    
O77   S33   D    
O145  S39   D    
C91   Cl2   S    
O62   S28   S    
C116  C132  S    
C115  Cl13  S    
C77   O91   A    
O161  S5    D    
C93   Cl10  S    
C32   C37   A    
O134  S34   S    
O32   S18   S    
O128  S23   D    
C77   O79   A    
O31   S18   D    
C12   S18   S    
O38   S20   D    
O75   S32   S    
C16   C136  S    
H14   O137  S    
C4    C134  A    
C87   C100  S    
C33   C54   S    
C5    C135  A    
C105  C109  T    
O46   Zn13  S    
C107  C111  T    
O70   S31   D    
C77   C108  S    
H11   O131  S    
H18   O150  S    
C39   C82   A    
O144  S38   S    
C17   O100  A    
C114  C116  A    
O100  Zn16  S    
H22   O164  S    
C134  C135  A    
C40   H12   S    
C17   C117  S    
H43   O55   S    
C41   C104  A    
C65   H53   S    
C80   O94   A    
C57   C75   S    
C26   O117  A    
C6    C128  S    
O2    Zn6   S    
C63   S34   S    
C74   C105  S    
C18   C118  S    
O109  Zn5   S    
C72   C102  T    
C60   C69   S    
O84   Zn3   S    
O135  S36   D    
C78   C109  S    
C59   S1    S    
C61   C65   S    
C37   C41   A    
C58   Cl30  S    
C10   C11   A    
C55   C73   S    
C44   C48   S    
C14   S24   S    
C2    C23   S    
C12   S22   S    
H31   O19   S    
O85   Zn6   S    
O54   S26   D    
O133  S34   D    
C131  S10   S    
C83   C87   S    
C94   Cl4   S    
O155  S3    D    
O3    S8    S    
O157  S3    S    
C41   H23   S    
O142  S38   D    
O95   Zn12  S    
O120  Zn10  S    
H47   O65   S    
C19   O13   A    
C50   C54   S    
O138  S37   D    
O149  S40   D    
O101  Zn2   S    
O65   S29   S    
C60   O89   A    
C3    C7    A    
C124  S8    S    
C112  C117  A    
C23   O115  A    
O52   S25   S    
C127  O129  A    
C57   Cl29  S    
C94   C98   S    
O159  S4    D    
C75   C97   S    
C125  O95   A    
O19   S14   S    
C82   C126  A    
H26   O3    S    
H51   O78   S    
C53   S29   S    
O68   Zn15  S    
C79   O93   A    
C42   H34   S    
C29   O121  A    
C28   O120  A    
C48   Cl20  S    
C19   C119  S    
C78   O92   A    
C125  O118  A    
O6    S9    S    
O36   S19   S    
C64   C86   S    
C39   H1    S    
C20   O24   A    
C64   Cl1   S    
C67   Cl34  S    
C46   Cl18  S    
O56   S27   D    
C56   C74   S    
O49   S24   S    
C96   Cl37  S    
O26   S16   S    
O148  S40   D    
C85   C89   S    
O37   S20   D    
O131  S23   S    
O50   S25   D    
H50   O75   S    
O82   S35   S    
C8    S14   S    
C63   Cl35  S    
O18   S14   D    
H25   O170  S    
O119  Zn9   S    
C5    C127  S    
O91   Zn1   S    
C57   C84   S    
O166  S6    D    
C65   Cl12  S    
C121  C122  A    
O58   S27   D    
C83   S32   S    
C130  S9    S    
H44   O59   S    
O152  S2    D    
C49   C70   S    
O126  S12   D    
O85   Zn9   S    
O96   Zn14  S    
O114  Zn2   S    
O162  Zn5   S    
C62   Cl33  S    
C52   S28   S    
C29   O112  A    
C78   O83   A    
C79   C110  S    
C16   S21   S    
O102  Zn3   S    
C6    C10   A    
C48   H7    S    
O23   S16   D    
O78   S33   S    
C27   C36   S    
O165  S6    D    
C51   Cl22  S    
O59   S27   S    
O143  S38   D    
O15   S13   D    
H33   O26   S    
O66   S30   D    
C68   C71   S    
O171  S8    D    
C80   C111  S    
H20   O157  S    
O7    S10   D    
C13   C22   S    
C7    C129  S    
C132  S11   S    
C15   S25   S    
O111  Zn7   S    
O64   S29   D    
O73   S32   D    
C42   C115  A    
O113  Zn16  S    
C75   C106  S    
C61   S12   S    
C35   C46   S    
C80   O86   A    
C54   S30   S    
O55   S26   S    
C19   O102  A    
O30   S18   D    
O67   S30   D    
C98   S39   S    
C89   C102  S    
C122  S6    S    
O121  Zn11  S    
O53   S26   D    
C4    C8    A    
C28   O111  A    
C88   C101  S    
C7    C11   A    
C59   C64   S    
C30   C35   A    
C133  Cl17  S    
C24   C45   A    
C28   C37   S    
C38   C42   A    
H17   O147  S    
O139  S37   D    
C15   C16   S    
C67   C89   S    
O28   S17   D    
O12   S11   S    
C16   S26   S    
C117  C121  A    
O35   Zn12  S    
C25   O116  A    
C6    C136  A    
C71   O68   A    
O40   S21   D    
C26   C34   S    
O170  S7    S    
C88   C92   S    
O25   S16   D    
C132  C133  S    
C128  O98   A    
O154  S2    S    
C103  C108  T    
O13   Zn7   S    
H49   O72   S    
H32   O22   S    
C26   O109  A    
O48   S24   D    
C95   S36   S    
C96   S37   S    
C112  C113  A    
O63   S29   D    
C50   Cl21  S    
C63   C67   S    
H35   O29   S    
O22   S15   S    
C84   S3    S    
C36   C40   A    
O125  S12   D    
O107  Zn15  S    
O99   Zn15  S    
C8    C9    A    
C21   O113  A    
O98   Zn14  S    
O92   Zn9   S    
C13   C104  A    
C11   S17   S    
C35   C126  A    
C86   C99   S    
C23   O106  A    
O140  Zn10  S    
O97   Zn13  S    
H41   O49   S    
C2    C43   A    
O158  S4    D    
C32   C44   A    
C13   C44   A    
O69   S30   S    
O17   S14   D    
C12   C14   S    
O103  Zn4   S    
O93   Zn10  S    
C129  O99   A    
C58   C85   S    
C3    C15   S    
O27   S17   D    
C106  C110  T    
H38   O39   S    
C9    S15   S    
H36   O32   S    
C71   O90   A    
H9    O124  S    
C2    C93   A    
O151  Zn11  S    
H24   O167  S    
C57   H3    S    
O80   S35   D    
O117  Zn1   S    
C66   H54   S    
C31   C52   S    
C83   S2    S    
O150  S40   S    
C68   C99   T    
C85   S35   S    
C49   O88   A    
O110  Zn6   S    
O61   S28   D    
O1    Zn5   S    
C53   Cl25  S    
O146  S39   D    
C47   Cl19  S    
C49   O46   A    
C132  Cl16  S    
O79   Zn16  S    
C114  C133  S    
C64   H45   S    
C62   C75   S    
O96   Zn10  S    
C113  C118  A    
C129  O151  A    
C24   C115  A    
O1    Zn12  S    
C120  C124  A    
O89   Zn7   S    
O122  S1    D    
