data_mof_unit_23509.cif
_audit_creation_date              2012-12-10T19:13:33-0500
_audit_creation_method            fapswitch 2.2
_symmetry_space_group_name_H-M    P1
_symmetry_Int_Tables_number       1
_space_group_crystal_system       triclinic
_cell_length_a                    9.69498
_cell_length_b                    10.696677
_cell_length_c                    16.706415
_cell_angle_alpha                 89.83635
_cell_angle_beta                  85.676811
_cell_angle_gamma                 91.402068
_cell_volume                      1727.05725506

loop_
_atom_site_label
_atom_site_type_symbol
_atom_type_description
_atom_site_fract_x
_atom_site_fract_y
_atom_site_fract_z
_atom_type_partial_charge
C1    C     C_R   0.501294 0.742923 0.502639 0.854255
C2    C     C_R   0.577901 0.575763 0.776786 -0.216738
C3    C     C_R   0.418484 0.349826 0.154497 0.191984
C4    C     C_R   0.412596 0.391913 0.233468 -0.219133
C5    C     C_R   0.651757 0.465909 0.216079 -0.221468
C6    C     C_R   0.658632 0.425744 0.137060 -0.197738
C7    C     C_R   0.541439 0.372062 0.105384 0.095694
C8    C     C_2   0.493277 0.483597 0.988953 -0.295536
C9    C     C_2   0.536766 0.375739 0.018758 0.120686
C10   C     C_R   0.527018 0.453625 0.263502 -0.078614
C11   C     C_3   0.350148 0.925236 0.526680 -0.192783
C12   C     C_R   0.481662 0.503142 0.653127 0.865025
C13   C     C_3   0.342374 0.067417 0.513548 -0.166509
C14   C     C_3   0.603112 0.937046 0.565918 0.042691
C15   C     C_3   0.549646 0.930429 0.418955 -0.439121
C16   C     C_3   0.502810 0.880360 0.504210 0.039775
C17   C     C_3   0.493714 0.122121 0.501987 0.087603
C18   C     C_3   0.572186 0.077592 0.574703 -0.453589
C19   C     C_3   0.564560 0.073701 0.421640 -0.394386
C20   C     C_3   0.912173 0.582490 0.565312 -0.254092
C21   C     C_3   0.074824 0.589185 0.562485 -0.233578
C22   C     C_3   0.914765 0.373763 0.516529 -0.230288
C23   C     C_R   0.497970 0.257811 0.500519 0.858169
C24   C     C_3   0.927953 0.545135 0.423732 -0.266809
C25   C     C_3   0.076834 0.376927 0.520189 -0.277032
C26   C     C_3   0.090401 0.538590 0.421159 -0.023526
C27   C     C_R   0.518258 0.492624 0.346918 0.890354
C28   C     C_R   0.472870 0.511183 0.739570 -0.018163
C29   C     C_R   0.364981 0.449449 0.785384 -0.215043
C30   C     C_R   0.368201 0.444343 0.868255 -0.166452
C31   C     C_R   0.478188 0.502344 0.904514 0.215962
C32   C     C_R   0.579430 0.572653 0.859541 -0.168359
H1    H     H_    0.282936 0.400173 0.756956 0.139322
H2    H     H_    0.752245 0.444571 0.098856 0.145542
H3    H     H_    0.276840 0.877644 0.488006 0.175654
H4    H     H_    0.286973 0.112154 0.566522 0.129720
H5    H     H_    0.577874 0.890075 0.624987 0.150306
H6    H     H_    0.507298 0.092756 0.631559 0.150407
H7    H     H_    0.649442 0.890190 0.395716 0.170444
H8    H     H_    0.471552 0.903081 0.376257 0.194320
H9    H     H_    0.517495 0.114847 0.369140 0.173666
H10   H     H_    0.317656 0.377159 0.271248 0.158157
H11   H     H_    0.675721 0.102767 0.415838 0.174994
H12   H     H_    0.668656 0.134033 0.581101 0.190215
H13   H     H_    0.870097 0.548375 0.625440 0.152716
H14   H     H_    0.872645 0.677132 0.558885 0.166285
H15   H     H_    0.111884 0.686880 0.549889 0.159090
H16   H     H_    0.108753 0.565300 0.622645 0.161735
H17   H     H_    0.864792 0.334932 0.573706 0.150474
H18   H     H_    0.104090 0.346461 0.580642 0.149183
H19   H     H_    0.890914 0.486696 0.374386 0.145589
H20   H     H_    0.742103 0.510338 0.239179 0.148366
H21   H     H_    0.893708 0.641782 0.412173 0.144841
H22   H     H_    0.123878 0.466252 0.376494 0.105895
H23   H     H_    0.886027 0.308839 0.468234 0.152899
H24   H     H_    0.122056 0.308221 0.477000 0.172831
H25   H     H_    0.663465 0.618747 0.888076 0.134409
H26   H     H_    0.660309 0.625807 0.741714 0.138049
H27   H     H_    0.471682 0.562778 0.028312 0.146541
H28   H     H_    0.288712 0.391423 0.903762 0.122600
N1    N     N_3   0.861190 0.500250 0.501720 -0.038616
N2    N     N_3   0.138550 0.503270 0.501080 -0.056350
O1    O     O_R   0.383960 0.685090 0.500020 -0.614765
O2    O     O_R   0.616040 0.685320 0.499960 -0.635690
O3    O     O_R   0.370240 0.499890 0.615830 -0.623870
O4    O     O_R   0.602330 0.500120 0.615770 -0.625138
O5    O     O_R   0.383960 0.314680 0.500040 -0.634741
O6    O     O_R   0.616040 0.314910 0.499980 -0.634143
O7    O     O_R   0.397670 0.499880 0.384230 -0.621418
O8    O     O_R   0.629760 0.500110 0.384170 -0.625236
Zn1   Zn    Zn3+2 0.345040 0.499850 0.500040 0.925871
Zn2   Zn    Zn3+2 0.654960 0.500150 0.499960 0.902581
C33   C     C_1   0.300652 0.890700 0.610072 0.091238
N3    N     N_1   0.261932 0.863478 0.675154 -0.219431
C34   C     C_1   0.261105 0.092756 0.443707 0.156095
N4    N     N_1   0.197847 0.111527 0.389065 -0.251869
C35   C     C_3   0.761373 0.923493 0.542521 -0.369844
C36   C     C_3   0.845271 0.921334 0.616446 -0.940585
H29   H     H_    0.832746 0.009618 0.650720 0.265532
H30   H     H_    0.810978 0.841326 0.656201 0.255095
H31   H     H_    0.956693 0.911240 0.597355 0.258810
H32   H     H_    0.784328 0.839916 0.506360 0.219168
H33   H     H_    0.802903 0.001926 0.503486 0.212891
C37   C     C_1   0.154815 0.656924 0.390026 0.183821
N5    N     N_1   0.204588 0.749430 0.364365 -0.238612
C38   C     C_3   0.574616 0.261271 0.969450 -0.366576
C39   C     C_3   0.717213 0.276947 0.924767 -0.860603
H34   H     H_    0.796569 0.298636 0.967640 0.249816
H35   H     H_    0.744594 0.188654 0.893304 0.243173
H36   H     H_    0.718058 0.352749 0.879359 0.268324
H37   H     H_    0.576564 0.178738 0.009935 0.199576
H38   H     H_    0.495440 0.240188 0.926458 0.204087
C40   C     C_3   0.290331 0.288405 0.123706 -0.457600
C41   C     C_3   0.266351 0.156966 0.158509 -0.851785
H39   H     H_    0.356745 0.098231 0.141420 0.256959
H40   H     H_    0.250042 0.160307 0.224919 0.273848
H41   H     H_    0.172953 0.113345 0.134546 0.249952
H42   H     H_    0.198860 0.346000 0.140641 0.204383
H43   H     H_    0.297646 0.280954 0.057329 0.208161

loop_
_geom_bond_atom_site_label_1
_geom_bond_atom_site_label_2
_ccdc_geom_bond_type
C10   C27   S    
C39   H34   S    
C24   N1    S    
C33   N3    T    
C14   C18   S    
C25   H24   S    
C35   C36   S    
C15   C19   S    
C40   C41   S    
C12   C28   S    
C28   C29   A    
C24   C26   S    
C3    C7    A    
C38   H37   S    
C8    H27   S    
C30   C31   A    
C36   H30   S    
C35   H33   S    
C15   C16   S    
C29   H1    S    
C2    C32   A    
C14   C35   S    
C23   O5    A    
C20   N1    S    
O7    Zn1   S    
C25   H18   S    
O4    Zn2   S    
C13   C34   S    
C8    C9    D    
C22   C25   S    
C30   H28   S    
C5    H20   S    
C40   H43   S    
C20   H13   S    
C27   O7    A    
C21   H16   S    
C24   H19   S    
C32   H25   S    
C26   H22   S    
C19   H11   S    
C37   N5    T    
C13   H4    S    
C11   C33   S    
C36   H29   S    
C41   H41   S    
C24   H21   S    
O3    Zn1   S    
C12   O4    A    
C6    H2    S    
C23   O6    A    
C34   N4    T    
C29   C30   A    
C18   H12   S    
C9    C38   S    
C11   C16   S    
C31   C32   A    
O6    Zn2   S    
C17   C18   S    
C3    C40   S    
C1    C16   S    
C17   C23   S    
C41   H40   S    
C15   H7    S    
C21   N2    S    
C6    C7    A    
C27   O8    A    
C22   H17   S    
N1    Zn2   S    
O1    Zn1   S    
C39   H35   S    
C14   C16   S    
C4    C10   A    
C3    C4    A    
C1    O2    A    
C7    C9    S    
C1    O1    A    
C26   C37   S    
C38   C39   S    
C8    C31   S    
O8    Zn2   S    
C2    H26   S    
C22   H23   S    
C12   O3    A    
C13   C17   S    
C11   H3    S    
C26   N2    S    
C5    C10   A    
C38   H38   S    
C22   N1    S    
C11   C13   S    
C36   H31   S    
C5    C6    A    
C4    H10   S    
C35   H32   S    
C17   C19   S    
N2    Zn1   S    
O5    Zn1   S    
C25   N2    S    
O2    Zn2   S    
C18   H6    S    
C41   H39   S    
C15   H8    S    
C20   C21   S    
C39   H36   S    
C2    C28   A    
C21   H15   S    
C40   H42   S    
C20   H14   S    
C19   H9    S    
C14   H5    S    
