data_mof_unit_48879.cif
_audit_creation_date              2012-12-10T20:41:52-0500
_audit_creation_method            fapswitch 2.2
_symmetry_space_group_name_H-M    P1
_symmetry_Int_Tables_number       1
_space_group_crystal_system       triclinic
_cell_length_a                    15.062671
_cell_length_b                    15.199808
_cell_length_c                    9.872852
_cell_angle_alpha                 89.999725
_cell_angle_beta                  89.062697
_cell_angle_gamma                 90.000834
_cell_volume                      2260.08412111

loop_
_atom_site_label
_atom_site_type_symbol
_atom_type_description
_atom_site_fract_x
_atom_site_fract_y
_atom_site_fract_z
_atom_type_partial_charge
C1    C     C_R   0.382272 0.877539 0.500319 0.896040
C2    C     C_R   0.928655 0.468420 0.073651 0.216088
C3    C     C_R   0.573973 0.977822 0.070030 -0.133764
C4    C     C_R   0.073985 0.522139 0.070029 -0.133770
C5    C     C_R   0.574080 0.978241 0.926117 -0.106520
C6    C     C_R   0.074092 0.521721 0.926117 -0.106464
C7    C     C_R   0.428368 0.031224 0.931009 0.229336
C8    C     C_R   0.928346 0.468824 0.931008 0.229606
C9    C     C_3   0.336772 0.994050 0.932143 -0.528978
C10   C     C_3   0.836785 0.506082 0.932150 -0.529179
C11   C     C_3   0.336716 0.997220 0.085257 -0.487628
C12   C     C_R   0.382061 0.122164 0.500377 0.897720
C13   C     C_3   0.836719 0.502880 0.085261 -0.487643
C14   C     C_R   0.622195 0.117787 0.499307 0.912611
C15   C     C_R   0.622240 0.882292 0.499115 0.910540
C16   C     C_R   0.122240 0.617708 0.499115 0.910527
C17   C     C_R   0.122202 0.382221 0.499306 0.912499
C18   C     C_R   0.295838 0.233646 0.621876 0.070554
C19   C     C_R   0.301364 0.760409 0.619725 0.070718
C20   C     C_R   0.801390 0.739621 0.619709 0.070726
C21   C     C_R   0.795639 0.266543 0.621936 0.070323
C22   C     C_R   0.326837 0.198228 0.500115 -0.049448
C23   C     C_R   0.882068 0.377831 0.500382 0.897624
C24   C     C_R   0.327647 0.800835 0.499068 -0.052547
C25   C     C_R   0.827650 0.699169 0.499059 -0.052542
C26   C     C_R   0.826844 0.301769 0.500169 -0.049399
C27   C     C_R   0.305628 0.239226 0.377211 -0.203868
C28   C     C_R   0.302393 0.763842 0.374973 -0.201273
C29   C     C_R   0.802374 0.736141 0.374959 -0.201261
C30   C     C_R   0.805816 0.260598 0.377339 -0.203879
C31   C     C_R   0.737550 0.800657 0.374045 -0.214016
C32   C     C_R   0.741085 0.195943 0.376638 -0.217131
C33   C     C_R   0.240916 0.303892 0.376519 -0.217053
C34   C     C_R   0.882273 0.622463 0.500318 0.896056
C35   C     C_R   0.237570 0.699323 0.374059 -0.214018
C36   C     C_R   0.698674 0.827502 0.497225 -0.055613
C37   C     C_R   0.698185 0.173224 0.498733 -0.055135
C38   C     C_R   0.198214 0.326809 0.498699 -0.055254
C39   C     C_R   0.198673 0.672500 0.497234 -0.055590
C40   C     C_R   0.736902 0.802816 0.618672 -0.015002
C41   C     C_R   0.731702 0.202809 0.621188 -0.007398
C42   C     C_R   0.231933 0.297416 0.621146 -0.007488
C43   C     C_R   0.236876 0.697211 0.618687 -0.014997
C44   C     C_3   0.695253 0.770896 0.747890 0.509543
C45   C     C_3   0.255648 0.189168 0.742978 -0.542192
C46   C     C_3   0.684769 0.240280 0.742691 0.501958
C47   C     C_3   0.185202 0.260173 0.743019 0.501949
C48   C     C_3   0.195197 0.729161 0.747866 0.509518
C49   C     C_3   0.266917 0.798616 0.749500 -0.535070
C50   C     C_3   0.766975 0.701446 0.749525 -0.535064
C51   C     C_3   0.755287 0.311213 0.742731 -0.542195
C52   C     C_R   0.428675 0.031620 0.073650 0.216030
F1    F     F_    0.611695 0.735171 0.729284 -0.636783
F2    F     F_    0.601629 0.273245 0.712574 -0.640668
F3    F     F_    0.101948 0.227235 0.713447 -0.640564
F4    F     F_    0.111643 0.764876 0.729191 -0.636817
H1    H     H_    0.333863 0.217409 0.281317 0.167285
H2    H     H_    0.720669 0.168834 0.280565 0.167752
H3    H     H_    0.220348 0.330840 0.280404 0.167823
H4    H     H_    0.213707 0.675915 0.277617 0.163703
H5    H     H_    0.698996 0.818862 0.832398 0.050589
H6    H     H_    0.685642 0.196081 0.832357 0.067027
H7    H     H_    0.186318 0.304517 0.832520 0.066914
H8    H     H_    0.198918 0.681212 0.832401 0.050636
H9    H     H_    0.299558 0.192784 0.832214 0.169161
H10   H     H_    0.314250 0.787907 0.833034 0.166298
H11   H     H_    0.814330 0.712186 0.833022 0.166292
H12   H     H_    0.327242 0.788833 0.278879 0.164989
H13   H     H_    0.799030 0.307636 0.832151 0.169023
H14   H     H_    0.229361 0.122807 0.718311 0.225420
H15   H     H_    0.241066 0.866652 0.737151 0.228864
H16   H     H_    0.741121 0.633406 0.737235 0.228880
H17   H     H_    0.729141 0.377581 0.717805 0.225469
H18   H     H_    0.633270 0.958430 0.122646 0.140847
H19   H     H_    0.133293 0.541501 0.122646 0.140849
H20   H     H_    0.633633 0.960049 0.870481 0.131566
H21   H     H_    0.133655 0.539887 0.870479 0.131502
H22   H     H_    0.286884 0.038271 0.887762 0.207959
H23   H     H_    0.827206 0.711135 0.278864 0.164962
H24   H     H_    0.336783 0.926415 0.892888 0.219771
H25   H     H_    0.836879 0.573728 0.892941 0.219784
H26   H     H_    0.786846 0.461931 0.887724 0.207978
H27   H     H_    0.834221 0.282263 0.281492 0.167329
H28   H     H_    0.290118 0.046883 0.128611 0.205967
H29   H     H_    0.333165 0.931121 0.133181 0.217970
H30   H     H_    0.833213 0.568973 0.133213 0.217973
H31   H     H_    0.790082 0.453241 0.128587 0.206030
H32   H     H_    0.713669 0.824046 0.277602 0.163706
N1    N     N_R   0.499140 1.000000 0.142800 -0.108007
N2    N     N_R   0.999140 0.500000 0.142800 -0.108022
N3    N     N_R   0.499160 1.000000 0.857150 -0.103212
N4    N     N_R   0.999160 0.500000 0.857150 -0.103177
O1    O     O_R   0.408400 0.908380 0.614690 -0.603158
O2    O     O_R   0.591610 0.908390 0.614650 -0.605065
O3    O     O_R   0.091610 0.591610 0.614650 -0.605131
O4    O     O_R   0.091610 0.408390 0.614650 -0.606705
O5    O     O_R   0.591590 0.091600 0.385310 -0.635349
O6    O     O_R   0.591590 0.908400 0.385310 -0.640678
O7    O     O_R   0.091590 0.591600 0.385310 -0.640659
O8    O     O_R   0.091590 0.408400 0.385310 -0.635441
O9    O     O_R   0.408400 0.091620 0.614690 -0.602676
O10   O     O_R   0.908400 0.408380 0.614690 -0.602629
O11   O     O_R   0.908400 0.591620 0.614690 -0.603185
O12   O     O_R   0.408370 0.908370 0.385350 -0.630390
O13   O     O_R   0.408370 0.091630 0.385350 -0.629782
O14   O     O_R   0.908370 0.408370 0.385350 -0.629774
O15   O     O_R   0.908370 0.591630 0.385350 -0.630393
O16   O     O_R   0.591610 0.091610 0.614650 -0.607078
Zn1   Zn    Zn3+2 0.500010 0.000000 0.653130 0.990718
Zn2   Zn    Zn3+2 0.000010 0.500000 0.653130 0.990861
Zn3   Zn    Zn3+2 0.499980 0.000000 0.346870 0.947438
Zn4   Zn    Zn3+2 0.999980 0.500000 0.346870 0.947419

loop_
_geom_bond_atom_site_label_1
_geom_bond_atom_site_label_2
_ccdc_geom_bond_type
C21   C26   A    
O15   Zn4   S    
C32   H2    S    
C15   O2    A    
O14   Zn4   S    
C27   C33   A    
C9    H22   S    
C46   H6    S    
O11   Zn2   S    
C34   O15   A    
C28   H12   S    
C7    C52   A    
C38   C42   A    
C18   C42   A    
C47   H7    S    
C12   O13   A    
C20   C40   A    
C6    N4    A    
C48   H8    S    
C23   O10   A    
C20   C25   A    
O9    Zn1   S    
C12   C22   S    
O16   Zn1   S    
C48   F4    S    
C23   C26   S    
C30   H27   S    
C2    N2    A    
C2    C13   S    
C50   H16   S    
C4    H19   S    
C20   C50   S    
C11   C52   S    
C44   F1    S    
C28   C35   A    
C13   H30   S    
C41   C46   S    
C8    N4    A    
N2    Zn4   S    
C50   H11   S    
C25   C34   S    
C17   C38   S    
C14   O16   A    
O13   Zn3   S    
C33   H3    S    
C13   H31   S    
C52   N1    A    
C19   C43   A    
C4    N2    A    
C45   C47   S    
C25   C29   A    
C49   H10   S    
C24   C28   A    
C36   C40   A    
C4    C6    A    
C27   H1    S    
O6    Zn3   S    
C6    H21   S    
C39   C43   A    
C23   O14   A    
O4    Zn2   S    
C46   C51   S    
C10   C13   S    
C35   H4    S    
C3    H18   S    
C9    H24   S    
C35   C39   A    
C19   C49   S    
C29   H23   S    
C7    N3    A    
C46   F2    S    
C17   O4    A    
C32   C37   A    
C9    C11   S    
C1    O12   A    
C5    N3    A    
C21   C41   A    
C8    C10   S    
C48   C49   S    
O8    Zn4   S    
C22   C27   A    
C45   H9    S    
C44   H5    S    
O10   Zn2   S    
C15   O6    A    
C18   C45   S    
C15   C36   S    
C21   C51   S    
C14   O5    A    
C47   F3    S    
C43   C48   S    
C44   C50   S    
C7    C9    S    
C16   O3    A    
C31   H32   S    
C10   H25   S    
C45   H14   S    
C18   C22   A    
C2    C8    A    
C51   H17   S    
C3    C5    A    
O3    Zn2   S    
O12   Zn3   S    
C16   O7    A    
C26   C30   A    
C11   H28   S    
N1    Zn3   S    
O2    Zn1   S    
C33   C38   A    
C3    N1    A    
N3    Zn1   S    
C5    H20   S    
C19   C24   A    
C12   O9    A    
C29   C31   A    
C14   C37   S    
C30   C32   A    
N4    Zn2   S    
C11   H29   S    
O5    Zn3   S    
O7    Zn4   S    
C34   O11   A    
C10   H26   S    
C42   C47   S    
C37   C41   A    
C17   O8    A    
C16   C39   S    
C40   C44   S    
C1    C24   S    
C1    O1    A    
C49   H15   S    
C31   C36   A    
C51   H13   S    
O1    Zn1   S    
