data_mof_unit_16475.cif
_audit_creation_date              2012-12-10T19:03:07-0500
_audit_creation_method            fapswitch 2.2
_symmetry_space_group_name_H-M    P1
_symmetry_Int_Tables_number       1
_space_group_crystal_system       triclinic
_cell_length_a                    10.762813
_cell_length_b                    10.763668
_cell_length_c                    9.60392
_cell_angle_alpha                 90.601318
_cell_angle_beta                  91.141855
_cell_angle_gamma                 91.816306
_cell_volume                      1111.73991278

loop_
_atom_site_label
_atom_site_type_symbol
_atom_type_description
_atom_site_fract_x
_atom_site_fract_y
_atom_site_fract_z
_atom_type_partial_charge
C1    C     C_R   0.500267 0.262629 0.499744 0.861025
C2    C     C_3   0.878323 0.505979 0.505328 -0.114597
C3    C     C_3   0.928906 0.592988 0.388474 -0.384919
C4    C     C_3   0.924562 0.371232 0.474917 0.169456
C5    C     C_R   0.454338 0.063693 0.611074 0.159116
C6    C     C_R   0.507614 0.129563 0.501948 -0.090450
C7    C     C_R   0.577407 0.066388 0.403598 -0.061387
C8    C     C_R   0.577913 0.936811 0.404434 -0.150409
C9    C     C_R   0.509448 0.871037 0.504191 -0.085544
C10   C     C_R   0.455228 0.935912 0.612287 0.123324
C11   C     C_3   0.325258 0.925389 0.663848 -0.453566
C12   C     C_R   0.260140 0.503561 0.499204 0.799478
C13   C     C_3   0.324509 0.066358 0.662836 -0.468869
C14   C     C_R   0.573274 0.583501 0.076163 0.177117
C15   C     C_R   0.435431 0.409288 0.067349 0.477922
C16   C     C_R   0.436663 0.411927 0.919932 -0.108082
C17   C     C_R   0.573073 0.583527 0.929270 0.279627
C18   C     C_3   0.566642 0.721591 0.925319 -0.407278
C19   C     C_3   0.568169 0.721622 0.082977 -0.486824
C20   C     C_R   0.501157 0.737436 0.500754 0.822029
C21   C     C_R   0.740039 0.503524 0.501544 0.859195
C22   C     C_3   0.076926 0.540820 0.647698 -0.383101
C23   C     C_3   0.934610 0.554626 0.648406 0.319484
C24   C     C_3   0.072515 0.601969 0.394720 -0.373995
C25   C     C_3   0.066868 0.376463 0.456185 -0.394798
C26   C     C_3   0.122100 0.505916 0.499271 0.007656
Cu1   Cu    Cu3+1 0.499990 0.499980 0.640670 1.015415
Cu2   Cu    Cu3+1 0.500010 0.500020 0.359330 1.017520
H1    H     H_    0.126475 0.627387 0.685376 0.214862
H2    H     H_    0.880592 0.337986 0.374745 0.124403
H3    H     H_    0.108617 0.584350 0.288768 0.196395
H4    H     H_    0.898574 0.555459 0.284369 0.186286
H5    H     H_    0.628697 0.116620 0.325017 0.187356
H6    H     H_    0.629189 0.888429 0.326197 0.155170
H7    H     H_    0.259440 0.880659 0.586356 0.212516
H8    H     H_    0.320995 0.886395 0.770357 0.217741
H9    H     H_    0.257960 0.103902 0.585059 0.187130
H10   H     H_    0.320664 0.108455 0.768732 0.246627
H11   H     H_    0.103091 0.467603 0.722596 0.196851
H12   H     H_    0.386558 0.341905 0.857720 0.190007
H13   H     H_    0.651354 0.766460 0.881776 0.269668
H14   H     H_    0.477454 0.753132 0.879931 0.198569
H15   H     H_    0.655120 0.764303 0.128889 0.210328
H16   H     H_    0.480430 0.754926 0.127320 0.224584
H17   H     H_    0.896834 0.496079 0.733318 0.169392
H18   H     H_    0.105205 0.697275 0.426361 0.215635
H19   H     H_    0.890758 0.687447 0.397187 0.240757
H20   H     H_    0.084444 0.359380 0.344250 0.214955
H21   H     H_    0.114012 0.302492 0.515266 0.181030
N1    N     N_R   0.500800 0.500930 0.147930 -0.253919
N2    N     N_R   0.500800 0.500890 0.852020 -0.233596
O1    O     O_R   0.500000 0.319640 0.618810 -0.564429
O2    O     O_R   0.500010 0.319680 0.381230 -0.514227
O3    O     O_R   0.317690 0.499960 0.618790 -0.609550
O4    O     O_R   0.317700 0.500000 0.381210 -0.530464
O5    O     O_R   0.499990 0.680320 0.618770 -0.566441
O6    O     O_R   0.500000 0.680360 0.381190 -0.604690
O7    O     O_R   0.682300 0.500000 0.618790 -0.518765
O8    O     O_R   0.682310 0.500040 0.381210 -0.605314
S1    S     S_3+6 0.357041 0.272020 0.128689 0.009246
O9    O     O_2   0.260550 0.228537 0.022062 -0.324251
O10   O     O_2   0.451625 0.172902 0.141340 -0.317064
O11   O     O_3   0.283491 0.284775 0.279476 -0.538358
H22   H     H_    0.260093 0.198375 0.305251 0.352802
S2    S     S_3+6 0.897724 0.713477 0.693422 -0.028977
O12   O     O_2   0.769262 0.744057 0.643858 -0.316600
O13   O     O_2   0.905526 0.727621 0.849254 -0.304752
O14   O     O_3   0.999632 0.815093 0.622686 -0.559392
H23   H     H_    0.982413 0.896348 0.666391 0.410062
S3    S     S_3+6 0.884488 0.253596 0.601869 -0.024926
O15   O     O_2   0.752298 0.261648 0.646166 -0.263223
O16   O     O_2   0.900205 0.127912 0.535830 -0.297070
O17   O     O_3   0.977274 0.266702 0.744829 -0.526216
H24   H     H_    0.042735 0.205195 0.731933 0.365303

loop_
_geom_bond_atom_site_label_1
_geom_bond_atom_site_label_2
_ccdc_geom_bond_type
C23   H17   S    
C22   H1    S    
O17   H24   S    
C16   N2    A    
C20   O5    A    
C17   N2    A    
C4    S3    S    
C4    C25   S    
Cu1   O3    S    
C7    C8    A    
Cu2   O6    S    
Cu1   O1    S    
S1    O11   S    
C11   H8    S    
C24   C26   S    
C21   O8    A    
C18   H14   S    
C5    C6    A    
C15   C16   A    
S1    O10   D    
C18   C19   S    
C15   S1    S    
C15   N1    A    
C1    O2    A    
Cu2   N1    S    
C19   H15   S    
C8    C9    A    
S2    O13   D    
S3    O15   D    
C9    C10   A    
C5    C13   S    
C12   O3    A    
C7    H5    S    
C14   C17   A    
C3    C24   S    
C2    C21   S    
Cu2   O4    S    
Cu1   N2    S    
C1    C6    S    
C18   H13   S    
Cu1   O5    S    
O14   H23   S    
C25   C26   S    
C12   C26   S    
S1    O9    D    
C2    C4    S    
C9    C20   S    
S2    O14   S    
S3    O17   S    
C17   C18   S    
C8    H6    S    
C25   H20   S    
C13   H10   S    
C16   H12   S    
Cu1   Cu2   S    
C19   H16   S    
Cu2   O8    S    
C13   H9    S    
C14   C19   S    
Cu1   O7    S    
Cu2   O2    S    
C6    C7    A    
C24   H18   S    
C23   S2    S    
C11   H7    S    
C2    C3    S    
C24   H3    S    
C5    C10   A    
C11   C13   S    
C14   N1    A    
C22   H11   S    
C3    H19   S    
C3    H4    S    
C1    O1    A    
C25   H21   S    
C12   O4    A    
C10   C11   S    
O11   H22   S    
C21   O7    A    
S2    O12   D    
C22   C26   S    
C2    C23   S    
C22   C23   S    
S3    O16   D    
C20   O6    A    
C4    H2    S    
