data_mof_unit_67632.cif
_audit_creation_date              2013-03-05T16:14:30-0500
_audit_creation_method            fapswitch 2.2
_symmetry_space_group_name_H-M    P1
_symmetry_Int_Tables_number       1
_space_group_crystal_system       triclinic
_cell_length_a                    10.61571
_cell_length_b                    10.601819
_cell_length_c                    9.473308
_cell_angle_alpha                 89.535629
_cell_angle_beta                  91.512971
_cell_angle_gamma                 90.117755
_cell_volume                      1065.77285589

loop_
_atom_site_label
_atom_site_type_symbol
_atom_site_description
_atom_site_fract_x
_atom_site_fract_y
_atom_site_fract_z
_atom_type_partial_charge
O1    O     O_R   0.500060 0.316850 0.620870 -0.567873
O2    O     O_R   0.499940 0.683150 0.379130 -0.568043
O3    O     O_R   0.500000 0.316860 0.379090 -0.530192
O4    O     O_R   0.500000 0.683140 0.620910 -0.530174
C1    C     C_R   0.499783 0.259875 0.500721 0.902547
C2    C     C_R   0.500233 0.740119 0.499271 0.902656
O5    O     O_R   0.316880 0.499960 0.620870 -0.524502
O6    O     O_R   0.683120 0.500040 0.379130 -0.524428
O7    O     O_R   0.316830 0.499970 0.379090 -0.526056
O8    O     O_R   0.683170 0.500030 0.620910 -0.526092
C3    C     C_R   0.259884 0.501941 0.498379 0.921724
C4    C     C_R   0.740115 0.498059 0.501619 0.921641
Cu1   Cu    Cu3+1 0.500030 0.499990 0.643150 1.108755
Cu2   Cu    Cu3+1 0.499970 0.500010 0.356850 1.108736
C5    C     C_3   0.045328 0.387267 0.535499 0.542283
C6    C     C_3   0.954667 0.612733 0.464491 0.542585
C7    C     C_3   0.955124 0.412363 0.407639 -0.440485
C8    C     C_3   0.044871 0.587638 0.592352 -0.440550
H1    H     H_    0.917403 0.340398 0.333261 0.221601
H2    H     H_    0.082591 0.659605 0.666726 0.221573
C9    C     C_3   0.876600 0.496742 0.503910 -0.346054
C10   C     C_3   0.123397 0.503258 0.496082 -0.346075
C11   C     C_3   0.965945 0.470173 0.630308 0.633797
C12   C     C_3   0.034051 0.529826 0.369683 0.633837
C13   C     C_3   0.511190 0.038885 0.637081 -0.446154
C14   C     C_3   0.488843 0.961087 0.362860 -0.445806
C15   C     C_3   0.607269 0.958486 0.557515 0.371130
C16   C     C_3   0.392766 0.041492 0.442417 0.371381
H3    H     H_    0.519560 0.072287 0.747723 0.180638
H4    H     H_    0.480490 0.927674 0.252221 0.180602
C17   C     C_3   0.500205 0.876652 0.497018 -0.236055
C18   C     C_3   0.499830 0.123332 0.502927 -0.236094
C19   C     C_3   0.403604 0.956745 0.573950 0.572826
C20   C     C_3   0.596428 0.043230 0.425977 0.572985
C21   C     C_3   0.558152 0.597562 0.050527 0.264661
C22   C     C_3   0.441839 0.402443 0.949492 0.264471
C23   C     C_3   0.444582 0.599050 0.948100 0.272208
C24   C     C_3   0.555425 0.400964 0.051904 0.272472
N1    N     N_3   0.500090 0.499970 0.858290 -0.291769
N2    N     N_3   0.499910 0.500030 0.141710 -0.291629
C25   C     C_3   0.614011 0.498621 0.954057 0.485841
C26   C     C_3   0.385987 0.501399 0.045954 0.485001
F1    F     F_    0.095062 0.271188 0.574172 -0.619871
F2    F     F_    0.904931 0.728806 0.425796 -0.619631
F3    F     F_    0.932008 0.434982 0.764609 -0.569676
F4    F     F_    0.067974 0.565022 0.235380 -0.569708
O9    O     O_3   0.720151 0.904535 0.611529 -0.530623
C27   C     C_3   0.795279 0.998949 0.675663 0.114256
H5    H     H_    0.751335 0.031604 0.774093 0.099879
H6    H     H_    0.808990 0.081153 0.603651 0.191629
C28   C     C_3   0.924447 0.944560 0.713625 -0.682228
H7    H     H_    0.973315 0.917365 0.616239 0.293789
H8    H     H_    0.982403 0.016145 0.770606 0.207477
H9    H     H_    0.914603 0.859949 0.782388 0.237476
O10   O     O_3   0.279876 0.095424 0.388397 -0.530543
C29   C     C_3   0.204796 0.001011 0.324188 0.114220
H10   H     H_    0.191140 0.918745 0.396126 0.191673
H11   H     H_    0.248746 0.968457 0.225720 0.099861
C30   C     C_3   0.075589 0.055344 0.286293 -0.682332
H12   H     H_    0.085372 0.139975 0.217550 0.237245
H13   H     H_    0.017651 0.983744 0.229313 0.207595
H14   H     H_    0.026740 0.082491 0.383706 0.293793
F5    F     F_    0.303350 0.907437 0.646537 -0.676301
F6    F     F_    0.696672 0.092434 0.353286 -0.676185
O11   O     O_3   0.385624 0.704939 0.883856 -0.520753
C31   C     C_3   0.325037 0.779340 0.985220 0.108748
H15   H     H_    0.358418 0.878125 0.973833 0.139142
H16   H     H_    0.345228 0.751304 0.097344 0.146694
C32   C     C_3   0.183132 0.777145 0.956709 -0.644367
H17   H     H_    0.147321 0.678773 0.958599 0.316188
H18   H     H_    0.134772 0.832038 0.038500 0.179684
H19   H     H_    0.160625 0.819647 0.851681 0.258069
O12   O     O_3   0.614403 0.295093 0.116159 -0.520739
C33   C     C_3   0.674844 0.220594 0.014775 0.108751
H20   H     H_    0.654579 0.248593 0.902654 0.146558
H21   H     H_    0.641409 0.121831 0.026269 0.139710
C34   C     C_3   0.816773 0.222733 0.043123 -0.644420
H22   H     H_    0.839357 0.180279 0.148158 0.258090
H23   H     H_    0.865037 0.167781 0.961311 0.179678
H24   H     H_    0.852622 0.321091 0.041128 0.316217
O13   O     O_3   0.622871 0.698642 0.115939 -0.524500
C35   C     C_3   0.668577 0.783460 0.013751 0.097462
H25   H     H_    0.591623 0.847137 0.975973 0.133133
H26   H     H_    0.708825 0.735063 0.921356 0.208792
C36   C     C_3   0.772648 0.862832 0.081938 -0.704127
H27   H     H_    0.852178 0.801387 0.117577 0.295029
H28   H     H_    0.807828 0.933008 0.005032 0.166620
H29   H     H_    0.736048 0.913373 0.174332 0.297841
O14   O     O_3   0.377288 0.301224 0.884145 -0.524715
C37   C     C_3   0.330741 0.217033 0.986488 0.096187
H30   H     H_    0.288576 0.266119 0.077323 0.210014
H31   H     H_    0.407663 0.154340 0.026661 0.134499
C38   C     C_3   0.228314 0.136162 0.917389 -0.705876
H32   H     H_    0.267022 0.084340 0.827013 0.296797
H33   H     H_    0.191927 0.067044 0.994753 0.167097
H34   H     H_    0.149151 0.196706 0.878577 0.296486
F7    F     F_    0.734138 0.498682 0.902523 -0.588583
F8    F     F_    0.265873 0.501556 0.097520 -0.589118

loop_
_geom_bond_atom_site_label_1
_geom_bond_atom_site_label_2
_geom_bond_distance
_ccdc_geom_bond_type
C22   O14   1.410570 S    
C31   H16   1.116088 S    
O10   C29   1.410014 S    
C6    C9    1.530741 S    
C11   F3    1.379717 S    
O12   C33   1.415934 S    
C6    C12   1.531405 S    
C22   C26   1.527732 S    
O13   C35   1.410701 S    
C21   O13   1.410552 S    
N1    C25   1.492558 S    
C34   H22   1.109379 S    
O5    C3    1.294460 A    
C38   H32   1.109430 S    
C33   H21   1.110341 S    
O1    C1    1.292807 A    
C21   C23   1.527535 S    
C26   F8    1.377467 S    
C34   H24   1.109498 S    
C31   C32   1.523571 S    
C23   C26   1.526528 S    
C29   H10   1.114086 S    
C5    C10   1.530749 S    
O4    Cu1   1.951421 S    
C32   H18   1.110018 S    
C14   C20   1.545507 S    
C27   C28   1.521810 S    
C33   C34   1.523578 S    
C23   O11   1.412124 S    
C17   C19   1.535213 S    
C6    F2    1.382973 S    
C8    H2    1.109712 S    
C19   F5    1.381779 S    
C1    C18   1.447587 S    
C13   C18   1.550854 S    
C5    C11   1.531413 S    
C31   H15   1.110276 S    
C30   H12   1.110687 S    
C38   H33   1.108326 S    
Cu1   Cu2   2.712190 S    
O2    C2    1.292704 A    
C21   C25   1.527693 S    
C16   O10   1.410918 S    
C34   H23   1.110009 S    
C15   C20   1.532284 S    
C13   H3    1.110349 S    
C30   H13   1.110443 S    
C7    C12   1.544827 S    
C33   H20   1.116094 S    
C36   H28   1.108257 S    
C15   C17   1.530538 S    
C8    C11   1.544837 S    
C16   C18   1.530622 S    
C24   C25   1.526492 S    
O4    C2    1.296782 A    
C36   H27   1.111204 S    
C4    C9    1.448563 S    
C35   H25   1.110897 S    
C7    C9    1.543807 S    
C28   H7    1.110664 S    
C28   H8    1.110434 S    
C18   C20   1.535332 S    
C32   H19   1.109374 S    
O7    Cu2   1.961064 S    
C37   H31   1.111356 S    
O9    C27   1.409998 S    
O5    Cu1   1.950143 S    
O6    C4    1.294443 A    
C20   F6    1.381790 S    
C27   H6    1.114091 S    
O7    C3    1.295932 A    
O3    Cu2   1.951421 S    
O8    C4    1.295938 A    
C27   H5    1.111677 S    
C16   C19   1.532263 S    
C14   H4    1.110350 S    
C38   H34   1.111518 S    
C35   H26   1.113490 S    
C9    C11   1.532441 S    
C10   C12   1.532450 S    
O1    Cu1   1.954757 S    
C37   C38   1.521043 S    
C36   H29   1.109316 S    
C15   O9    1.410905 S    
C5    C7    1.545789 S    
C30   H14   1.110654 S    
O6    Cu2   1.950143 S    
C8    C10   1.543814 S    
C22   N1    1.486284 S    
O3    C1    1.296730 A    
O8    Cu1   1.961065 S    
C13   C15   1.545824 S    
C35   C36   1.520936 S    
C3    C10   1.448584 S    
C14   C16   1.545804 S    
C29   C30   1.521811 S    
C28   H9    1.110700 S    
C12   F4    1.379707 S    
C22   C24   1.527576 S    
C21   N2    1.486173 S    
C5    F1    1.382964 S    
C23   N1    1.489292 S    
C24   N2    1.489188 S    
C37   H30   1.113646 S    
N2    C26   1.492510 S    
C7    H1    1.109724 S    
C29   H11   1.111675 S    
C2    C17   1.447481 S    
C25   F7    1.377475 S    
C32   H17   1.109494 S    
O2    Cu2   1.954757 S    
Cu1   N1    2.038068 S    
Cu2   N2    2.038070 S    
C14   C17   1.550808 S    
C6    C8    1.545792 S    
O11   C31   1.415944 S    
O14   C37   1.410778 S    
C13   C19   1.545546 S    
C24   O12   1.412111 S    
