data_mof_unit_8121.cif
_audit_creation_date              2012-12-11T14:21:11-0500
_audit_creation_method            fapswitch 2.2
_symmetry_space_group_name_H-M    P1
_symmetry_Int_Tables_number       1
_space_group_crystal_system       triclinic
_cell_length_a                    22.048724
_cell_length_b                    7.200579
_cell_length_c                    15.022062
_cell_angle_alpha                 90.001267
_cell_angle_beta                  107.997213
_cell_angle_gamma                 89.997635
_cell_volume                      2268.26410039

loop_
_atom_site_label
_atom_site_type_symbol
_atom_type_description
_atom_site_fract_x
_atom_site_fract_y
_atom_site_fract_z
_atom_type_partial_charge
O1    O     O_R   0.584770 0.505770 0.002090 -0.541236
O2    O     O_R   0.415230 0.005770 0.997910 -0.541316
O3    O     O_R   0.467060 0.173340 0.861950 -0.539691
O4    O     O_R   0.532940 0.673340 0.138050 -0.539698
C1    C     C_R   0.454979 0.344830 0.825947 0.677551
C2    C     C_R   0.545019 0.844831 0.174053 0.677434
O5    O     O_R   0.587510 0.175890 0.993210 -0.529692
O6    O     O_R   0.412490 0.675890 0.006790 -0.529796
O7    O     O_R   0.536540 0.008150 0.130100 -0.536420
O8    O     O_R   0.463460 0.508150 0.869900 -0.536360
C3    C     C_R   0.613590 0.343668 0.001179 0.725671
C4    C     C_R   0.386407 0.843675 0.998804 0.725631
O9    O     O_3   0.483140 0.340040 0.044760 -0.369647
O10   O     O_3   0.516860 0.840040 0.955240 -0.369494
V1    V     V_3+5 0.503130 0.064190 0.991700 1.515548
V2    V     V_3+5 0.496870 0.564190 0.008300 1.515530
C5    C     C_2   0.208621 0.740187 0.979989 -0.231200
C6    C     C_2   0.791400 0.240255 0.020079 -0.231112
C7    C     C_2   0.183011 0.886259 0.012949 -0.169691
C8    C     C_2   0.816995 0.386270 0.987062 -0.169696
C9    C     C_2   0.277772 0.711727 0.990520 0.037362
C10   C     C_2   0.722249 0.211726 0.009519 0.037221
C11   C     C_2   0.317486 0.855740 0.989390 -0.320454
C12   C     C_2   0.682504 0.355728 0.010555 -0.320459
C13   C     C_R   0.931774 0.878613 0.722440 -0.109027
C14   C     C_R   0.068220 0.378610 0.277562 -0.109000
C15   C     C_R   0.573112 0.857618 0.275599 -0.041951
C16   C     C_R   0.426882 0.357614 0.724400 -0.041966
C17   C     C_R   0.933687 0.731717 0.578354 -0.188515
C18   C     C_R   0.066310 0.231678 0.421639 -0.188508
C19   C     C_R   0.965627 0.780627 0.671280 -0.029777
C20   C     C_R   0.034369 0.280599 0.328714 -0.029763
C21   C     C_R   0.868274 0.929798 0.678692 -0.182272
C22   C     C_R   0.131715 0.429807 0.321317 -0.182329
C23   C     C_R   0.833033 0.854556 0.590888 0.106890
C24   C     C_R   0.166958 0.354547 0.409117 0.106880
C25   C     C_R   0.868203 0.765528 0.538682 0.116272
C26   C     C_R   0.131791 0.265499 0.461317 0.116303
C27   C     C_R   0.764503 0.865263 0.552977 -0.008253
C28   C     C_R   0.235488 0.365252 0.447027 -0.008260
C29   C     C_R   0.735172 0.820195 0.456429 0.052040
C30   C     C_R   0.264822 0.320172 0.543572 0.052062
C31   C     C_R   0.773295 0.739994 0.406078 -0.158033
C32   C     C_R   0.226702 0.239960 0.593921 -0.158035
C33   C     C_R   0.837909 0.709319 0.447250 -0.162970
C34   C     C_R   0.162088 0.209280 0.552747 -0.162991
C35   C     C_R   0.724080 0.906954 0.608761 -0.082496
C36   C     C_R   0.275907 0.406946 0.391241 -0.082496
C37   C     C_R   0.658266 0.939559 0.566105 -0.090255
C38   C     C_R   0.341720 0.439552 0.433894 -0.090267
C39   C     C_R   0.630667 0.915474 0.468724 0.034567
C40   C     C_R   0.369322 0.415469 0.531275 0.034577
C41   C     C_R   0.668454 0.850639 0.413646 0.082444
C42   C     C_R   0.331539 0.350619 0.586354 0.082416
C43   C     C_R   0.565085 0.952211 0.425219 -0.094061
C44   C     C_R   0.434901 0.452230 0.574780 -0.094055
C45   C     C_R   0.536924 0.924260 0.329835 -0.145845
C46   C     C_R   0.463064 0.424284 0.670163 -0.145874
C47   C     C_R   0.638066 0.822809 0.316464 -0.183239
C48   C     C_R   0.361931 0.322781 0.683535 -0.183159
H1    H     H_    0.864580 0.642132 0.406521 0.142650
H2    H     H_    0.135419 0.142081 0.593472 0.142633
H3    H     H_    0.663694 0.782297 0.269099 0.104274
H4    H     H_    0.336306 0.282246 0.730899 0.104406
H5    H     H_    0.486894 0.956822 0.298020 0.140670
H6    H     H_    0.513092 0.456869 0.701978 0.140683
H7    H     H_    0.959550 0.662282 0.537139 0.160954
H8    H     H_    0.040448 0.162226 0.462847 0.160937
H9    H     H_    0.846787 0.022755 0.716545 0.130651
H10   H     H_    0.153200 0.522784 0.283473 0.130654
H11   H     H_    0.754374 0.690963 0.335235 0.131621
H12   H     H_    0.245625 0.190926 0.664763 0.131629
O11   O     O_R   0.036450 0.233070 0.130130 -0.535459
O12   O     O_R   0.963550 0.733070 0.869870 -0.535450
O13   O     O_R   0.912470 0.560570 0.006790 -0.521671
O14   O     O_R   0.087530 0.060570 0.993210 -0.521681
C49   C     C_R   0.886580 0.392281 0.999942 0.745051
C50   C     C_R   0.113422 0.892275 0.000064 0.745051
O15   O     O_R   0.032920 0.562940 0.138050 -0.544517
O16   O     O_R   0.967080 0.062940 0.861950 -0.544522
O17   O     O_R   0.084790 0.730500 0.002090 -0.542578
O18   O     O_R   0.915210 0.230500 0.997910 -0.542582
C51   C     C_R   0.043538 0.393789 0.174905 0.762857
C52   C     C_R   0.956459 0.893788 0.825096 0.762899
O19   O     O_3   0.016820 0.396170 0.955260 -0.383434
O20   O     O_3   0.983180 0.896170 0.044740 -0.383422
V3    V     V_3+5 0.996880 0.672090 0.008300 1.546070
V4    V     V_3+5 0.003120 0.172090 0.991700 1.546025
H13   H     H_    0.176767 0.629426 0.944445 0.176248
H14   H     H_    0.823269 0.129568 0.055677 0.176491
C53   C     C_2   0.034265 0.731020 0.711564 0.739059
O21   O     O_2   0.068364 0.813539 0.779872 -0.581855
O22   O     O_R   0.060446 0.591717 0.669746 -0.662611
H15   H     H_    0.107536 0.571260 0.702934 0.305845
C54   C     C_2   0.965736 0.230976 0.288422 0.739086
O23   O     O_2   0.931631 0.313534 0.220131 -0.581850
O24   O     O_R   0.939565 0.091611 0.330212 -0.662601
H16   H     H_    0.892476 0.071146 0.297019 0.305900
C55   C     C_2   0.746763 0.881792 0.711863 0.765428
O25   O     O_2   0.774334 0.738522 0.744869 -0.544581
O26   O     O_R   0.738912 0.023832 0.770818 -0.624761
H17   H     H_    0.759088 0.993620 0.839455 0.334760
C56   C     C_2   0.253219 0.381791 0.288140 0.765503
O27   O     O_2   0.225670 0.238496 0.255133 -0.544572
O28   O     O_R   0.261028 0.523881 0.229187 -0.624720
H18   H     H_    0.240820 0.493702 0.160552 0.334826
H19   H     H_    0.534894 0.005140 0.464145 0.151963
H20   H     H_    0.465087 0.505179 0.535853 0.151973
C57   C     C_2   0.223180 0.033116 0.071801 0.833278
O29   O     O_2   0.208429 0.196330 0.056562 -0.554184
O30   O     O_R   0.278038 0.984428 0.144336 -0.619515
H21   H     H_    0.304007 0.096339 0.175097 0.338140
C58   C     C_2   0.776817 0.533038 0.928152 0.833182
O31   O     O_2   0.791537 0.696277 0.943364 -0.554161
O32   O     O_R   0.721983 0.484243 0.855602 -0.619514
H22   H     H_    0.695997 0.596106 0.824805 0.338054
C59   C     C_2   0.298365 0.516815 0.990453 0.829633
O33   O     O_2   0.329593 0.442858 0.063500 -0.535586
O34   O     O_R   0.281851 0.418513 0.906188 -0.675152
H23   H     H_    0.300714 0.289116 0.913578 0.276183
C60   C     C_2   0.701709 0.016780 0.009672 0.829375
O35   O     O_2   0.670205 0.942966 0.936745 -0.535452
O36   O     O_R   0.718653 0.918220 0.093873 -0.675100
H24   H     H_    0.699807 0.788813 0.086594 0.276219
H25   H     H_    0.297802 0.994334 0.977161 0.134540
H26   H     H_    0.702166 0.494343 0.022717 0.134522
C61   C     C_2   0.617315 0.987200 0.624984 0.809988
O37   O     O_2   0.580570 0.871403 0.638562 -0.558852
O38   O     O_R   0.620655 0.164704 0.663829 -0.617761
H27   H     H_    0.590913 0.179976 0.703042 0.308894
C62   C     C_2   0.382667 0.487194 0.375010 0.809983
O39   O     O_2   0.419433 0.371423 0.361459 -0.558851
O40   O     O_R   0.379299 0.664669 0.336128 -0.617734
H28   H     H_    0.409041 0.679945 0.296918 0.308904

loop_
_geom_bond_atom_site_label_1
_geom_bond_atom_site_label_2
_ccdc_geom_bond_type
C13   C19   A    
C18   C20   A    
C14   C20   A    
O22   H15   S    
C54   O23   D    
O1    C3    A    
O16   C52   A    
O2    C4    A    
C2    O7    A    
O15   V3    S    
O24   H16   S    
C41   C47   A    
O36   H24   S    
C27   C29   A    
C42   C48   A    
C36   C38   A    
O5    C3    A    
C4    C11   S    
C46   H6    S    
C14   C51   S    
C8    C49   S    
C34   H2    S    
C23   C25   A    
O14   C50   A    
C58   O31   D    
C57   O30   S    
C8    C58   S    
O32   H22   S    
C3    C12   S    
C35   C55   S    
C18   C26   A    
C44   H20   S    
C9    C59   S    
C5    C7    D    
C17   H7    S    
C14   C22   A    
C55   O25   D    
C32   C34   A    
C37   C39   A    
C13   C52   S    
C38   C40   A    
O12   V3    S    
O14   V4    S    
C39   C43   A    
C21   H9    S    
C11   H25   S    
C7    C57   S    
O6    V2    S    
C12   H26   S    
C29   C31   A    
C30   C32   A    
C40   C42   A    
C16   C48   A    
C37   C61   S    
C26   C34   A    
C6    H14   S    
O26   H17   S    
C24   C28   A    
C5    H13   S    
O4    C2    A    
C15   C45   A    
O12   C52   A    
C53   O21   D    
O20   V3    S    
O5    V1    S    
C62   O40   S    
C36   C56   S    
C5    C9    S    
C43   H19   S    
C39   C41   A    
O4    V2    S    
C7    C50   S    
C23   C27   A    
C61   O38   S    
O11   V4    S    
C43   C45   A    
C53   O22   S    
C1    C16   S    
O13   C49   A    
C2    C15   S    
O6    C4    A    
C56   O28   S    
O1    V2    S    
O2    V1    S    
C31   C33   A    
C29   C41   A    
C60   O35   D    
O17   V3    S    
O13   V3    S    
C55   O26   S    
C19   C53   S    
C9    C11   D    
O40   H28   S    
C10   C12   D    
C25   C33   A    
C61   O37   D    
O3    V1    S    
C10   C60   S    
C27   C35   A    
O38   H27   S    
O19   V4    S    
C28   C36   A    
C22   H10   S    
C31   H11   S    
O30   H21   S    
C6    C10   S    
C45   H5    S    
C28   C30   A    
O3    C1    A    
O34   H23   S    
C54   O24   S    
C16   C46   A    
C35   C37   A    
O28   H18   S    
C47   H3    S    
C48   H4    S    
C59   O34   S    
O7    V1    S    
C1    O8    A    
C17   C19   A    
O8    V2    S    
C59   O33   D    
C30   C42   A    
C24   C26   A    
O15   C51   A    
C50   O17   A    
C49   O18   A    
O18   V4    S    
C33   H1    S    
C21   C23   A    
C22   C24   A    
C44   C46   A    
C32   H12   S    
C6    C8    D    
C62   O39   D    
C60   O36   S    
C38   C62   S    
C20   C54   S    
O16   V4    S    
O9    V2    S    
C17   C25   A    
C56   O27   D    
O10   V1    S    
C15   C47   A    
C57   O29   D    
O11   C51   A    
C18   H8    S    
C40   C44   A    
C13   C21   A    
C58   O32   S    
