data_mof_unit_38625.cif
_audit_creation_date              2012-12-11T15:18:10-0500
_audit_creation_method            fapswitch 2.2
_symmetry_space_group_name_H-M    P1
_symmetry_Int_Tables_number       1
_space_group_crystal_system       triclinic
_cell_length_a                    15.75312
_cell_length_b                    15.703875
_cell_length_c                    34.5696
_cell_angle_alpha                 89.771338
_cell_angle_beta                  89.958097
_cell_angle_gamma                 120.224871
_cell_volume                      7389.31530515

loop_
_atom_site_label
_atom_site_type_symbol
_atom_type_description
_atom_site_fract_x
_atom_site_fract_y
_atom_site_fract_z
_atom_type_partial_charge
C1    C     C_R   0.578380 0.441306 0.555173 0.571134
C2    C     C_R   0.493807 0.992103 0.211192 0.334186
C3    C     C_3   0.623010 0.930158 0.090731 -0.367610
C4    C     C_3   0.297376 0.378205 0.091264 -0.364525
C5    C     C_3   0.067137 0.691337 0.089824 -0.367582
C6    C     C_3   0.973150 0.319939 0.671183 -0.381702
C7    C     C_3   0.683578 0.645019 0.673532 -0.383294
C8    C     C_3   0.354119 0.037376 0.673751 -0.383700
C9    C     C_3   0.324623 0.982191 0.169984 -0.383475
C10   C     C_3   0.679026 0.646258 0.160209 -0.382766
C11   C     C_3   0.008643 0.335486 0.168246 -0.380423
C12   C     C_3   0.952815 0.327364 0.837500 -0.319742
C13   C     C_R   0.520904 0.465621 0.202320 0.324705
C14   C     C_3   0.673071 0.622033 0.837811 -0.319894
C15   C     C_3   0.380143 0.053614 0.838098 -0.320154
C16   C     C_3   0.328180 0.953830 0.337203 -0.317267
C17   C     C_3   0.538339 0.591115 0.330521 -0.313396
C18   C     C_3   0.044285 0.374337 0.336625 -0.316789
C19   C     C_R   0.000821 0.497872 0.210245 0.329716
C20   C     C_R   0.993477 0.427884 0.855880 -0.004524
C21   C     C_R   0.572604 0.562823 0.856441 -0.004152
C22   C     C_R   0.438740 0.011921 0.856616 -0.004343
C23   C     C_R   0.429291 0.997579 0.355128 -0.008950
C24   C     C_R   0.548519 0.506413 0.346223 -0.017393
C25   C     C_R   0.001176 0.432194 0.354563 -0.012603
C26   C     C_R   0.016100 0.440924 0.895984 0.272439
C27   C     C_R   0.558410 0.136900 0.555144 0.565248
C28   C     C_R   0.559223 0.573877 0.896384 0.272490
C29   C     C_R   0.427523 0.987113 0.896583 0.272376
C30   C     C_R   0.442692 0.018050 0.395377 0.272381
C31   C     C_R   0.553543 0.493951 0.386715 0.278009
C32   C     C_R   0.981544 0.425670 0.394932 0.265628
C33   C     C_R   0.094799 0.618626 0.887237 -0.169136
C34   C     C_R   0.382078 0.474476 0.887917 -0.168592
C35   C     C_R   0.526465 0.909322 0.887966 -0.168201
C36   C     C_R   0.619968 0.103368 0.385916 -0.182476
C37   C     C_R   0.597022 0.367609 0.373730 -0.197514
C38   C     C_R   0.862787 0.421490 0.555194 0.569294
C39   C     C_R   0.896451 0.517566 0.385676 -0.176231
C40   C     C_R   0.064045 0.605740 0.849162 -0.131607
C41   C     C_R   0.395245 0.455208 0.850096 -0.131301
C42   C     C_R   0.545891 0.942164 0.850102 -0.130821
C43   C     C_R   0.607167 0.075483 0.347529 -0.139747
C44   C     C_R   0.584288 0.374383 0.334409 -0.128339
C45   C     C_R   0.923657 0.532384 0.347131 -0.132311
C46   C     C_R   0.017854 0.512032 0.832475 0.011961
C47   C     C_R   0.488876 0.502186 0.833346 0.012267
C48   C     C_R   0.498963 0.988693 0.833410 0.012363
C49   C     C_R   0.441155 0.577766 0.055088 0.565065
C50   C     C_R   0.513266 0.026595 0.331242 0.010065
C51   C     C_R   0.559643 0.442612 0.320354 0.012029
C52   C     C_R   0.971792 0.486898 0.330657 0.011505
C53   C     C_R   0.076453 0.537578 0.910274 0.007786
C54   C     C_R   0.462739 0.538093 0.910638 0.007619
C55   C     C_R   0.462761 0.925914 0.910738 0.007340
C56   C     C_R   0.538866 0.079756 0.409580 0.015388
C57   C     C_R   0.582662 0.426793 0.399926 0.013328
C58   C     C_R   0.920194 0.460083 0.409324 0.017322
C59   C     C_R   0.605810 0.419643 0.440306 0.570630
C60   C     C_R   0.136579 0.558124 0.055040 0.565878
C61   C     C_R   0.557393 0.134880 0.445882 0.592909
C62   C     C_R   0.865268 0.422934 0.445808 0.597891
C63   C     C_R   0.442857 0.577030 0.946063 0.595382
C64   C     C_R   0.134362 0.557171 0.945986 0.594882
C65   C     C_R   0.423069 0.865977 0.946074 0.593368
C66   C     C_R   0.916160 0.453296 0.592411 0.026259
C67   C     C_R   0.547344 0.461703 0.592786 0.021004
C68   C     C_R   0.537104 0.084453 0.592697 0.026000
C69   C     C_R   0.454235 0.918202 0.091875 0.029540
C70   C     C_R   0.465715 0.538026 0.089643 0.028363
C71   C     C_R   0.421596 0.863054 0.055067 0.566215
C72   C     C_R   0.079473 0.534312 0.091498 0.029879
C73   C     C_R   0.931327 0.384258 0.612715 -0.116433
C74   C     C_R   0.617172 0.544890 0.613289 -0.112213
C75   C     C_R   0.454123 0.071064 0.613294 -0.112007
C76   C     C_R   0.387063 0.937402 0.111275 -0.105566
C77   C     C_R   0.558628 0.596450 0.106555 -0.109199
C78   C     C_R   0.059062 0.447055 0.110905 -0.111739
C79   C     C_R   0.960713 0.398673 0.651309 -0.001859
C80   C     C_R   0.604565 0.556624 0.652459 -0.004209
C81   C     C_R   0.442026 0.046446 0.652501 -0.004694
C82   C     C_R   0.985428 0.493680 0.712256 0.330931
C83   C     C_R   0.400911 0.966903 0.149866 -0.005280
C84   C     C_R   0.581692 0.572740 0.142602 -0.001929
C85   C     C_R   0.025532 0.429210 0.149033 -0.002321
C86   C     C_R   0.975759 0.484526 0.670182 0.046952
C87   C     C_R   0.518867 0.484823 0.671381 0.044623
C88   C     C_R   0.513164 0.032193 0.671308 0.044697
C89   C     C_R   0.485127 0.980007 0.169250 0.044519
C90   C     C_R   0.510939 0.486011 0.161696 0.047951
C91   C     C_R   0.011196 0.499933 0.168220 0.048192
C92   C     C_R   0.971378 0.558556 0.649158 -0.103088
C93   C     C_R   0.508904 0.485473 0.713415 0.334334
C94   C     C_R   0.443853 0.408048 0.650246 -0.103123
C95   C     C_R   0.589425 0.033501 0.650066 -0.103307
C96   C     C_R   0.558019 0.972603 0.149001 -0.101829
C97   C     C_R   0.421200 0.423626 0.143700 -0.098221
C98   C     C_R   0.020162 0.581242 0.147862 -0.101012
C99   C     C_R   0.941524 0.544222 0.610362 -0.017125
C100  C     C_R   0.456929 0.394991 0.611041 -0.019832
C101  C     C_R   0.602884 0.059946 0.610832 -0.017932
C102  C     C_R   0.543734 0.941347 0.110408 -0.016788
C103  C     C_R   0.397215 0.447978 0.107941 -0.015248
C104  C     C_R   0.512808 0.022334 0.713341 0.334849
C105  C     C_R   0.054450 0.599833 0.109574 -0.016424
C106  C     C_R   0.003509 0.506647 0.790148 0.341145
C107  C     C_R   0.494663 0.492073 0.791178 0.341754
C108  C     C_R   0.508191 0.003629 0.791181 0.341914
C109  C     C_R   0.507035 0.012587 0.288947 0.341113
C110  C     C_R   0.543532 0.444682 0.278611 0.334186
C111  C     C_R   0.984128 0.493526 0.288197 0.339727
C112  C     C_3   0.934161 0.625097 0.589795 -0.368598
C113  C     C_3   0.375148 0.308279 0.590257 -0.367662
C114  C     C_3   0.689136 0.064522 0.589924 -0.368215
Cr1   Cr    Cr6+3 0.522350 0.263930 0.500020 1.085097
Cr2   Cr    Cr6+3 0.736070 0.258420 0.500020 1.054384
Cr3   Cr    Cr6+3 0.741580 0.477650 0.500020 1.043509
Cr4   Cr    Cr6+3 0.263930 0.522350 0.000020 1.064366
Cr5   Cr    Cr6+3 0.258420 0.736070 0.000020 1.065920
Cr6   Cr    Cr6+3 0.477650 0.741580 0.000020 1.065447
H1    H     H_    0.915518 0.315702 0.599147 0.132908
H2    H     H_    0.623551 0.985232 0.164184 0.125281
H3    H     H_    0.367647 0.357182 0.158664 0.125632
H4    H     H_    0.006994 0.634070 0.162846 0.125810
H5    H     H_    0.138411 0.693223 0.897924 0.166063
H6    H     H_    0.307598 0.443758 0.898621 0.166313
H7    H     H_    0.556905 0.865343 0.898627 0.166469
H8    H     H_    0.694304 0.148848 0.396443 0.159668
H9    H     H_    0.618832 0.315967 0.383840 0.102824
H10   H     H_    0.851217 0.546397 0.396343 0.149714
H11   H     H_    0.082036 0.670516 0.831933 0.153159
H12   H     H_    0.685236 0.598294 0.599402 0.132811
H13   H     H_    0.330825 0.407808 0.833059 0.152632
H14   H     H_    0.593093 0.925214 0.832962 0.152876
H15   H     H_    0.671863 0.097167 0.329891 0.153584
H16   H     H_    0.593842 0.326126 0.314811 0.156589
H17   H     H_    0.901714 0.575264 0.329533 0.155698
H18   H     H_    0.973018 0.641645 0.561543 0.160048
H19   H     H_    0.855896 0.602674 0.585340 0.156322
H20   H     H_    0.968389 0.694329 0.606812 0.116031
H21   H     H_    0.359190 0.332929 0.562440 0.164019
H22   H     H_    0.395961 0.251527 0.584916 0.156406
H23   H     H_    0.401322 0.086146 0.599477 0.131494
H24   H     H_    0.306244 0.273036 0.607568 0.115607
H25   H     H_    0.664646 0.024399 0.562079 0.160024
H26   H     H_    0.746510 0.142414 0.584636 0.157009
H27   H     H_    0.723236 0.029726 0.607128 0.116492
H28   H     H_    0.641495 0.968537 0.062288 0.160912
H29   H     H_    0.691502 0.962929 0.108108 0.115434
H30   H     H_    0.598216 0.850904 0.086811 0.157713
H31   H     H_    0.305409 0.356585 0.061544 0.161661
H32   H     H_    0.257222 0.309445 0.108660 0.112237
H33   H     H_    0.251628 0.413597 0.090922 0.155104
H34   H     H_    0.319972 0.923488 0.097094 0.136250
H35   H     H_    0.030896 0.672234 0.061096 0.160878
H36   H     H_    0.033358 0.726588 0.106838 0.114711
H37   H     H_    0.146426 0.746262 0.086481 0.155817
H38   H     H_    0.004445 0.231826 0.947390 0.369089
H39   H     H_    0.767174 0.773452 0.946900 0.369012
H40   H     H_    0.228885 0.995810 0.947392 0.369131
H41   H     H_    0.322557 0.934889 0.489937 0.370113
H42   H     H_    0.479414 0.548511 0.480249 0.369795
H43   H     H_    0.065878 0.390176 0.489249 0.371437
H44   H     H_    0.008851 0.343275 0.699851 0.160808
H45   H     H_    0.612317 0.664664 0.092688 0.139545
H46   H     H_    0.900258 0.252335 0.674853 0.141975
H47   H     H_    0.020525 0.302057 0.653206 0.129030
H48   H     H_    0.650664 0.683451 0.688917 0.152336
H49   H     H_    0.720864 0.621554 0.694655 0.165219
H50   H     H_    0.740406 0.698712 0.653339 0.118580
H51   H     H_    0.315367 0.965694 0.689343 0.152534
H52   H     H_    0.377822 0.098464 0.694719 0.164943
H53   H     H_    0.300891 0.040742 0.653647 0.118272
H54   H     H_    0.360344 0.056249 0.183495 0.152939
H55   H     H_    0.268182 0.977549 0.149486 0.120096
H56   H     H_    0.074113 0.394159 0.097102 0.135751
H57   H     H_    0.286430 0.924927 0.192591 0.163503
H58   H     H_    0.687733 0.629638 0.190547 0.169417
H59   H     H_    0.739634 0.649107 0.142776 0.145659
H60   H     H_    0.686698 0.720565 0.160003 0.122865
H61   H     H_    0.972061 0.322561 0.196829 0.161482
H62   H     H_    0.960362 0.271468 0.149758 0.132641
H63   H     H_    0.080014 0.338316 0.172020 0.141790
H64   H     H_    0.874016 0.296626 0.830416 0.182922
H65   H     H_    0.994824 0.333081 0.810865 0.127920
H66   H     H_    0.960445 0.274137 0.856115 0.200430
H67   H     H_    0.985243 0.625223 0.663853 0.125481
H68   H     H_    0.726081 0.683930 0.855964 0.200289
H69   H     H_    0.703395 0.573307 0.831404 0.182786
H70   H     H_    0.667927 0.657396 0.810733 0.128035
H71   H     H_    0.318979 0.045454 0.856511 0.200577
H72   H     H_    0.429187 0.132885 0.831231 0.182395
H73   H     H_    0.344241 0.012552 0.811296 0.128161
H74   H     H_    0.274301 0.958647 0.356249 0.201214
H75   H     H_    0.331384 0.995815 0.310790 0.130374
H76   H     H_    0.300013 0.875374 0.329840 0.183569
H77   H     H_    0.577575 0.657299 0.349012 0.191557
H78   H     H_    0.377138 0.354826 0.665037 0.125091
H79   H     H_    0.572951 0.615466 0.301577 0.130277
H80   H     H_    0.459508 0.568742 0.328458 0.195711
H81   H     H_    0.040901 0.316501 0.356015 0.201193
H82   H     H_    0.001083 0.333866 0.310825 0.128781
H83   H     H_    0.122031 0.424969 0.328318 0.188194
H84   H     H_    0.642087 0.019665 0.664800 0.125371
N1    N     N_R   0.925625 0.428202 0.773531 -0.223636
N2    N     N_R   0.423864 0.922386 0.234461 -0.223143
N3    N     N_R   0.452984 0.458393 0.228238 -0.222762
N4    N     N_R   0.070020 0.495928 0.232908 -0.216726
N5    N     N_R   0.061415 0.573996 0.728715 -0.220496
N6    N     N_R   0.429674 0.483585 0.729610 -0.220125
N7    N     N_R   0.514517 0.944907 0.729866 -0.219830
N8    N     N_R   0.572195 0.070866 0.227305 -0.215933
N9    N     N_R   0.598445 0.458048 0.214931 -0.213094
N10   N     N_R   0.924597 0.500715 0.227029 -0.209305
N11   N     N_R   0.070435 0.580094 0.767017 -0.222460
N12   N     N_R   0.571929 0.490140 0.774864 -0.222881
N13   N     N_R   0.422930 0.487200 0.767857 -0.222422
N14   N     N_R   0.511835 0.935578 0.768163 -0.222354
N15   N     N_R   0.578416 0.081060 0.265560 -0.226386
N16   N     N_R   0.609565 0.447704 0.252547 -0.209443
N17   N     N_R   0.916235 0.498106 0.265377 -0.217292
N18   N     N_R   0.510261 0.082902 0.774511 -0.222352
N19   N     N_R   0.430501 0.932296 0.272664 -0.225227
N20   N     N_R   0.464081 0.448109 0.265722 -0.218070
N21   N     N_R   0.061988 0.494152 0.271196 -0.225429
N22   N     N_R   0.916871 0.421698 0.735266 -0.215084
N23   N     N_R   0.579017 0.487123 0.736646 -0.220049
N24   N     N_R   0.512340 0.091974 0.736243 -0.219725
O1    O     O_R   0.498680 0.159540 0.541860 -0.517631
O2    O     O_R   0.358060 0.532760 0.040030 -0.511961
O3    O     O_R   0.174700 0.641940 0.040030 -0.510533
O4    O     O_R   0.467240 0.825300 0.040030 -0.511144
O5    O     O_R   0.498590 0.161190 0.456930 -0.456532
O6    O     O_R   0.838810 0.337400 0.456930 -0.454410
O7    O     O_R   0.662600 0.501410 0.456930 -0.452420
O8    O     O_R   0.161190 0.498590 0.956930 -0.447379
O9    O     O_R   0.337400 0.838810 0.956930 -0.446658
O10   O     O_R   0.501410 0.662600 0.956930 -0.446718
O11   O     O_R   0.532680 0.359580 0.461300 -0.436808
O12   O     O_R   0.840460 0.339140 0.541860 -0.513704
O13   O     O_R   0.640420 0.173100 0.461300 -0.517540
O14   O     O_R   0.826900 0.467320 0.461300 -0.532503
O15   O     O_R   0.359580 0.532680 0.961300 -0.514215
O16   O     O_R   0.173100 0.640420 0.961300 -0.513333
O17   O     O_R   0.467320 0.826900 0.961300 -0.514036
O18   O     O_3   0.666667 0.333333 0.499990 -0.300757
O19   O     O_3   0.333333 0.666667 0.999990 -0.273243
O20   O     O_2   0.959034 0.371171 0.968812 -0.254475
O21   O     O_2   0.862779 0.263212 0.915889 -0.269960
O22   O     O_3   0.036118 0.287159 0.928676 -0.535095
O23   O     O_R   0.660860 0.501320 0.541860 -0.516512
O24   O     O_2   0.627746 0.588230 0.969279 -0.255057
O25   O     O_2   0.735939 0.598906 0.916559 -0.269595
O26   O     O_3   0.712389 0.749250 0.928169 -0.534855
O27   O     O_2   0.412822 0.040466 0.969548 -0.254152
O28   O     O_2   0.403798 0.139713 0.916914 -0.269371
O29   O     O_3   0.252868 0.965098 0.928641 -0.534902
O30   O     O_2   0.292336 0.023104 0.429454 -0.275643
O31   O     O_2   0.268878 0.859650 0.415395 -0.262335
O32   O     O_3   0.380513 0.955928 0.472960 -0.502590
O33   O     O_2   0.614337 0.658561 0.427954 -0.274702
O34   O     O_R   0.159540 0.498680 0.041860 -0.513978
O35   O     O_2   0.445616 0.579726 0.403744 -0.251032
O36   O     O_3   0.480383 0.500056 0.462267 -0.466521
O37   O     O_2   0.977442 0.270266 0.429319 -0.287586
O38   O     O_2   0.140006 0.411682 0.414440 -0.238450
O39   O     O_3   0.044107 0.426520 0.472307 -0.499800
O40   O     O_R   0.339140 0.840460 0.041860 -0.512072
O41   O     O_R   0.501320 0.660860 0.041860 -0.512391
O42   O     O_R   0.532760 0.358060 0.540030 -0.498188
O43   O     O_R   0.641940 0.174700 0.540030 -0.504951
O44   O     O_R   0.825300 0.467240 0.540030 -0.506325
S1    S     S_3+6 0.964713 0.338479 0.928540 0.023363
S2    S     S_3+6 0.660931 0.625925 0.928812 0.023388
S3    S     S_3+6 0.375893 0.036835 0.929139 0.023908
S4    S     S_3+6 0.341655 0.962401 0.428289 0.030445
S5    S     S_3+6 0.523268 0.561334 0.420219 0.051102
S6    S     S_3+6 0.037566 0.380872 0.427743 0.034555

loop_
_geom_bond_atom_site_label_1
_geom_bond_atom_site_label_2
_ccdc_geom_bond_type
C58   C62   S    
C27   O43   A    
C15   H72   S    
C6    H46   S    
C29   S3    S    
C71   O40   A    
C62   O6    A    
C22   C29   A    
C74   H12   S    
C13   C90   S    
C60   O3    A    
C61   O5    A    
C112  H20   S    
C22   C48   A    
C11   H61   S    
C32   C58   A    
C7    H48   S    
C110  N20   A    
Cr6   O4    S    
C106  N1    A    
C41   H13   S    
C85   C91   A    
C92   H67   S    
C9    H57   S    
C12   H64   S    
C5    C105  S    
C69   C102  A    
O38   S6    D    
C68   C75   A    
C98   H4    S    
C106  N11   A    
C82   N22   A    
N5    N11   A    
N6    N13   A    
C69   C76   A    
C109  N15   A    
C10   H59   S    
C14   C21   S    
Cr4   O2    S    
C114  H27   S    
C64   O8    A    
C80   C87   A    
C96   C102  A    
C44   H16   S    
C53   C64   S    
O37   S6    D    
C57   C59   S    
C54   C63   S    
C60   C72   S    
C77   H45   S    
C4    C103  S    
C46   C106  S    
C14   H68   S    
C113  H22   S    
C17   H80   S    
C111  N17   A    
O22   S1    S    
C13   N9    A    
C49   O2    A    
C69   C71   S    
C35   C42   A    
Cr5   O19   S    
H40   O29   S    
C104  N24   A    
C72   C78   A    
C27   C68   S    
C88   C104  S    
C107  N13   A    
C14   H69   S    
C27   O1    A    
C15   C22   S    
C107  N12   A    
C38   C66   S    
C113  H21   S    
C71   O4    A    
C13   N3    A    
O28   S3    D    
C17   H77   S    
C18   H83   S    
C2    N2    A    
Cr6   O19   S    
C94   C100  A    
Cr2   O43   S    
C110  N16   A    
Cr5   O16   S    
C90   C97   A    
C109  N19   A    
C8    H51   S    
Cr5   O3    S    
C39   C45   A    
C82   N5    A    
C108  N14   A    
C87   C94   A    
C25   C32   A    
C4    H33   S    
C11   H62   S    
C88   C95   A    
C63   O15   A    
C3    H28   S    
C16   H74   S    
C74   C80   A    
C70   C77   A    
C61   O13   A    
C101  C114  S    
C112  H19   S    
C65   O9    A    
C36   H8    S    
C34   C41   A    
C84   C90   A    
C63   O10   A    
C83   C89   A    
C76   C83   A    
C33   H5    S    
C55   C65   S    
N9    N16   A    
C62   O14   A    
O26   S2    S    
N7    N14   A    
C4    H32   S    
C59   O7    A    
O29   S3    S    
C33   C40   A    
C3    H29   S    
O30   S4    D    
C8    C81   S    
C111  N21   A    
C23   C30   A    
C60   O34   A    
C9    H54   S    
C47   C107  S    
Cr3   O23   S    
C33   C53   A    
C114  H26   S    
C28   C54   A    
C70   C103  A    
C75   C81   A    
C23   C50   A    
C1    O42   A    
C29   C55   A    
C52   C111  S    
C24   C31   A    
C95   H84   S    
C82   C86   S    
C39   C58   A    
C30   C56   A    
C50   C109  S    
Cr6   O41   S    
O27   S3    D    
C94   H78   S    
C14   H70   S    
C66   C99   A    
C2    C89   S    
C59   O11   A    
N12   N23   A    
Cr3   O18   S    
C36   C56   A    
N10   N17   A    
C112  H18   S    
N4    N21   A    
C108  N18   A    
C93   N23   A    
C28   S2    S    
Cr4   O34   S    
H42   O36   S    
N2    N19   A    
C34   H6    S    
C12   H66   S    
C12   C20   S    
Cr1   O5    S    
C45   H17   S    
O36   S5    S    
C41   C47   A    
C11   H63   S    
O31   S4    D    
C18   H82   S    
C67   C74   A    
C42   C48   A    
C68   C101  A    
C43   H15   S    
C98   C105  A    
C35   C55   A    
C97   C103  A    
C75   H23   S    
C67   C100  A    
C9    C83   S    
C3    C102  S    
C39   H10   S    
C40   H11   S    
C6    H44   S    
C34   C54   A    
C16   C23   S    
C5    H37   S    
C49   C70   S    
C7    H49   S    
N1    N22   A    
C19   N4    A    
O21   S1    D    
C8    H52   S    
Cr6   O17   S    
C40   C46   A    
C104  N7    A    
C26   C53   A    
C10   H58   S    
C35   H7    S    
Cr3   O44   S    
C32   S6    S    
Cr4   O15   S    
C78   C85   A    
O32   S4    S    
C4    H31   S    
C65   O17   A    
Cr2   O13   S    
C3    H30   S    
H43   O39   S    
Cr4   O19   S    
O35   S5    D    
C21   C28   A    
Cr5   O9    S    
C100  C113  S    
H38   O22   S    
C114  H25   S    
Cr2   O18   S    
C73   C79   A    
C77   C84   A    
C26   S1    S    
C93   N6    A    
C1    O23   A    
C43   C50   A    
C64   O16   A    
N8    N15   A    
C99   C112  S    
C51   C110  S    
C5    H36   S    
C15   H71   S    
Cr2   O12   S    
O39   S6    S    
C2    N8    A    
C45   C52   A    
C113  H24   S    
C96   H2    S    
Cr6   O10   S    
O25   S2    D    
C19   N10   A    
C10   H60   S    
Cr1   O18   S    
C89   C96   A    
C17   C24   S    
C25   C52   A    
O20   S1    D    
C97   H3    S    
C16   H75   S    
C18   C25   S    
Cr3   O14   S    
Cr1   O11   S    
C66   C73   A    
C31   C57   A    
C6    C79   S    
C48   C108  S    
C20   C26   A    
C11   C85   S    
Cr5   O40   S    
C87   C93   S    
C10   C84   S    
C16   H76   S    
C1    C67   S    
C76   H34   S    
C37   H9    S    
C42   H14   S    
C9    H55   S    
C18   H81   S    
Cr1   O42   S    
C78   H56   S    
C91   C98   A    
C5    H35   S    
C44   C51   A    
C31   S5    S    
C37   C57   A    
Cr1   O1    S    
C81   C88   A    
C19   C91   S    
C38   O12   A    
C15   H73   S    
C37   C44   A    
Cr4   O8    S    
N3    N20   A    
O33   S5    D    
C72   C105  A    
C38   O44   A    
N18   N24   A    
C7    H50   S    
Cr2   O6    S    
C12   H65   S    
Cr3   O7    S    
C56   C61   S    
C24   C51   A    
C36   C43   A    
C86   C92   A    
C8    H53   S    
H39   O26   S    
H41   O32   S    
C6    H47   S    
C17   H79   S    
O24   S2    D    
C79   C86   A    
C20   C46   A    
C30   S4    S    
C95   C101  A    
C92   C99   A    
C73   H1    S    
C7    C80   S    
C21   C47   A    
C49   O41   A    
