data_mof_unit_41719.cif
_audit_creation_date              2012-10-26T20:50:49-0400
_audit_creation_method            fapswitch 2.2
_symmetry_space_group_name_H-M    P1
_symmetry_Int_Tables_number       1
_space_group_crystal_system       triclinic
_cell_length_a                    11.097222
_cell_length_b                    10.788375
_cell_length_c                    9.619339
_cell_angle_alpha                 89.510251
_cell_angle_beta                  102.434968
_cell_angle_gamma                 91.263715
_cell_volume                      1124.33856693

loop_
_atom_site_label
_atom_site_type_symbol
_atom_type_description
_atom_site_fract_x
_atom_site_fract_y
_atom_site_fract_z
_atom_type_partial_charge
C1    C     C_R   0.503047 0.262862 0.501244 0.579502
C2    C     C_R   0.415854 0.432607 0.055675 0.082412
C3    C     C_R   0.414967 0.431431 0.908218 0.346749
C4    C     C_R   0.263225 0.502446 0.442367 0.567283
C5    C     C_R   0.590325 0.562374 0.948063 0.060504
C6    C     C_3   0.625080 0.698082 0.948128 0.204071
C7    C     C_3   0.624767 0.698506 0.107954 0.198406
C8    C     C_R   0.501092 0.737272 0.500034 0.590725
C9    C     C_R   0.736468 0.501428 0.557847 0.550593
C10   C     C_2   0.128094 0.500412 0.410847 -0.020186
C11   C     C_2   0.064589 0.537069 0.508855 -0.039309
C12   C     C_R   0.513167 0.129662 0.506133 0.032688
C13   C     C_2   0.870266 0.511486 0.590226 -0.105248
C14   C     C_2   0.930570 0.516272 0.483906 -0.142213
C15   C     C_R   0.451851 0.062233 0.595165 0.026888
C16   C     C_1   0.745310 0.718244 0.908721 0.284506
C17   C     C_1   0.745175 0.722829 0.204553 0.250518
C18   C     C_1   0.124329 0.602159 0.638340 0.275844
C19   C     C_1   0.065873 0.449062 0.274499 0.212606
C20   C     C_1   0.665997 0.130683 0.348911 0.243531
C21   C     C_R   0.587660 0.065998 0.428956 -0.048399
C22   C     C_R   0.585168 0.936194 0.428939 -0.125370
C23   C     C_R   0.508675 0.870577 0.503653 0.053564
C24   C     C_R   0.449320 0.934828 0.593532 0.081088
C25   C     C_3   0.318518 0.926700 0.610577 0.138182
C26   C     C_3   0.321500 0.068295 0.613348 0.116008
C27   C     C_R   0.590659 0.562210 0.095223 0.072601
Cu1   Cu    Cu3+1 0.499990 0.499980 0.640670 1.015527
Cu2   Cu    Cu3+1 0.500010 0.500020 0.359330 1.017436
H1    H     H_    0.879718 0.503559 0.375028 0.177979
H2    H     H_    0.156383 0.872411 0.511761 0.340886
H3    H     H_    0.161816 0.126944 0.519103 0.337953
H4    H     H_    0.314296 0.108822 0.717209 0.115823
H5    H     H_    0.346585 0.379390 0.095549 0.167421
H6    H     H_    0.918717 0.519192 0.700774 0.147696
H7    H     H_    0.641420 0.886847 0.369863 0.183584
H8    H     H_    0.308633 0.882135 0.712355 0.122891
H9    H     H_    0.346695 0.339435 0.737909 0.375661
H10   H     H_    0.451795 0.738492 0.866455 0.335286
H11   H     H_    0.450581 0.736976 0.102894 0.344850
N1    N     N_R   0.500780 0.500930 0.148120 -0.285197
N2    N     N_R   0.500790 0.500890 0.852210 -0.254674
N3    N     N_1   0.839575 0.734067 0.877569 -0.277644
N4    N     N_1   0.839656 0.743425 0.279863 -0.303291
N5    N     N_1   0.171419 0.653825 0.741396 -0.281820
N6    N     N_1   0.016388 0.408205 0.165770 -0.248518
N7    N     N_1   0.728770 0.182547 0.284865 -0.248569
O1    O     O_R   0.500000 0.319640 0.618810 -0.532296
O2    O     O_3   0.534863 0.775423 0.868342 -0.667577
O3    O     O_3   0.533335 0.774984 0.140617 -0.658880
O4    O     O_3   0.239543 0.876734 0.489341 -0.640522
O5    O     O_3   0.243994 0.122187 0.494692 -0.644210
O6    O     O_R   0.500010 0.319680 0.381230 -0.489548
O7    O     O_R   0.320680 0.500000 0.575130 -0.496515
O8    O     O_R   0.320690 0.500040 0.337550 -0.497305
O9    O     O_R   0.499990 0.680320 0.618770 -0.472960
O10   O     O_R   0.500000 0.680360 0.381190 -0.469044
O11   O     O_R   0.679310 0.499960 0.662450 -0.496202
O12   O     O_R   0.679320 0.500000 0.424870 -0.500576
O13   O     O_3   0.321589 0.362104 0.825467 -0.705189

loop_
_geom_bond_atom_site_label_1
_geom_bond_atom_site_label_2
_ccdc_geom_bond_type
C23   C24   A    
C25   O4    S    
C11   C18   S    
C6    C7    S    
Cu1   O11   S    
C8    O10   A    
C22   H7    S    
C27   N1    A    
C26   H4    S    
C12   C15   A    
C10   C19   S    
C5    N2    A    
C4    O7    A    
C3    O13   S    
C2    H5    S    
Cu1   O7    S    
C2    C3    A    
Cu1   O9    S    
C17   N4    T    
C3    N2    A    
C5    C27   A    
C13   C14   D    
C24   C25   S    
C1    O6    A    
C16   N3    T    
C8    O9    A    
C1    C12   S    
Cu2   O6    S    
C14   H1    S    
H9    O13   S    
Cu1   N2    S    
Cu1   Cu2   S    
H10   O2    S    
Cu2   O10   S    
C13   H6    S    
C26   O5    S    
C4    O8    A    
C5    C6    S    
C11   C14   S    
H11   O3    S    
C19   N6    T    
C20   N7    T    
C10   C11   D    
C2    N1    A    
C6    C16   S    
C18   N5    T    
H3    O5    S    
C8    C23   S    
C7    C27   S    
C20   C21   S    
C9    O11   A    
H2    O4    S    
C9    C13   S    
C22   C23   A    
C15   C24   A    
C15   C26   S    
C1    O1    A    
Cu2   O8    S    
Cu2   N1    S    
C25   C26   S    
C21   C22   A    
C4    C10   S    
C12   C21   A    
Cu1   O1    S    
C6    O2    S    
Cu2   O12   S    
C7    O3    S    
C25   H8    S    
C9    O12   A    
C7    C17   S    
