data_mof_unit_17139.cif
_audit_creation_date              2012-12-10T17:13:36-0500
_audit_creation_method            fapswitch 2.2
_symmetry_space_group_name_H-M    P1
_symmetry_Int_Tables_number       1
_space_group_crystal_system       triclinic
_cell_length_a                    27.234699
_cell_length_b                    10.641712
_cell_length_c                    10.02708
_cell_angle_alpha                 90.577521
_cell_angle_beta                  89.582169
_cell_angle_gamma                 90.594786
_cell_volume                      2905.70737653

loop_
_atom_site_label
_atom_site_type_symbol
_atom_type_description
_atom_site_fract_x
_atom_site_fract_y
_atom_site_fract_z
_atom_type_partial_charge
C1    C     C_R   0.501869 0.262662 0.498830 0.818023
C2    C     C_R   0.979654 0.415703 0.622764 -0.013306
C3    C     C_R   0.976131 0.647446 0.623850 0.061782
C4    C     C_R   0.405976 0.499425 0.500661 0.981396
C5    C     C_R   0.952852 0.527989 0.607203 0.069782
C6    C     C_R   0.956113 0.299618 0.595586 -0.343628
C7    C     C_R   0.906981 0.292575 0.556216 0.533481
C8    C     C_R   0.879133 0.403294 0.551361 -0.130464
C9    C     C_R   0.902250 0.520940 0.575402 -0.119207
C10   C     C_R   0.874642 0.631996 0.568015 0.005155
C11   C     C_R   0.824481 0.624047 0.540140 0.501927
C12   C     C_R   0.273082 0.417167 0.538415 0.417666
C13   C     C_R   0.828513 0.400601 0.523119 0.534409
C14   C     C_R   0.723150 0.472694 0.625177 -0.108142
C15   C     C_R   0.672288 0.470197 0.620439 -0.222196
C16   C     C_R   0.495400 0.736841 0.500767 0.943706
C17   C     C_R   0.675618 0.525339 0.385947 -0.207021
C18   C     C_R   0.726788 0.528497 0.391261 -0.098169
C19   C     C_R   0.750419 0.502758 0.511239 0.315928
C20   C     C_R   0.029724 0.422810 0.659273 0.074981
C21   C     C_R   0.054099 0.541083 0.658409 0.079709
C22   C     C_R   0.027680 0.654047 0.642644 0.041652
C23   C     C_R   0.254135 0.537656 0.574554 -0.046298
C24   C     C_R   0.056726 0.315491 0.695485 -0.222276
C25   C     C_R   0.105049 0.772612 0.655911 -0.130999
C26   C     C_R   0.946970 0.756281 0.618906 -0.219571
C27   C     C_R   0.897187 0.748322 0.592241 -0.142741
C28   C     C_R   0.594386 0.499257 0.499774 0.853617
C29   C     C_R   0.054188 0.769478 0.643983 -0.215526
C30   C     C_2   0.474845 0.933780 0.395066 0.534883
C31   C     C_2   0.482849 0.866783 0.504832 -0.340421
C32   C     C_2   0.473241 0.069592 0.415170 -0.444005
C33   C     C_2   0.506574 0.129121 0.491769 0.358262
C34   C     C_R   0.105681 0.545907 0.671168 -0.067455
C35   C     C_2   0.529147 0.570141 0.926002 0.018818
C36   C     C_2   0.534265 0.553230 0.074552 -0.072223
C37   C     C_R   0.183477 0.443191 0.694921 0.589034
C38   C     C_R   0.182632 0.660003 0.663915 0.603101
C39   C     C_R   0.281790 0.643717 0.528739 0.552192
C40   C     C_R   0.332009 0.627235 0.498559 -0.440125
C41   C     C_R   0.323830 0.402081 0.521991 0.337863
C42   C     C_3   0.337637 0.216474 0.629120 0.169450
C43   C     C_3   0.374226 0.109684 0.634150 -0.916850
C44   C     C_3   0.285221 0.862373 0.507706 -0.174784
C45   C     C_R   0.132169 0.436205 0.695469 -0.050992
C46   C     C_3   0.470149 0.956985 0.162819 0.115350
C47   C     C_3   0.472620 0.880826 0.033800 -0.808981
C48   C     C_3   0.218184 0.333358 0.391966 -0.262776
C49   C     C_3   0.586671 0.140220 0.575085 -0.253285
C50   C     C_3   0.439124 0.363280 0.878862 0.218548
C51   C     C_3   0.421415 0.256336 0.967295 -0.934245
C52   C     C_3   0.909305 0.113536 0.424594 0.076861
C53   C     C_3   0.871984 0.034979 0.347206 -0.713304
C54   C     C_R   0.107186 0.322621 0.714637 -0.139741
C55   C     C_R   0.131165 0.660971 0.664902 -0.053366
C56   C     C_R   0.353064 0.508929 0.505123 -0.233957
C57   C     C_R   0.648087 0.497543 0.501174 -0.045468
H1    H     H_    0.123991 0.862574 0.652074 0.182554
H2    H     H_    0.566815 0.591355 0.122463 0.135406
H3    H     H_    0.466802 0.487032 0.104980 0.210751
H4    H     H_    0.126797 0.237596 0.737809 0.188682
H5    H     H_    0.651964 0.447389 0.710399 0.163638
H6    H     H_    0.741537 0.452761 0.717896 0.136056
H7    H     H_    0.975472 0.212043 0.599726 0.142270
H8    H     H_    0.039754 0.224759 0.710909 0.142437
H9    H     H_    0.355232 0.705557 0.469420 0.173030
H10   H     H_    0.300126 0.174570 0.632392 0.214196
H11   H     H_    0.343220 0.276834 0.719498 0.116687
H12   H     H_    0.961223 0.849469 0.637796 0.137997
H13   H     H_    0.412157 0.148194 0.638605 0.255760
H14   H     H_    0.367312 0.052299 0.724374 0.221959
H15   H     H_    0.370576 0.048658 0.544229 0.257548
H16   H     H_    0.310517 0.877973 0.421937 0.143585
H17   H     H_    0.305580 0.862546 0.603694 0.153754
H18   H     H_    0.259765 0.943069 0.511546 0.208675
H19   H     H_    0.503571 0.018156 0.167382 0.163212
H20   H     H_    0.436570 0.015485 0.160430 0.148730
H21   H     H_    0.440204 0.817024 0.026114 0.255083
H22   H     H_    0.473140 0.944761 0.946963 0.209849
H23   H     H_    0.657670 0.546767 0.292988 0.155813
H24   H     H_    0.506590 0.824127 0.031663 0.248189
H25   H     H_    0.244627 0.347982 0.308153 0.167487
H26   H     H_    0.192356 0.413459 0.399573 0.154424
H27   H     H_    0.196158 0.247814 0.368515 0.192647
H28   H     H_    0.580508 0.205966 0.660167 0.186947
H29   H     H_    0.597979 0.192039 0.483763 0.144122
H30   H     H_    0.617571 0.078656 0.602277 0.200501
H31   H     H_    0.434155 0.332370 0.774465 0.196424
H32   H     H_    0.415872 0.446953 0.899654 0.112669
H33   H     H_    0.425820 0.282089 0.074157 0.261977
H34   H     H_    0.876352 0.834366 0.591243 0.194640
H35   H     H_    0.382030 0.235826 0.948078 0.224152
H36   H     H_    0.442942 0.170492 0.945230 0.262835
H37   H     H_    0.937383 0.049781 0.465687 0.132162
H38   H     H_    0.927456 0.178876 0.352491 0.125859
H39   H     H_    0.844920 0.097395 0.299646 0.267427
H40   H     H_    0.890955 0.979339 0.268385 0.191589
H41   H     H_    0.852167 0.969789 0.414971 0.273564
H42   H     H_    0.748019 0.551794 0.303040 0.136415
H43   H     H_    0.037080 0.859207 0.630840 0.133103
H44   H     H_    0.481426 0.910611 0.603383 0.158849
H45   H     H_    0.445075 0.121834 0.363654 0.151967
H46   H     H_    0.550737 0.643865 0.879098 0.096103
N1    N     N_R   0.206723 0.548234 0.645097 -0.327788
N2    N     N_R   0.802614 0.509646 0.520209 -0.365232
N3    N     N_2   0.500520 0.501330 0.852150 0.055388
N4    N     N_2   0.500540 0.501360 0.147810 -0.166431
O1    O     O_R   0.499990 0.319060 0.613040 -0.609117
O2    O     O_R   0.571240 0.499960 0.613080 -0.616521
O3    O     O_R   0.571250 0.500000 0.386950 -0.618450
O4    O     O_2   0.209490 0.347997 0.745864 -0.541435
O5    O     O_3   0.344786 0.284165 0.509646 -0.608661
O6    O     O_3   0.257295 0.750999 0.488283 -0.569870
O7    O     O_3   0.467813 0.873803 0.271661 -0.592413
O8    O     O_3   0.242801 0.314480 0.513255 -0.573203
O9    O     O_3   0.544713 0.064058 0.552574 -0.623745
O10   O     O_3   0.489017 0.388551 0.905205 -0.532781
O11   O     O_3   0.885066 0.176496 0.530858 -0.557713
O12   O     O_2   0.804856 0.290452 0.500679 -0.495179
O13   O     O_2   0.207392 0.766931 0.692092 -0.534231
O14   O     O_2   0.797436 0.729506 0.535411 -0.557846
O15   O     O_R   0.500010 0.319100 0.386900 -0.621659
O16   O     O_R   0.428750 0.500000 0.613050 -0.662170
O17   O     O_R   0.428760 0.500040 0.386920 -0.605564
O18   O     O_R   0.499990 0.680900 0.613100 -0.638185
O19   O     O_R   0.500010 0.680940 0.386960 -0.548739
Zn1   Zn    Zn3+2 0.499990 0.499970 0.650990 0.964406
Zn2   Zn    Zn3+2 0.500010 0.500030 0.349010 0.979358

loop_
_geom_bond_atom_site_label_1
_geom_bond_atom_site_label_2
_ccdc_geom_bond_type
C10   C27   A    
C43   H15   S    
C22   C29   A    
C50   O10   S    
C40   C56   A    
C49   H30   S    
C35   C36   S    
C47   H22   S    
C36   H2    S    
C46   H19   S    
C1    C33   S    
C7    C8    A    
C2    C6    A    
C28   C57   S    
C16   C31   S    
C27   H34   S    
C12   C23   A    
C26   C27   A    
C8    C13   A    
C31   H44   S    
N4    Zn2   S    
C35   H46   S    
C51   H33   S    
C30   O7    S    
C30   C31   D    
C24   C54   A    
C4    O17   A    
C52   H38   S    
C18   C19   A    
C6    H7    S    
C42   O5    S    
C1    O15   A    
C38   N1    A    
O2    Zn1   S    
C38   C55   A    
C20   C24   A    
C8    C9    A    
C39   O6    S    
C41   O5    S    
C11   N2    A    
C43   H14   S    
C52   H37   S    
C9    C10   A    
C50   H31   S    
O17   Zn2   S    
C12   O8    S    
C38   O13   S    
C34   C55   A    
C40   H9    S    
C21   C22   A    
C4    C56   S    
C53   H39   S    
C42   H11   S    
C15   C57   A    
C7    O11   S    
C11   O14   S    
C49   H29   S    
C13   O12   S    
C50   C51   S    
C25   C29   A    
C46   O7    S    
C2    C20   A    
C49   H28   S    
C13   N2    A    
C39   C40   A    
C21   C34   A    
C28   O3    A    
N3    Zn1   S    
C17   H23   S    
C48   H27   S    
C4    O16   A    
C44   H18   S    
C41   C56   A    
C5    C9    A    
C12   C41   A    
C51   H35   S    
C37   N1    A    
C50   H32   S    
O16   Zn1   S    
C23   N1    S    
C17   C18   A    
C34   C45   A    
C44   H17   S    
H3    N4    S    
C24   H8    S    
C51   H36   S    
C48   O8    S    
C19   N2    S    
C45   C54   A    
C43   H13   S    
N3    O10   S    
C42   H10   S    
C28   O2    A    
C32   H45   S    
C2    C5    A    
C42   C43   S    
C37   C45   A    
C52   C53   S    
C25   H1    S    
C16   O18   A    
C46   C47   S    
C33   O9    S    
O19   Zn2   S    
C29   H43   S    
C14   C19   A    
C3    C26   A    
C25   C55   A    
C3    C5    A    
C44   O6    S    
C46   H20   S    
C6    C7    A    
C54   H4    S    
C53   H41   S    
C48   H26   S    
C53   H40   S    
C32   C33   D    
C35   N3    D    
C30   C32   S    
C23   C39   A    
C14   H6    S    
C15   H5    S    
C48   H25   S    
C47   H24   S    
O1    Zn1   S    
O15   Zn2   S    
C44   H16   S    
C37   O4    S    
C10   C11   A    
C1    O1    A    
C49   O9    S    
C20   C21   A    
C18   H42   S    
O3    Zn2   S    
O18   Zn1   S    
C26   H12   S    
C14   C15   A    
C3    C22   A    
C47   H21   S    
C16   O19   A    
C17   C57   A    
C36   N4    D    
C52   O11   S    
