data_mof_unit_22639.cif
_audit_creation_date              2012-12-11T15:43:45-0500
_audit_creation_method            fapswitch 2.2
_symmetry_space_group_name_H-M    P1
_symmetry_Int_Tables_number       1
_space_group_crystal_system       triclinic
_cell_length_a                    14.527524
_cell_length_b                    16.140288
_cell_length_c                    6.926
_cell_angle_alpha                 90.000558
_cell_angle_beta                  98.998283
_cell_angle_gamma                 89.99995
_cell_volume                      1604.01105355

loop_
_atom_site_label
_atom_site_type_symbol
_atom_type_description
_atom_site_fract_x
_atom_site_fract_y
_atom_site_fract_z
_atom_type_partial_charge
O1    O     O_R   0.831700 0.662810 0.581550 -0.522485
O2    O     O_R   0.168300 0.337190 0.418450 -0.522471
O3    O     O_R   0.168300 0.162810 0.418450 -0.522506
O4    O     O_R   0.831700 0.837190 0.581550 -0.522505
O5    O     O_R   0.842890 0.834390 0.255500 -0.554667
O6    O     O_R   0.157110 0.165610 0.744500 -0.554667
O7    O     O_R   0.157110 0.334390 0.744500 -0.554665
O8    O     O_R   0.842890 0.665610 0.255500 -0.554659
O9    O     O_R   0.661690 0.835580 0.024130 -0.542577
O10   O     O_R   0.338310 0.164420 0.975870 -0.542577
O11   O     O_R   0.338310 0.335580 0.975870 -0.542579
O12   O     O_R   0.661690 0.664420 0.024130 -0.542573
C1    C     C_R   0.864621 0.865216 0.430995 0.749482
C2    C     C_R   0.135379 0.134784 0.569005 0.749483
C3    C     C_R   0.135377 0.365215 0.569006 0.749495
C4    C     C_R   0.864622 0.634785 0.430994 0.749505
C5    C     C_R   0.066975 0.064996 0.535004 -0.191940
C6    C     C_R   0.933024 0.935004 0.464996 -0.191941
C7    C     C_R   0.933025 0.564996 0.464992 -0.191916
C8    C     C_R   0.066974 0.435003 0.535008 -0.191932
H1    H     H_    0.017404 0.890140 0.257912 0.146109
H2    H     H_    0.982596 0.109861 0.742087 0.146108
H3    H     H_    0.982588 0.390134 0.742067 0.146095
H4    H     H_    0.017406 0.609855 0.257902 0.146096
C9    C     C_R   0.008416 0.938873 0.360795 -0.335388
C10   C     C_R   0.991584 0.061127 0.639204 -0.335389
C11   C     C_R   0.991578 0.438872 0.639199 -0.335424
C12   C     C_R   0.008417 0.561125 0.360793 -0.335426
O13   O     O_3   0.687240 0.750000 0.366320 -0.373004
O14   O     O_3   0.312760 0.250000 0.633680 -0.373005
V1    V     V_3+5 0.757720 0.750000 0.115230 1.385264
V2    V     V_3+5 0.242280 0.250000 0.884770 1.385259
O15   O     O_R   0.650500 0.664000 0.690740 -0.537725
O16   O     O_R   0.349500 0.336000 0.309260 -0.537726
O17   O     O_R   0.349500 0.164000 0.309260 -0.537729
O18   O     O_R   0.650500 0.836000 0.690740 -0.537728
C13   C     C_R   0.628311 0.635872 0.853327 0.766969
C14   C     C_R   0.371690 0.364127 0.146673 0.766955
C15   C     C_R   0.371689 0.135873 0.146672 0.766956
C16   C     C_R   0.628310 0.864127 0.853328 0.766957
C17   C     C_R   0.074655 0.003506 0.392623 0.477805
C18   C     C_R   0.925345 0.996494 0.607376 0.477808
C19   C     C_R   0.925340 0.503507 0.607368 0.477826
C20   C     C_R   0.074656 0.496492 0.392629 0.477811
V3    V     V_3+5 0.735670 0.750000 0.607790 1.460702
V4    V     V_3+5 0.264330 0.250000 0.392210 1.460707
O19   O     O_3   0.806150 0.750000 0.906560 -0.379068
O20   O     O_3   0.193850 0.250000 0.093440 -0.379064
H5    H     H_    0.435305 0.056904 0.850742 0.155650
H6    H     H_    0.564695 0.943096 0.149258 0.155649
H7    H     H_    0.564696 0.556905 0.149258 0.155651
H8    H     H_    0.435306 0.443094 0.850742 0.155649
C21   C     C_2   0.559302 0.932123 0.843336 -0.324611
C22   C     C_2   0.440697 0.067876 0.156664 -0.324611
C23   C     C_2   0.440698 0.432124 0.156666 -0.324607
C24   C     C_2   0.559303 0.567875 0.843335 -0.324624
C25   C     C_2   0.534276 0.965840 0.005661 -0.124273
C26   C     C_2   0.465724 0.034160 0.994339 -0.124273
C27   C     C_2   0.465725 0.465839 0.994340 -0.124268
C28   C     C_2   0.534277 0.534159 0.005661 -0.124278
H9    H     H_    0.471083 0.044555 0.299733 0.131764
H10   H     H_    0.528917 0.955445 0.700267 0.131764
H11   H     H_    0.528918 0.544553 0.700266 0.131765
H12   H     H_    0.471083 0.455446 0.299734 0.131761
O21   O     O_3   0.152860 0.001737 0.301081 -0.554887
C29   C     C_3   0.126435 0.017646 0.099836 -0.180799
H13   H     H_    0.190438 0.026448 0.033391 0.156238
H14   H     H_    0.084665 0.075567 0.074039 0.125796
H15   H     H_    0.087968 0.964357 0.024377 0.112627
O22   O     O_3   0.847140 0.998263 0.698919 -0.554888
C30   C     C_3   0.873566 0.982355 0.900164 -0.180805
H16   H     H_    0.915338 0.924435 0.925963 0.125793
H17   H     H_    0.809563 0.973551 0.966607 0.156241
H18   H     H_    0.912029 0.035645 0.975623 0.112628
O23   O     O_3   0.847128 0.501742 0.698890 -0.554888
C31   C     C_3   0.873544 0.517574 0.900168 -0.180830
H19   H     H_    0.809538 0.526410 0.966578 0.156243
H20   H     H_    0.915375 0.575453 0.926103 0.125748
H21   H     H_    0.911938 0.464236 0.975547 0.112650
O24   O     O_3   0.152855 0.498245 0.301061 -0.554885
C32   C     C_3   0.126408 0.482378 0.099799 -0.180719
H22   H     H_    0.084473 0.424547 0.073937 0.125614
H23   H     H_    0.190393 0.473428 0.033370 0.156257
H24   H     H_    0.088098 0.535756 0.024384 0.112704

loop_
_geom_bond_atom_site_label_1
_geom_bond_atom_site_label_2
_ccdc_geom_bond_type
C29   H14   S    
C23   C27   D    
O15   V3    S    
O6    V2    S    
C31   H21   S    
C32   H22   S    
O2    V4    S    
C1    C6    S    
C5    C10   A    
O8    V1    S    
C31   H20   S    
C6    C18   A    
C29   H15   S    
C18   O22   S    
O4    C1    A    
C8    C20   A    
C13   C24   S    
C14   C23   S    
O22   C30   S    
O16   V4    S    
H3    C11   S    
O5    C1    A    
O7    C3    A    
C29   H13   S    
C27   C28   S    
O8    C4    A    
V1    O19   S    
V2    O20   S    
C2    C5    S    
C6    C9    A    
C32   H23   S    
C7    C19   A    
O4    V3    S    
V3    O19   S    
C19   O23   S    
C3    C8    S    
V4    O20   S    
C20   O24   S    
C31   H19   S    
C9    C17   A    
C30   H17   S    
C21   C25   D    
C17   O21   S    
C12   C20   A    
O9    C16   A    
O15   C13   A    
H5    C26   S    
C24   C28   D    
O13   V3    S    
O10   C15   A    
O11   C14   A    
O17   C15   A    
O23   C31   S    
C7    C12   A    
H8    C27   S    
O10   V2    S    
O6    C2    A    
C21   H10   S    
O18   C16   A    
C23   H12   S    
C24   H11   S    
O18   V3    S    
O1    C4    A    
O2    C3    A    
O3    C2    A    
C22   H9    S    
O11   V2    S    
C16   C21   S    
O12   V1    S    
H2    C10   S    
C32   H24   S    
C10   C18   A    
C22   C26   D    
H1    C9    S    
O7    V2    S    
O16   C14   A    
H6    C25   S    
O14   V4    S    
H4    C12   S    
O24   C32   S    
C30   H18   S    
C8    C11   A    
O3    V4    S    
C30   H16   S    
O13   V1    S    
O14   V2    S    
O1    V3    S    
C25   C26   S    
C4    C7    S    
C5    C17   A    
O9    V1    S    
C15   C22   S    
C11   C19   A    
O21   C29   S    
O12   C13   A    
H7    C28   S    
O17   V4    S    
O5    V1    S    
