data_mof_unit_23995.cif
_audit_creation_date              2012-12-11T15:23:38-0500
_audit_creation_method            fapswitch 2.2
_symmetry_space_group_name_H-M    P1
_symmetry_Int_Tables_number       1
_space_group_crystal_system       triclinic
_cell_length_a                    6.945803
_cell_length_b                    17.438296
_cell_length_c                    19.437569
_cell_angle_alpha                 109.267914
_cell_angle_beta                  90.152708
_cell_angle_gamma                 90.541918
_cell_volume                      2222.31886847

loop_
_atom_site_label
_atom_site_type_symbol
_atom_type_description
_atom_site_fract_x
_atom_site_fract_y
_atom_site_fract_z
_atom_type_partial_charge
O1    O     O_R   0.505810 0.439670 0.562310 -0.526829
O2    O     O_R   0.169070 0.404920 0.411210 -0.518027
O3    O     O_R   0.005550 0.560330 0.437690 -0.518526
C1    C     C_R   0.339211 0.381974 0.383329 0.832601
O4    O     O_R   0.175650 0.430000 0.560110 -0.550421
O5    O     O_R   0.012170 0.585580 0.587650 -0.541616
C2    C     C_R   0.343859 0.416187 0.582517 0.758403
O6    O     O_R   0.499180 0.414420 0.412350 -0.551228
O7    O     O_3   0.341430 0.551020 0.508860 -0.385912
V1    V     V_3+5 0.063930 0.490540 0.498360 1.528328
O8    O     O_R   0.682850 0.595080 0.588790 -0.537144
C3    C     C_R   0.853142 0.619491 0.615722 0.790332
O9    O     O_R   0.676280 0.570000 0.439890 -0.554609
C4    C     C_R   0.844763 0.582973 0.416874 0.746691
V2    V     V_3+5 0.564760 0.509460 0.501640 1.496357
O10   O     O_3   0.837130 0.448980 0.491140 -0.376222
C5    C     C_R   0.039355 0.883592 0.193946 0.264360
C6    C     C_R   0.919777 0.865131 0.131215 -0.261919
C7    C     C_R   0.795684 0.796933 0.113732 0.378645
C8    C     C_R   0.804211 0.742427 0.154261 -0.132323
C9    C     C_R   0.915131 0.763563 0.219189 -0.154190
C10   C     C_R   0.036928 0.833291 0.238223 -0.062386
C11   C     C_R   0.703744 0.667083 0.131318 0.365281
C12   C     C_R   0.680254 0.622291 0.179195 0.403680
C13   C     C_R   0.776540 0.646859 0.247752 -0.062960
C14   C     C_R   0.901898 0.715670 0.265803 -0.155152
C15   C     C_R   0.010568 0.738028 0.331365 -0.125285
C16   C     C_R   0.150462 0.800904 0.344725 0.379567
C17   C     C_R   0.160018 0.849451 0.299917 0.418455
C18   C     C_R   0.756817 0.602262 0.296993 0.306521
C19   C     C_R   0.856626 0.628615 0.364746 -0.282009
C20   C     C_R   0.976335 0.697804 0.382625 0.400209
C21   C     C_3   0.711768 0.776458 0.774504 0.320298
C22   C     C_3   0.793390 0.777906 0.701572 0.108908
C23   C     C_3   0.869381 0.690476 0.685197 -0.241711
C24   C     C_3   0.789511 0.690245 0.759077 0.332915
C25   C     C_3   0.982154 0.724609 0.798506 -0.289842
C26   C     C_3   0.060802 0.727086 0.724366 0.445243
C27   C     C_3   0.983488 0.813752 0.740564 0.209942
C28   C     C_3   0.902713 0.812035 0.813758 -0.252715
H1    H     H_    0.059722 0.701741 0.837712 0.171512
C29   C     C_3   0.558279 0.273896 0.282417 0.211851
C30   C     C_3   0.471242 0.187844 0.265468 0.287581
C31   C     C_3   0.413903 0.187406 0.187992 -0.310172
C32   C     C_3   0.499763 0.274012 0.206067 0.240703
C33   C     C_3   0.303648 0.311531 0.235910 0.341190
C34   C     C_3   0.216505 0.225486 0.219401 0.325563
C35   C     C_3   0.275830 0.226023 0.296050 0.172494
C36   C     C_3   0.361056 0.312373 0.313295 -0.293660
C37   C     C_R   0.510708 0.112535 0.804578 0.399235
C38   C     C_R   0.419566 0.138945 0.873037 -0.281899
C39   C     C_R   0.323740 0.214734 0.896108 0.260596
C40   C     C_R   0.317484 0.262128 0.849488 0.032073
C41   C     C_R   0.394004 0.232226 0.778437 -0.097008
C42   C     C_R   0.484295 0.155284 0.754484 -0.018190
C43   C     C_R   0.234203 0.339454 0.873046 -0.241925
C44   C     C_R   0.230026 0.388554 0.828615 0.468604
C45   C     C_R   0.298591 0.358241 0.755979 -0.012228
C46   C     C_R   0.378511 0.279119 0.731045 -0.095720
C47   C     C_R   0.439740 0.245903 0.658241 0.002548
C48   C     C_R   0.520296 0.168173 0.634042 -0.247554
C49   C     C_R   0.543943 0.122641 0.681024 0.375797
C50   C     C_R   0.291765 0.405230 0.708285 0.306733
C51   C     C_R   0.351081 0.370179 0.634546 -0.269851
C52   C     C_R   0.413472 0.289296 0.609316 0.386617
H2    H     H_    0.172200 0.363191 0.926933 0.177846
H3    H     H_    0.566054 0.142306 0.577931 0.159746
O11   O     O_R   0.271890 0.085690 0.087580 -0.548150
O12   O     O_R   0.595690 0.070020 0.939870 -0.535040
O13   O     O_R   0.758900 0.914390 0.912370 -0.531327
C53   C     C_R   0.427197 0.086373 0.919518 0.773115
O14   O     O_R   0.602020 0.095100 0.088770 -0.535427
O15   O     O_R   0.765280 0.939660 0.062330 -0.530793
C54   C     C_R   0.432543 0.117914 0.117089 0.777646
O16   O     O_R   0.265520 0.060430 0.937620 -0.541174
O17   O     O_3   0.429560 0.949050 0.991100 -0.373041
V3    V     V_3+5 0.707160 0.009450 0.001650 1.494366
O18   O     O_R   0.094540 0.929890 0.060190 -0.574245
C55   C     C_R   0.926396 0.916017 0.082835 0.726519
O19   O     O_R   0.088200 0.904800 0.911290 -0.525173
C56   C     C_R   0.918121 0.881445 0.883830 0.803366
V4    V     V_3+5 0.206300 0.990390 0.998440 1.448693
O20   O     O_3   0.934030 0.050940 0.008900 -0.375092
O21   O     O_3   0.145264 0.954774 0.216812 -0.629133
H4    H     H_    0.224193 0.957720 0.175628 0.283177
O22   O     O_3   0.526910 0.800209 0.800811 -0.593034
H5    H     H_    0.509689 0.854998 0.796938 0.319669
O23   O     O_3   0.684167 0.625843 0.768679 -0.606975
H6    H     H_    0.654715 0.642998 0.821433 0.311970
O24   O     O_3   0.245751 0.699233 0.698682 -0.524512
C57   C     C_3   0.295627 0.727935 0.641166 -0.031334
H7    H     H_    0.341403 0.792459 0.662763 0.176729
H8    H     H_    0.177693 0.720331 0.600650 0.091713
H9    H     H_    0.419261 0.693161 0.611807 0.186296
O25   O     O_3   0.085302 0.880323 0.733444 -0.647529
H10   H     H_    0.057124 0.880909 0.683647 0.292453
O26   O     O_3   0.551902 0.119296 0.277483 -0.563513
C58   C     C_3   0.603260 0.136895 0.351496 -0.227330
H11   H     H_    0.543447 0.194375 0.389096 0.159442
H12   H     H_    0.762265 0.140032 0.357169 0.162220
H13   H     H_    0.551631 0.086412 0.369743 0.178010
O27   O     O_3   0.740717 0.299582 0.312443 -0.597533
H14   H     H_    0.740176 0.293769 0.361401 0.309173
O28   O     O_3   0.620156 0.298588 0.159558 -0.631261
H15   H     H_    0.677046 0.351167 0.190103 0.322415
O29   O     O_3   0.218317 0.379742 0.224881 -0.535543
C59   C     C_3   0.166381 0.361206 0.151056 -0.113983
H16   H     H_    0.039068 0.319930 0.137307 0.191055
H17   H     H_    0.287435 0.334774 0.113799 0.144713
H18   H     H_    0.125607 0.418353 0.141740 0.145269
O30   O     O_3   0.036771 0.200811 0.184966 -0.532837
C60   C     C_3   0.973366 0.130291 0.198663 -0.000160
H19   H     H_    0.887474 0.147659 0.248842 0.191584
H20   H     H_    0.091781 0.089996 0.203171 0.097071
H21   H     H_    0.883374 0.093522 0.153150 0.159231
O31   O     O_3   0.671591 0.782538 0.054744 -0.540974
C61   C     C_3   0.486152 0.809641 0.080711 -0.081587
H22   H     H_    0.488447 0.874458 0.116062 0.096182
H23   H     H_    0.421109 0.771487 0.110575 0.123087
H24   H     H_    0.391429 0.804445 0.033327 0.153390
O32   O     O_3   0.157824 0.203346 0.344401 -0.652419
H25   H     H_    0.171446 0.143755 0.331487 0.307463
O33   O     O_3   0.620548 0.042914 0.786566 -0.536124
C62   C     C_3   0.815933 0.066282 0.801219 -0.126562
H26   H     H_    0.874301 0.092120 0.760290 0.147566
H27   H     H_    0.900350 0.011695 0.797928 0.174229
H28   H     H_    0.838692 0.110638 0.856969 0.121036
O34   O     O_3   0.239730 0.245599 0.964151 -0.656662
H29   H     H_    0.279616 0.214153 0.995671 0.282689
O35   O     O_3   0.141474 0.463309 0.854750 -0.527519
C63   C     C_3   0.267816 0.518871 0.903944 -0.138806
H30   H     H_    0.200960 0.579772 0.921349 0.156240
H31   H     H_    0.407326 0.523949 0.877585 0.151541
H32   H     H_    0.292656 0.502210 0.953760 0.115413
O36   O     O_3   0.226360 0.484340 0.735157 -0.594952
H33   H     H_    0.248178 0.513133 0.699732 0.309674
O37   O     O_3   0.438902 0.250671 0.535447 -0.569951
C64   C     C_3   0.263054 0.211679 0.506260 -0.257714
H34   H     H_    0.163599 0.255773 0.495119 0.178983
H35   H     H_    0.190413 0.181472 0.541763 0.136822
H36   H     H_    0.292118 0.162725 0.454448 0.181398
O38   O     O_3   0.617073 0.044914 0.654927 -0.618493
H37   H     H_    0.650715 0.031558 0.602762 0.286478
O39   O     O_3   0.622607 0.636399 0.062336 -0.535147
C65   C     C_3   0.770615 0.603629 0.011471 -0.165755
H38   H     H_    0.862104 0.652103 0.002711 0.160043
H39   H     H_    0.703609 0.568914 0.958344 0.153317
H40   H     H_    0.863747 0.561043 0.028092 0.096131
O40   O     O_3   0.547255 0.558936 0.161195 -0.514655
C66   C     C_3   0.633262 0.487195 0.115566 -0.088405
H41   H     H_    0.553573 0.434669 0.121827 0.175086
H42   H     H_    0.787038 0.481161 0.129457 0.096919
H43   H     H_    0.617841 0.482695 0.057607 0.129835
O41   O     O_3   0.640372 0.533494 0.277549 -0.607297
H44   H     H_    0.678273 0.497180 0.304893 0.295505
O42   O     O_3   0.059118 0.726310 0.451438 -0.542759
C67   C     C_3   0.933369 0.783042 0.497959 -0.163535
H45   H     H_    0.799465 0.752581 0.507393 0.130542
H46   H     H_    0.897777 0.833091 0.476494 0.137756
H47   H     H_    0.005821 0.811127 0.551331 0.163713
O43   O     O_3   0.276914 0.818212 0.403206 -0.518729
C68   C     C_3   0.428410 0.761583 0.384928 -0.109302
H48   H     H_    0.378873 0.700121 0.382956 0.170986
H49   H     H_    0.541503 0.781823 0.427619 0.132074
H50   H     H_    0.495909 0.757383 0.332054 0.084082
O44   O     O_3   0.285014 0.915690 0.319759 -0.512749
C69   C     C_3   0.467479 0.892794 0.287676 -0.129440
H51   H     H_    0.518996 0.939891 0.265005 0.175367
H52   H     H_    0.469131 0.833385 0.242523 0.064855
H53   H     H_    0.572101 0.891045 0.330358 0.142914
O45   O     O_3   0.700295 0.807011 0.651545 -0.669888
H54   H     H_    0.675817 0.865195 0.678069 0.328167

loop_
_geom_bond_atom_site_label_1
_geom_bond_atom_site_label_2
_ccdc_geom_bond_type
C9    C14   A    
C67   H45   S    
C10   C17   A    
C41   C42   A    
O12   V3    S    
O25   H10   S    
C4    C19   S    
C1    O6    A    
C63   H32   S    
O34   H29   S    
C60   H20   S    
O26   C58   S    
C39   O34   S    
O33   C62   S    
C69   H52   S    
C32   C33   S    
C24   O23   S    
C33   C36   S    
C14   C15   A    
O14   V3    S    
C9    C10   A    
C16   C17   A    
C6    C7    A    
C25   C28   S    
C61   H23   S    
O5    C3    A    
C26   C27   S    
C43   H2    S    
O29   C59   S    
V3    O20   S    
O11   C54   A    
V2    O10   S    
C42   C49   A    
C13   C18   A    
C21   C24   S    
C43   C44   A    
C22   C23   S    
O12   C53   A    
O13   C56   A    
O18   V4    S    
C60   H19   S    
C20   O42   S    
O8    V2    S    
O30   C60   S    
C6    C55   S    
C66   H43   S    
C59   H16   S    
O1    V2    S    
O7    V1    S    
C31   C34   S    
C52   O37   S    
C46   C47   A    
C67   H46   S    
O1    C2    A    
O9    C4    A    
O13   V3    S    
C25   H1    S    
C59   H17   S    
C48   C49   A    
C38   C53   S    
C49   O38   S    
C29   O27   S    
O28   H15   S    
C65   H39   S    
C16   O43   S    
C65   H38   S    
C69   H53   S    
C68   H49   S    
C41   C46   A    
C21   C28   S    
C37   O33   S    
C22   C27   S    
C44   O35   S    
O36   H33   S    
C23   C26   S    
C12   C13   A    
O19   V4    S    
C64   H34   S    
C61   H24   S    
O17   V4    S    
C69   H51   S    
O4    C2    A    
O18   C55   A    
O39   C65   S    
C37   C38   A    
C45   C46   A    
C40   C41   A    
C38   C39   A    
C47   C48   A    
C23   C24   S    
C50   O36   S    
C17   O44   S    
O2    C1    A    
C21   O22   S    
C25   C26   S    
C32   O28   S    
C57   H8    S    
C68   H50   S    
C48   H3    S    
C34   C35   S    
C8    C11   A    
C11   C12   A    
C37   C42   A    
C8    C9    A    
C5    C6    A    
O15   C55   A    
O21   H4    S    
C3    C23   S    
C31   C54   S    
O45   H54   S    
C27   O25   S    
O32   H25   S    
O3    C4    A    
C64   H35   S    
C62   H28   S    
O14   C54   A    
C35   C36   S    
C47   C52   A    
V4    O20   S    
C67   H47   S    
C58   H12   S    
O9    V2    S    
C30   C31   S    
O44   C69   S    
C59   H18   S    
C66   H42   S    
C11   O39   S    
C29   C30   S    
C63   H30   S    
O2    V1    S    
C57   H7    S    
C65   H40   S    
C39   C40   A    
C62   H27   S    
C68   H48   S    
C30   C35   S    
C40   C43   A    
C45   C50   A    
C33   C34   S    
O42   C67   S    
C15   C20   A    
O22   H5    S    
C28   C56   S    
C19   C20   A    
C31   C32   S    
C30   O26   S    
O19   C56   A    
C63   H31   S    
C64   H36   S    
O5    V1    S    
O8    C3    A    
O16   V4    S    
O6    V2    S    
C58   H13   S    
O37   C64   S    
C26   O24   S    
C5    C10   A    
C1    C36   S    
C5    O21   S    
O11   V4    S    
C51   C52   A    
C7    C8    A    
O35   C63   S    
C13   C14   A    
O4    V1    S    
O3    V1    S    
O43   C68   S    
C61   H22   S    
C57   H9    S    
C53   O16   A    
O17   V3    S    
O24   C57   S    
C18   C19   A    
C7    O31   S    
C34   O30   S    
C33   O29   S    
C21   C22   S    
O31   C61   S    
O7    V2    S    
O27   H14   S    
C2    C51   S    
C12   O40   S    
C29   C36   S    
C50   C51   A    
C27   C28   S    
O41   H44   S    
C18   O41   S    
O23   H6    S    
C24   C25   S    
C58   H11   S    
C15   C16   A    
O38   H37   S    
O15   V3    S    
C66   H41   S    
V1    O10   S    
C35   O32   S    
C44   C45   A    
O40   C66   S    
C29   C32   S    
C60   H21   S    
C22   O45   S    
C62   H26   S    
