data_mof_unit_51528.cif
_audit_creation_date              2012-12-10T17:15:11-0500
_audit_creation_method            fapswitch 2.2
_symmetry_space_group_name_H-M    P1
_symmetry_Int_Tables_number       1
_space_group_crystal_system       triclinic
_cell_length_a                    10.105057
_cell_length_b                    10.688833
_cell_length_c                    12.828025
_cell_angle_alpha                 92.021969
_cell_angle_beta                  91.126468
_cell_angle_gamma                 95.282758
_cell_volume                      1378.46153736

loop_
_atom_site_label
_atom_site_type_symbol
_atom_type_description
_atom_site_fract_x
_atom_site_fract_y
_atom_site_fract_z
_atom_type_partial_charge
C1    C     C_R   0.443897 0.266416 0.496582 0.875302
C2    C     C_R   0.607555 0.371131 0.035377 0.192407
C3    C     C_R   0.391295 0.614269 0.855604 0.041872
C4    C     C_R   0.608635 0.385639 0.144320 0.038011
C5    C     C_R   0.522973 0.435338 0.868185 -0.300396
C6    C     C_R   0.476730 0.564422 0.131738 -0.299984
C7    C     C_R   0.532742 0.450832 0.975637 0.068882
C8    C     C_R   0.466831 0.548825 0.024297 0.067675
C9    C     C_2   0.408766 0.132784 0.508728 -0.082415
C10   C     C_2   0.583988 0.868711 0.529906 -0.074874
C11   C     C_2   0.495800 0.069401 0.560723 -0.169733
C12   C     C_R   0.554865 0.733869 0.510466 0.874276
C13   C     C_2   0.482319 0.933913 0.557874 -0.143257
C14   C     C_3   0.314564 0.730091 0.014235 -0.394430
C15   C     C_3   0.404402 0.851009 0.037536 -0.867171
C16   C     C_3   0.684903 0.269515 0.985593 -0.394978
C17   C     C_3   0.594851 0.148855 0.961785 -0.871709
C18   C     C_2   0.070896 0.489956 0.508708 -0.140232
C19   C     C_2   0.929119 0.510149 0.491379 -0.135777
C20   C     C_R   0.474255 0.507043 0.698519 0.882706
C21   C     C_R   0.525737 0.492946 0.301467 0.892300
C22   C     C_R   0.541973 0.482291 0.190812 -0.129886
C23   C     C_R   0.457937 0.517612 0.809129 -0.124549
C24   C     C_R   0.392057 0.628545 0.964539 0.190124
H1    H     H_    0.431534 0.639268 0.172362 0.175354
H2    H     H_    0.750914 0.345201 0.248997 0.209338
H3    H     H_    0.398512 0.743634 0.742553 0.186051
H4    H     H_    0.249582 0.655356 0.750648 0.208706
H5    H     H_    0.487570 0.834421 0.091582 0.255839
H6    H     H_    0.446026 0.887701 0.963931 0.273293
H7    H     H_    0.345802 0.923028 0.074108 0.250020
H8    H     H_    0.231472 0.752245 0.962139 0.224993
H9    H     H_    0.264273 0.697181 0.085694 0.187998
H10   H     H_    0.552924 0.111956 0.035200 0.273459
H11   H     H_    0.511914 0.165783 0.907661 0.255800
H12   H     H_    0.568251 0.360567 0.827530 0.172554
H13   H     H_    0.653364 0.076843 0.925112 0.250862
H14   H     H_    0.735511 0.302610 0.914327 0.187333
H15   H     H_    0.767722 0.246908 0.037742 0.225177
H16   H     H_    0.781899 0.863365 0.498879 0.191399
H17   H     H_    0.711928 0.986089 0.451990 0.192393
H18   H     H_    0.242506 0.130908 0.414313 0.193628
H19   H     H_    0.222879 0.049727 0.523436 0.185215
H20   H     H_    0.383164 0.887576 0.567611 0.172474
H21   H     H_    0.587177 0.116589 0.595031 0.182212
H22   H     H_    0.901307 0.576884 0.434889 0.160962
H23   H     H_    0.098717 0.423292 0.565254 0.163677
H24   H     H_    0.866885 0.386830 0.595606 0.162905
H25   H     H_    0.133097 0.613093 0.404336 0.165042
H26   H     H_    0.602251 0.256621 0.257671 0.192084
N1    N     N_2   0.162330 0.550370 0.457540 -0.195170
N2    N     N_2   0.837670 0.449630 0.542460 -0.194211
N3    N     N_3   0.671371 0.297543 0.206422 -0.467576
N4    N     N_3   0.329044 0.702702 0.793518 -0.468027
N5    N     N_3   0.715535 0.929918 0.516919 -0.460912
N6    N     N_3   0.288098 0.070194 0.462789 -0.455247
O1    O     O_R   0.567930 0.307680 0.508550 -0.618709
O2    O     O_R   0.432070 0.692320 0.491450 -0.615956
O3    O     O_R   0.351090 0.340020 0.481290 -0.609161
O4    O     O_R   0.648910 0.659980 0.518710 -0.605374
O5    O     O_R   0.590490 0.486480 0.665020 -0.606271
O6    O     O_R   0.409510 0.513520 0.334980 -0.602610
O7    O     O_R   0.373660 0.518820 0.637760 -0.626966
O8    O     O_R   0.626340 0.481180 0.362240 -0.623140
Zn1   Zn    Zn3+2 0.644780 0.478400 0.518200 0.928269
Zn2   Zn    Zn3+2 0.355220 0.521600 0.481800 0.928127

loop_
_geom_bond_atom_site_label_1
_geom_bond_atom_site_label_2
_ccdc_geom_bond_type
C18   N1    D    
C2    C4    A    
C5    H12   S    
C15   H7    S    
C1    O1    A    
C4    N3    S    
C4    C22   A    
C3    C23   A    
C2    C7    A    
C5    C23   A    
C20   C23   S    
H24   N2    S    
H16   N5    S    
C12   O2    A    
C18   H23   S    
C14   H9    S    
C3    C24   A    
H3    N4    S    
C1    C9    S    
C7    C8    A    
C9    N6    S    
C17   H13   S    
C21   C22   S    
O8    Zn1   S    
H18   N6    S    
C10   N5    S    
C9    C11   D    
C21   O6    A    
C19   H22   S    
C10   C12   S    
C20   O7    A    
C8    C24   A    
O4    Zn1   S    
C15   H5    S    
C1    O3    A    
O3    Zn2   S    
C3    N4    S    
O7    Zn2   S    
H26   N3    S    
C11   H21   S    
C17   H10   S    
O6    Zn2   S    
C16   H15   S    
C6    H1    S    
H2    N3    S    
O5    Zn1   S    
H19   N6    S    
C11   C13   S    
C2    C16   S    
C15   H6    S    
C18   C19   S    
H25   N1    S    
C14   C24   S    
C20   O5    A    
C5    C7    A    
H4    N4    S    
C14   C15   S    
H17   N5    S    
C21   O8    A    
C6    C8    A    
C6    C22   A    
C17   H11   S    
C16   H14   S    
C19   N2    D    
O2    Zn2   S    
C13   H20   S    
N2    Zn1   S    
N1    Zn2   S    
C14   H8    S    
C16   C17   S    
O1    Zn1   S    
C10   C13   D    
C12   O4    A    
