data_mof_unit_43404.cif
_audit_creation_date              2012-12-11T16:29:30-0500
_audit_creation_method            fapswitch 2.2
_symmetry_space_group_name_H-M    P1
_symmetry_Int_Tables_number       1
_space_group_crystal_system       triclinic
_cell_length_a                    6.941817
_cell_length_b                    17.282072
_cell_length_c                    18.857088
_cell_angle_alpha                 106.138871
_cell_angle_beta                  90.375913
_cell_angle_gamma                 90.77784
_cell_volume                      2172.7855167

loop_
_atom_site_label
_atom_site_type_symbol
_atom_type_description
_atom_site_fract_x
_atom_site_fract_y
_atom_site_fract_z
_atom_type_partial_charge
O1    O     O_R   0.494360 0.415680 0.413760 -0.546812
O2    O     O_R   0.818810 0.432910 0.557230 -0.537798
O3    O     O_R   0.994290 0.584320 0.586240 -0.543768
C1    C     C_R   0.650203 0.415963 0.580655 0.660413
O4    O     O_R   0.823740 0.406440 0.412520 -0.522052
O5    O     O_R   0.999250 0.557660 0.440500 -0.475074
C2    C     C_R   0.653789 0.384111 0.384500 0.818622
O6    O     O_R   0.489400 0.442340 0.559500 -0.539949
O7    O     O_3   0.662500 0.549650 0.509350 -0.335674
V1    V     V_3+5 0.935340 0.490790 0.498270 1.533345
O8    O     O_R   0.329270 0.567090 0.442770 -0.521270
C3    C     C_R   0.161261 0.582212 0.417797 0.856877
O9    O     O_R   0.324340 0.593560 0.587480 -0.531447
C4    C     C_R   0.157278 0.616612 0.615437 0.750255
V2    V     V_3+5 0.435970 0.509210 0.501730 1.522868
O10   O     O_3   0.158940 0.450350 0.490650 -0.388049
H1    H     H_    0.633482 0.799228 0.598211 0.203195
C5    C     C_R   0.412268 0.626115 0.743098 -0.173827
C6    C     C_R   0.536044 0.629625 0.802281 -0.127872
C7    C     C_R   0.520838 0.691196 0.867053 -0.126323
C8    C     C_R   0.380515 0.749296 0.873349 -0.157232
C9    C     C_R   0.257481 0.749705 0.813110 0.119698
C10   C     C_R   0.274890 0.687001 0.745773 0.077368
C11   C     C_R   0.108364 0.807046 0.821093 -0.103062
C12   C     C_R   0.966279 0.794832 0.763753 -0.050339
C13   C     C_R   0.010931 0.746164 0.691989 -0.005108
C14   C     C_R   0.153463 0.685964 0.683963 -0.123408
C15   C     C_R   0.779709 0.828783 0.774465 -0.257393
C16   C     C_R   0.655902 0.824070 0.715122 0.616185
C17   C     C_R   0.720622 0.792352 0.643880 -0.253502
C18   C     C_R   0.903158 0.758454 0.631586 0.350077
H2    H     H_    0.425726 0.573833 0.696580 0.117027
H3    H     H_    0.641436 0.583052 0.798414 0.112664
H4    H     H_    0.613918 0.692412 0.913655 0.113852
H5    H     H_    0.365352 0.791210 0.927273 0.116760
H6    H     H_    0.718750 0.854984 0.827723 0.185656
C19   C     C_1   0.112859 0.863389 0.132185 -0.218295
C20   C     C_1   0.120474 0.820390 0.175365 0.000337
C21   C     C_1   0.129724 0.769583 0.226737 0.010030
C22   C     C_1   0.137530 0.726805 0.270108 0.018265
C23   C     C_1   0.146631 0.676130 0.321585 0.058099
C24   C     C_1   0.153832 0.633494 0.365080 -0.040281
C25   C     C_1   0.642167 0.364078 0.632724 -0.211439
C26   C     C_1   0.637833 0.321534 0.676320 -0.000811
C27   C     C_1   0.633989 0.271323 0.728229 0.005475
C28   C     C_1   0.631026 0.229014 0.772045 0.011328
C29   C     C_1   0.627196 0.178768 0.823926 0.018146
C30   C     C_1   0.622889 0.136156 0.867467 -0.190206
H7    H     H_    0.364951 0.146199 0.436987 0.127048
C31   C     C_R   0.782116 0.402504 0.241337 0.577859
C32   C     C_R   0.850672 0.410693 0.174454 -0.169463
C33   C     C_R   0.846219 0.345688 0.111716 -0.223448
C34   C     C_R   0.771717 0.271683 0.114893 -0.140638
C35   C     C_R   0.702724 0.260499 0.181872 0.012906
C36   C     C_R   0.709775 0.326946 0.247108 -0.044223
C37   C     C_R   0.623257 0.185015 0.183816 -0.152737
C38   C     C_R   0.552024 0.175521 0.251263 0.078859
C39   C     C_R   0.561896 0.240997 0.316825 0.053982
C40   C     C_R   0.641168 0.316668 0.315099 -0.194535
C41   C     C_R   0.473846 0.100718 0.255187 -0.148710
C42   C     C_R   0.406119 0.090779 0.321502 -0.111239
C43   C     C_R   0.416447 0.154412 0.385457 -0.102677
C44   C     C_R   0.494117 0.228544 0.383566 -0.147200
H8    H     H_    0.905815 0.468464 0.171089 0.143603
H9    H     H_    0.898449 0.352932 0.059931 0.144148
H10   H     H_    0.767659 0.223687 0.063903 0.117557
H11   H     H_    0.465329 0.048823 0.207347 0.107820
H12   H     H_    0.346576 0.033152 0.323346 0.129285
H13   H     H_    0.501039 0.275576 0.435189 0.093393
O11   O     O_R   0.775690 0.057750 0.940570 -0.522883
O12   O     O_R   0.441200 0.093570 0.087490 -0.536307
O13   O     O_R   0.265840 0.942320 0.059480 -0.531116
C45   C     C_R   0.611129 0.116382 0.115202 0.688111
O14   O     O_R   0.446270 0.067110 0.942790 -0.519433
O15   O     O_R   0.270950 0.915660 0.913750 -0.522481
C46   C     C_R   0.614879 0.084149 0.919436 0.733402
O16   O     O_R   0.770580 0.084400 0.086300 -0.534713
O17   O     O_3   0.602640 0.950400 0.990690 -0.369299
V3    V     V_3+5 0.329740 0.009200 0.001730 1.443177
O18   O     O_R   0.940900 0.906360 0.912450 -0.552065
C47   C     C_R   0.107233 0.880775 0.886358 0.721347
O19   O     O_R   0.935830 0.932820 0.057160 -0.525662
C48   C     C_R   0.104332 0.915746 0.080480 0.701452
V4    V     V_3+5 0.829130 0.990680 0.998180 1.415647
O20   O     O_3   0.106100 0.049590 0.009310 -0.356355
F1    F     F_    0.782868 0.470133 0.298922 -0.715919
F2    F     F_    0.478781 0.857164 0.726647 -0.660072
S1    S     S_3+6 0.011443 0.764670 0.548878 0.012695
O21   O     O_2   0.215164 0.735669 0.541568 -0.335558
O22   O     O_2   0.890781 0.717349 0.484655 -0.359629
O23   O     O_3   0.014790 0.861872 0.548343 -0.467512
H14   H     H_    0.882518 0.872602 0.533893 0.346033

loop_
_geom_bond_atom_site_label_1
_geom_bond_atom_site_label_2
_ccdc_geom_bond_type
C36   C40   A    
C23   C24   T    
C30   C46   S    
C6    C7    A    
C1    O6    A    
O12   V3    S    
C34   C35   A    
C26   C27   S    
C12   C15   A    
C13   C14   A    
C16   C17   A    
O14   C46   A    
H7    C43   S    
C15   C16   A    
O13   V3    S    
O5    C3    A    
C17   C18   A    
V2    O10   S    
C37   C38   A    
C5    C6    A    
C3    C24   S    
C35   C36   A    
O8    V2    S    
C44   H13   S    
C41   H11   S    
O1    V2    S    
C10   C14   A    
C4    C14   S    
O11   V4    S    
O7    V1    S    
O18   V4    S    
C7    H4    S    
S1    O21   D    
C13   C18   A    
O9    C4    A    
H1    C17   S    
C2    C40   S    
C35   C37   A    
C5    C10   A    
C11   C12   A    
C6    H3    S    
O23   H14   S    
O4    C2    A    
O17   V3    S    
O15   C47   A    
C38   C41   A    
O16   V4    S    
C39   C40   A    
C27   C28   T    
C32   C33   A    
C41   C42   A    
O2    C1    A    
C11   C47   S    
C19   C20   T    
C29   C30   T    
S1    O23   S    
C43   C44   A    
C31   C32   A    
V4    O20   S    
C34   H10   S    
O3    C4    A    
C22   C23   S    
S1    O22   D    
O6    V2    S    
O19   V4    S    
O14   V3    S    
O9    V2    S    
C25   C26   T    
O11   C46   A    
C9    C11   A    
C5    H2    S    
O2    V1    S    
V3    O20   S    
C33   C34   A    
O12   C45   A    
C39   C44   A    
C28   C29   S    
C37   C45   S    
O1    C2    A    
C32   H8    S    
O18   C47   A    
O5    V1    S    
O8    C3    A    
C8    H5    S    
C1    C25   S    
C31   C36   A    
C12   C13   A    
O4    V1    S    
O3    V1    S    
V1    O10   S    
C42   H12   S    
C38   C39   A    
C20   C21   S    
O7    V2    S    
C42   C43   A    
C16   F2    S    
O13   C48   A    
C31   F1    S    
C21   C22   T    
O17   V4    S    
C18   S1    S    
C7    C8    A    
C15   H6    S    
O19   C48   A    
C45   O16   A    
C9    C10   A    
C19   C48   S    
C8    C9    A    
O15   V3    S    
C33   H9    S    
