data_mof_unit_63982.cif
_audit_creation_date              2012-10-26T17:40:14-0400
_audit_creation_method            fapswitch 2.2
_symmetry_space_group_name_H-M    P1
_symmetry_Int_Tables_number       1
_space_group_crystal_system       triclinic
_cell_length_a                    37.222387
_cell_length_b                    30.373721
_cell_length_c                    21.700013
_cell_angle_alpha                 89.994804
_cell_angle_beta                  54.660525
_cell_angle_gamma                 89.995408
_cell_volume                      20013.0638868

loop_
_atom_site_label
_atom_site_type_symbol
_atom_type_description
_atom_site_fract_x
_atom_site_fract_y
_atom_site_fract_z
_atom_type_partial_charge
C1    C     C_R   0.085062 0.499935 0.413634 0.548739
C2    C     C_R   0.978199 0.465815 0.240222 -0.031734
C3    C     C_R   0.202381 0.009879 0.855504 0.097193
C4    C     C_R   0.273945 0.503700 0.223111 0.032130
C5    C     C_R   0.726055 0.503695 0.776903 0.032108
C6    C     C_R   0.773947 0.003721 0.223143 0.032137
C7    C     C_R   0.226055 0.003704 0.776888 0.032098
C8    C     C_R   0.000001 0.414871 0.999993 0.556825
C9    C     C_R   0.500001 0.914869 0.999978 0.556730
C10   C     C_R   0.999876 0.499389 0.881347 0.549672
C11   C     C_R   0.000125 0.499397 0.118655 0.549629
C12   C     C_R   0.499875 0.999392 0.881345 0.549686
C13   C     C_R   0.521779 0.965793 0.759806 -0.031753
C14   C     C_R   0.500126 0.999400 0.118657 0.549588
C15   C     C_R   0.999999 0.585084 0.000001 0.537175
C16   C     C_R   0.499999 0.085084 0.000001 0.537228
C17   C     C_R   0.500000 0.414906 0.000002 0.548538
C18   C     C_R   0.000000 0.914906 0.000002 0.548543
C19   C     C_R   0.414836 0.500392 0.084965 0.550568
C20   C     C_R   0.585164 0.500391 0.915036 0.550568
C21   C     C_R   0.914836 0.000394 0.084965 0.550566
C22   C     C_R   0.085164 0.000392 0.915035 0.550569
C23   C     C_R   0.500000 0.585138 0.999996 0.550029
C24   C     C_R   0.477962 0.965983 0.240470 -0.031671
C25   C     C_R   0.000000 0.085139 0.999997 0.550007
C26   C     C_R   0.038731 0.297486 0.976519 -0.033093
C27   C     C_R   0.961279 0.297491 0.023427 -0.033024
C28   C     C_R   0.538798 0.797478 0.976066 -0.033063
C29   C     C_R   0.461216 0.797484 0.023781 -0.032916
C30   C     C_R   0.951503 0.609572 0.745706 -0.094487
C31   C     C_R   0.048703 0.609463 0.254128 -0.094437
C32   C     C_R   0.451325 0.109472 0.745803 -0.094422
C33   C     C_R   0.549081 0.109252 0.253870 -0.094324
C34   C     C_R   0.038469 0.343407 0.976736 -0.142704
C35   C     C_R   0.020613 0.466578 0.696882 -0.134477
C36   C     C_R   0.961538 0.343411 0.023223 -0.142629
C37   C     C_R   0.538535 0.843398 0.976301 -0.143202
C38   C     C_R   0.461475 0.843404 0.023568 -0.142981
C39   C     C_R   0.000003 0.366580 0.999980 -0.007895
C40   C     C_R   0.500005 0.866574 0.999940 -0.008452
C41   C     C_R   0.000005 0.274183 0.999971 -0.014783
C42   C     C_R   0.500006 0.774176 0.999926 -0.014750
C43   C     C_R   0.502346 0.702793 0.053405 -0.097033
C44   C     C_R   0.497660 0.702781 0.946503 -0.097007
C45   C     C_R   0.002153 0.202791 0.053638 -0.097042
C46   C     C_R   0.979244 0.466679 0.303273 -0.134519
C47   C     C_R   0.997855 0.202792 0.946320 -0.097026
C48   C     C_R   0.502297 0.656927 0.053533 -0.113870
C49   C     C_R   0.497706 0.656916 0.946412 -0.113849
C50   C     C_R   0.002108 0.156925 0.053749 -0.113851
C51   C     C_R   0.997896 0.156926 0.946223 -0.113841
C52   C     C_R   0.500001 0.633567 0.999982 0.016820
C53   C     C_R   0.000002 0.133570 0.999990 0.016804
C54   C     C_R   0.500004 0.725774 0.999945 0.037118
C55   C     C_R   0.000005 0.225780 0.999975 0.037075
C56   C     C_R   0.037476 0.702601 0.943556 -0.112947
C57   C     C_R   0.520728 0.966656 0.696761 -0.134522
C58   C     C_R   0.962522 0.702600 0.056464 -0.112949
C59   C     C_R   0.537477 0.202601 0.943560 -0.112963
C60   C     C_R   0.462520 0.202600 0.056458 -0.112964
C61   C     C_R   0.037610 0.656718 0.943880 -0.123058
C62   C     C_R   0.962387 0.656717 0.056133 -0.123054
C63   C     C_R   0.537611 0.156718 0.943884 -0.123063
C64   C     C_R   0.462386 0.156717 0.056127 -0.123047
C65   C     C_R   0.999999 0.633432 0.000004 0.014954
C66   C     C_R   0.499999 0.133433 0.000004 0.014970
C67   C     C_R   0.944354 0.564279 0.744532 0.033736
C68   C     C_R   0.478987 0.966851 0.303541 -0.134601
C69   C     C_R   0.055782 0.564154 0.255336 0.033682
C70   C     C_R   0.444231 0.064165 0.744638 0.033689
C71   C     C_R   0.556038 0.063918 0.255111 0.033583
C72   C     C_R   0.999999 0.725793 0.000011 0.030835
C73   C     C_R   0.499999 0.225793 0.000010 0.030830
C74   C     C_R   0.486732 0.297363 0.065865 -0.111165
C75   C     C_R   0.513266 0.297367 0.934153 -0.111152
C76   C     C_R   0.986734 0.797363 0.065865 -0.111145
C77   C     C_R   0.013264 0.797366 0.934155 -0.111127
C78   C     C_R   0.487057 0.343247 0.065721 -0.118788
C79   C     C_R   0.997419 0.499678 0.688680 0.007423
C80   C     C_R   0.512943 0.343251 0.934293 -0.118768
C81   C     C_R   0.987059 0.843247 0.065720 -0.118766
C82   C     C_R   0.012941 0.843251 0.934294 -0.118740
C83   C     C_R   0.500000 0.366543 0.000006 0.017806
C84   C     C_R   0.000000 0.866543 0.000006 0.017795
C85   C     C_R   0.499999 0.274173 0.000010 0.029814
C86   C     C_R   0.999999 0.774173 0.000011 0.029800
C87   C     C_R   0.908284 0.550058 0.745022 -0.059072
C88   C     C_R   0.091849 0.549855 0.254796 -0.059255
C89   C     C_R   0.408157 0.049873 0.745198 -0.059283
C90   C     C_R   0.002555 0.499692 0.311351 0.007489
C91   C     C_R   0.592100 0.049483 0.254473 -0.059609
C92   C     C_R   0.879996 0.580733 0.745941 -0.098387
C93   C     C_R   0.120211 0.580469 0.253776 -0.098414
C94   C     C_R   0.379803 0.080493 0.746196 -0.098415
C95   C     C_R   0.620592 0.079993 0.253285 -0.098457
C96   C     C_R   0.887511 0.625774 0.746232 -0.096618
C97   C     C_R   0.112764 0.625527 0.253457 -0.096537
C98   C     C_R   0.387266 0.125550 0.746470 -0.096540
C99   C     C_R   0.613267 0.125079 0.252939 -0.096379
C100  C     C_R   0.975357 0.531156 0.808153 -0.138274
C101  C     C_R   0.497436 0.999684 0.688658 0.007480
C102  C     C_R   0.024738 0.531090 0.191754 -0.138294
C103  C     C_R   0.475276 0.031097 0.808225 -0.138320
C104  C     C_R   0.524918 0.030956 0.191591 -0.138341
C105  C     C_1   0.930843 0.686689 0.746917 0.196923
C106  C     C_1   0.069500 0.686536 0.252808 0.196903
C107  C     C_1   0.430554 0.186549 0.747049 0.196905
C108  C     C_1   0.570120 0.186249 0.252389 0.196901
C109  C     C_1   0.079318 0.274929 0.950722 0.199023
C110  C     C_1   0.920693 0.274937 0.049216 0.198820
C111  C     C_1   0.579453 0.774918 0.949816 0.198951
C112  C     C_R   0.914939 0.499937 0.586372 0.548678
C113  C     C_R   0.502516 0.999707 0.311401 0.007618
C114  C     C_1   0.420567 0.774928 0.049989 0.198591
C115  C     C_R   0.973570 0.531737 0.745759 -0.021884
C116  C     C_R   0.026502 0.531678 0.254172 -0.021930
C117  C     C_R   0.473505 0.031682 0.745814 -0.021927
C118  C     C_R   0.526643 0.031558 0.254049 -0.022009
C119  C     C_R   0.087010 0.431543 0.746369 -0.045701
C120  C     C_R   0.912570 0.431809 0.254611 -0.046018
C121  C     C_R   0.587349 0.931769 0.745618 -0.045903
C122  C     C_R   0.411800 0.932170 0.256556 -0.046750
C123  C     C_R   0.106929 0.396062 0.756892 0.108653
C124  C     C_R   0.585063 0.999934 0.413643 0.548776
C125  C     C_R   0.892480 0.396436 0.244242 0.108762
C126  C     C_R   0.607427 0.896355 0.755931 0.108655
C127  C     C_R   0.391397 0.896938 0.246583 0.108898
C128  C     C_R   0.083362 0.357088 0.789884 -0.076566
C129  C     C_R   0.916008 0.357511 0.210716 -0.076378
C130  C     C_R   0.583924 0.857386 0.789213 -0.076529
C131  C     C_R   0.414879 0.858136 0.212019 -0.076118
C132  C     C_R   0.039803 0.353635 0.812873 -0.130741
C133  C     C_R   0.959686 0.353996 0.187076 -0.130775
C134  C     C_R   0.540275 0.853873 0.812697 -0.130654
C135  C     C_R   0.414938 0.999937 0.586367 0.548670
C136  C     C_R   0.458811 0.854598 0.186992 -0.130731
C137  C     C_R   0.019678 0.389164 0.803117 -0.100738
C138  C     C_R   0.979980 0.389421 0.196669 -0.100490
C139  C     C_R   0.519994 0.889338 0.803153 -0.100539
C140  C     C_R   0.479414 0.889892 0.196163 -0.099910
C141  C     C_R   0.998900 0.499967 0.620077 0.543929
C142  C     C_R   0.001092 0.499971 0.379933 0.543941
C143  C     C_R   0.498904 0.999968 0.620071 0.543934
C144  C     C_R   0.501080 0.999973 0.379948 0.543951
C145  C     C_R   0.043212 0.428282 0.769791 0.009502
C146  C     C_R   0.999503 0.498782 0.814999 0.011994
C147  C     C_R   0.956488 0.428488 0.230521 0.009902
C148  C     C_R   0.543465 0.928445 0.769528 0.009813
C149  C     C_R   0.455969 0.928827 0.231057 0.010686
C150  C     C_R   0.203289 0.469641 0.261258 -0.063412
C151  C     C_R   0.796720 0.469670 0.738815 -0.063337
C152  C     C_R   0.703303 0.969600 0.261378 -0.063514
C153  C     C_R   0.296713 0.969650 0.738758 -0.063358
C154  C     C_R   0.157377 0.468234 0.306577 0.074044
C155  C     C_R   0.842633 0.468269 0.693498 0.074119
C156  C     C_R   0.657392 0.968179 0.306697 0.073927
C157  C     C_R   0.000498 0.498790 0.185005 0.011912
C158  C     C_R   0.342626 0.968243 0.693440 0.074080
C159  C     C_R   0.133360 0.499979 0.364160 0.010798
C160  C     C_R   0.866641 0.499986 0.635859 0.010849
C161  C     C_R   0.633364 0.999973 0.364191 0.010723
C162  C     C_R   0.366640 0.999983 0.635843 0.010829
C163  C     C_R   0.156077 0.532857 0.374198 -0.155765
C164  C     C_R   0.843920 0.532838 0.625772 -0.155742
C165  C     C_R   0.656073 0.032900 0.374150 -0.155797
C166  C     C_R   0.343922 0.032858 0.625791 -0.155738
C167  C     C_R   0.201926 0.534036 0.328408 -0.122481
C168  C     C_R   0.499503 0.998786 0.814994 0.011910
C169  C     C_R   0.798070 0.534013 0.671563 -0.122400
C170  C     C_R   0.701922 0.034087 0.328364 -0.122563
C171  C     C_R   0.298072 0.034037 0.671580 -0.122408
C172  C     C_R   0.225654 0.502621 0.271451 0.021218
C173  C     C_R   0.774348 0.502620 0.728570 0.021261
C174  C     C_R   0.725657 0.002631 0.271489 0.021161
C175  C     C_R   0.274346 0.002625 0.728550 0.021245
C176  C     C_R   0.296685 0.497492 0.256074 -0.134653
C177  C     C_R   0.703319 0.497462 0.743941 -0.134636
C178  C     C_R   0.796693 0.997547 0.256101 -0.134622
C179  C     C_R   0.500503 0.998790 0.185009 0.011751
C180  C     C_R   0.203316 0.997486 0.743927 -0.134573
C181  C     C_R   0.342556 0.496480 0.211269 -0.130767
C182  C     C_R   0.657449 0.496452 0.788740 -0.130745
C183  C     C_R   0.842563 0.996528 0.211284 -0.130764
C184  C     C_R   0.157445 0.996472 0.788732 -0.130716
C185  C     C_R   0.366375 0.501635 0.132692 -0.006680
C186  C     C_R   0.633625 0.501632 0.867312 -0.006683
C187  C     C_R   0.866375 0.001644 0.132700 -0.006697
C188  C     C_R   0.133625 0.001636 0.867307 -0.006703
C189  C     C_R   0.923252 0.640287 0.746170 0.005952
C190  C     C_R   0.021668 0.465713 0.759923 -0.031761
C191  C     C_R   0.077021 0.640117 0.253581 0.005962
C192  C     C_R   0.423015 0.140132 0.746325 0.005956
C193  C     C_R   0.577520 0.139802 0.253185 0.005970
C194  C     C_R   0.343543 0.508569 0.099879 -0.094538
C195  C     C_R   0.656453 0.508590 0.900124 -0.094539
C196  C     C_R   0.843536 0.008547 0.099892 -0.094517
C197  C     C_R   0.156456 0.008579 0.900117 -0.094519
C198  C     C_R   0.297618 0.509867 0.144492 0.097194
C199  C     C_R   0.702377 0.509888 0.855516 0.097198
C200  C     C_R   0.797611 0.009849 0.144518 0.097196
Cu1   Cu    Cu3+1 1.000000 0.544040 0.500000 0.962916
Cu2   Cu    Cu3+1 0.500010 0.500000 0.938190 0.965502
Cu3   Cu    Cu3+1 0.999990 0.000000 0.061810 0.965506
Cu4   Cu    Cu3+1 0.000010 0.000000 0.938190 0.965605
Cu5   Cu    Cu3+1 0.500000 0.044040 0.500000 0.962960
Cu6   Cu    Cu3+1 1.000000 0.455940 0.500000 1.034883
Cu7   Cu    Cu3+1 0.500000 0.955940 0.500000 1.035155
Cu8   Cu    Cu3+1 0.955940 0.499960 0.044050 0.988006
Cu9   Cu    Cu3+1 0.044060 0.499960 0.955950 0.987947
Cu10  Cu    Cu3+1 0.455940 0.999960 0.044050 0.987745
Cu11  Cu    Cu3+1 0.544060 0.999960 0.955950 0.987705
Cu12  Cu    Cu3+1 0.499990 0.500000 0.061810 0.965476
H1    H     H_    0.865388 0.649245 0.746846 0.130425
H2    H     H_    0.977915 0.323935 0.160759 0.125766
H3    H     H_    0.522061 0.823782 0.838844 0.125796
H4    H     H_    0.476991 0.824625 0.159928 0.125947
H5    H     H_    0.985802 0.386281 0.821622 0.133263
H6    H     H_    0.013950 0.386497 0.177642 0.132980
H7    H     H_    0.486051 0.886410 0.822033 0.133004
H8    H     H_    0.513573 0.886956 0.176056 0.132392
H9    H     H_    0.221687 0.445224 0.217278 0.161808
H10   H     H_    0.778328 0.445270 0.782834 0.161796
H11   H     H_    0.721709 0.945151 0.217459 0.161819
H12   H     H_    0.134942 0.648950 0.252772 0.130444
H13   H     H_    0.278317 0.945237 0.782750 0.161807
H14   H     H_    0.138289 0.557505 0.417974 0.135983
H15   H     H_    0.861703 0.557466 0.581953 0.135911
H16   H     H_    0.638281 0.057586 0.417855 0.136072
H17   H     H_    0.361708 0.057503 0.582005 0.135949
H18   H     H_    0.218932 0.559587 0.336962 0.130467
H19   H     H_    0.781060 0.559543 0.662969 0.130457
H20   H     H_    0.718922 0.059679 0.336854 0.130499
H21   H     H_    0.281065 0.059585 0.663014 0.130484
H22   H     H_    0.278813 0.492791 0.316522 0.127588
H23   H     H_    0.365094 0.148977 0.747136 0.130450
H24   H     H_    0.721194 0.492743 0.683497 0.127650
H25   H     H_    0.778825 0.992874 0.316555 0.127668
H26   H     H_    0.221189 0.992778 0.683482 0.127819
H27   H     H_    0.359308 0.491254 0.238092 0.143109
H28   H     H_    0.640699 0.491207 0.761917 0.143136
H29   H     H_    0.859320 0.991327 0.238105 0.143151
H30   H     H_    0.140693 0.991238 0.761912 0.143217
H31   H     H_    0.361316 0.513462 0.039529 0.160995
H32   H     H_    0.638676 0.513503 0.960469 0.160990
H33   H     H_    0.861304 0.013408 0.039536 0.161025
H34   H     H_    0.635543 0.148420 0.252134 0.130508
H35   H     H_    0.138681 0.013478 0.960465 0.161013
H36   H     H_    0.068378 0.361065 0.958655 0.154741
H37   H     H_    0.931628 0.361073 0.041309 0.154418
H38   H     H_    0.568498 0.861050 0.957902 0.154669
H39   H     H_    0.431512 0.861061 0.041972 0.154006
H40   H     H_    0.504088 0.720436 0.095000 0.118993
H41   H     H_    0.495920 0.720414 0.904894 0.118785
H42   H     H_    0.003740 0.220427 0.095403 0.118766
H43   H     H_    0.996268 0.220429 0.904551 0.118666
H44   H     H_    0.504122 0.639827 0.095435 0.139687
H45   H     H_    0.098670 0.329599 0.798117 0.144097
H46   H     H_    0.495881 0.639806 0.904522 0.139669
H47   H     H_    0.003780 0.139820 0.095811 0.139672
H48   H     H_    0.996224 0.139821 0.904166 0.139664
H49   H     H_    0.066781 0.720031 0.899805 0.119030
H50   H     H_    0.933217 0.720029 0.100217 0.119014
H51   H     H_    0.566784 0.220031 0.899812 0.119007
H52   H     H_    0.433214 0.220030 0.100207 0.119004
H53   H     H_    0.066963 0.639486 0.899844 0.135838
H54   H     H_    0.933035 0.639484 0.100166 0.135843
H55   H     H_    0.566966 0.139486 0.899853 0.135839
H56   H     H_    0.900570 0.330106 0.202594 0.144121
H57   H     H_    0.433032 0.139484 0.100156 0.135860
H58   H     H_    0.476641 0.279930 0.117078 0.120689
H59   H     H_    0.523356 0.279938 0.882942 0.120738
H60   H     H_    0.976645 0.779931 0.117077 0.120740
H61   H     H_    0.023352 0.779937 0.882944 0.120788
H62   H     H_    0.476793 0.360469 0.117178 0.136965
H63   H     H_    0.523208 0.360476 0.882834 0.137002
H64   H     H_    0.976796 0.860469 0.117177 0.137003
H65   H     H_    0.023204 0.860475 0.882836 0.137051
H66   H     H_    0.979091 0.620791 0.745899 0.111977
H67   H     H_    0.599356 0.829947 0.797278 0.144191
H68   H     H_    0.021118 0.620740 0.253967 0.111995
H69   H     H_    0.478916 0.120743 0.745946 0.112001
H70   H     H_    0.521498 0.120630 0.253784 0.112052
H71   H     H_    0.901916 0.515262 0.745333 0.136202
H72   H     H_    0.098161 0.515045 0.254510 0.136302
H73   H     H_    0.401835 0.015064 0.745516 0.136283
H74   H     H_    0.598313 0.014650 0.254216 0.136473
H75   H     H_    0.852106 0.569597 0.746770 0.145490
H76   H     H_    0.148107 0.569275 0.252884 0.145642
H77   H     H_    0.351902 0.069304 0.747103 0.145634
H78   H     H_    0.399200 0.830839 0.204203 0.144252
H79   H     H_    0.648498 0.068698 0.252278 0.145927
H80   H     H_    0.957302 0.555655 0.852262 0.127782
H81   H     H_    0.042873 0.555532 0.147566 0.127913
H82   H     H_    0.457155 0.055550 0.852395 0.127883
H83   H     H_    0.543197 0.055295 0.147269 0.128158
H84   H     H_    0.038095 0.441372 0.653938 0.143036
H85   H     H_    0.961668 0.441538 0.346315 0.142911
H86   H     H_    0.538288 0.941504 0.653739 0.142952
H87   H     H_    0.461242 0.941832 0.346757 0.142706
H88   H     H_    0.105388 0.461638 0.720721 0.136000
H89   H     H_    0.021537 0.323539 0.838805 0.125702
H90   H     H_    0.894228 0.461871 0.280655 0.135725
H91   H     H_    0.605676 0.961861 0.719743 0.135826
H92   H     H_    0.393496 0.962136 0.283409 0.135248
I1    I     I_    0.127856 0.419295 0.279260 -0.332068
I2    I     I_    0.826881 0.401900 0.278490 -0.350122
I3    I     I_    0.672971 0.901817 0.721962 -0.350083
I4    I     I_    0.325372 0.902418 0.283086 -0.350269
I5    I     I_    0.872174 0.419391 0.720893 -0.332216
I6    I     I_    0.627903 0.919128 0.279503 -0.331862
I7    I     I_    0.372152 0.919311 0.720776 -0.332172
I8    I     I_    0.266421 0.523760 0.089973 -0.361854
I9    I     I_    0.733565 0.523827 0.910034 -0.361651
I10   I     I_    0.766395 0.023681 0.090011 -0.362171
I11   I     I_    0.233575 0.023788 0.910019 -0.361894
I12   I     I_    0.172322 0.401438 0.723717 -0.350039
N1    N     N_1   0.936950 0.723994 0.747524 -0.272492
N2    N     N_1   0.063447 0.723854 0.252180 -0.272489
N3    N     N_1   0.436621 0.223866 0.747636 -0.272480
N4    N     N_1   0.564164 0.223589 0.251744 -0.272399
N5    N     N_1   0.111828 0.256844 0.930034 -0.262112
N6    N     N_1   0.888184 0.256855 0.069897 -0.262378
N7    N     N_1   0.612018 0.756832 0.928761 -0.262286
N8    N     N_1   0.388010 0.756845 0.071002 -0.262786
O1    O     O_R   0.064270 0.537190 0.435730 -0.518110
O2    O     O_R   0.564280 0.500010 0.987920 -0.507825
O3    O     O_R   0.935720 0.000010 0.012080 -0.507801
O4    O     O_R   0.064280 0.000010 0.987920 -0.507808
O5    O     O_R   0.500000 0.564270 0.052190 -0.510768
O6    O     O_R   0.500000 0.564270 0.947810 -0.510785
O7    O     O_R   0.000000 0.064270 0.052190 -0.510785
O8    O     O_R   1.000000 0.064270 0.947810 -0.510774
O9    O     O_R   0.064260 0.462790 0.435740 -0.474752
O10   O     O_R   0.935740 0.462790 0.564260 -0.474766
O11   O     O_R   0.564260 0.962790 0.435740 -0.474745
O12   O     O_R   0.935730 0.537190 0.564270 -0.518178
O13   O     O_R   0.435740 0.962790 0.564260 -0.474766
O14   O     O_R   0.000000 0.537190 0.590180 -0.504657
O15   O     O_R   1.000000 0.537190 0.409820 -0.504667
O16   O     O_R   0.500000 0.037190 0.590180 -0.504683
O17   O     O_R   0.500000 0.037190 0.409820 -0.504707
O18   O     O_R   0.999990 0.462790 0.590190 -0.500537
O19   O     O_R   0.000010 0.462790 0.409810 -0.500480
O20   O     O_R   0.499990 0.962790 0.590190 -0.500499
O21   O     O_R   0.500010 0.962790 0.409810 -0.500365
O22   O     O_R   0.962800 0.435700 0.037190 -0.502553
O23   O     O_R   0.564270 0.037190 0.435730 -0.518039
O24   O     O_R   0.037200 0.435700 0.962810 -0.502436
O25   O     O_R   0.462800 0.935700 0.037190 -0.502824
O26   O     O_R   0.537200 0.935700 0.962810 -0.502561
O27   O     O_R   0.962790 0.499970 0.947030 -0.504296
O28   O     O_R   0.037210 0.499970 0.052970 -0.504361
O29   O     O_R   0.462790 0.999970 0.947030 -0.504490
O30   O     O_R   0.537210 0.999970 0.052970 -0.504618
O31   O     O_R   0.037190 0.499990 0.872630 -0.507495
O32   O     O_R   0.962810 0.499990 0.127370 -0.507186
O33   O     O_R   0.537190 0.999990 0.872630 -0.507237
O34   O     O_R   0.435730 0.037190 0.564270 -0.518161
O35   O     O_R   0.462810 0.999990 0.127370 -0.506531
O36   O     O_R   0.962790 0.564230 0.037210 -0.513042
O37   O     O_R   0.037210 0.564230 0.962790 -0.513032
O38   O     O_R   0.462790 0.064230 0.037210 -0.513061
O39   O     O_R   0.537210 0.064230 0.962790 -0.513019
O40   O     O_R   0.499980 0.435740 0.052200 -0.508837
O41   O     O_R   0.500020 0.435740 0.947800 -0.508831
O42   O     O_R   0.999980 0.935740 0.052200 -0.508828
O43   O     O_R   0.000020 0.935740 0.947800 -0.508816
O44   O     O_R   0.435720 0.500010 0.116470 -0.510740
O45   O     O_R   0.564280 0.500010 0.883530 -0.510723
O46   O     O_R   0.935720 0.000010 0.116470 -0.510765
O47   O     O_R   0.064280 0.000010 0.883530 -0.510727
O48   O     O_R   0.435720 0.500010 0.012080 -0.507825

loop_
_geom_bond_atom_site_label_1
_geom_bond_atom_site_label_2
_ccdc_geom_bond_type
C195  H32   S    
C155  I5    S    
C69   C116  S    
C89   H73   S    
C29   C42   A    
C19   O48   A    
C119  H88   S    
C136  C140  A    
C124  O23   A    
C121  H91   S    
C122  H92   S    
C10   O27   A    
C198  I8    S    
Cu1   O12   S    
Cu11  O39   S    
C196  H33   S    
C95   C99   A    
C23   O6    A    
C177  C182  A    
C30   C189  A    
C125  I2    S    
C140  H8    S    
C150  C172  A    
C152  C156  A    
C27   C110  S    
C56   C72   A    
C107  C192  S    
C18   C84   S    
Cu1   Cu6   S    
C151  C155  A    
C59   C73   A    
C12   O33   A    
C183  H29   S    
Cu2   O45   S    
C14   O35   A    
C130  C134  A    
C100  C115  A    
C80   C83   A    
C102  H81   S    
C124  O11   A    
C50   C53   A    
C122  C149  A    
C77   H61   S    
C1    C159  S    
C111  N7    T    
C16   O39   A    
C120  C125  A    
C6    C174  S    
C132  C137  A    
Cu9   O24   S    
C165  H16   S    
C134  H3    S    
C169  H19   S    
C135  O34   A    
C64   C66   A    
Cu8   O36   S    
C43   C54   A    
Cu5   O17   S    
C144  O21   A    
C19   O44   A    
C99   H34   S    
C69   C88   A    
C142  O15   A    
C21   O3    A    
C129  C133  A    
C166  H17   S    
C82   C84   A    
C132  H89   S    
C150  H9    S    
Cu9   O37   S    
C32   H69   S    
C11   C157  S    
C103  H82   S    
C124  C161  S    
C170  C174  A    
C153  H13   S    
C99   C193  A    
C112  C160  S    
Cu5   O16   S    
C25   C53   S    
C93   H76   S    
Cu4   O8    S    
C119  C123  A    
C153  C175  A    
C59   C63   A    
C113  C144  S    
C16   O38   A    
C60   C64   A    
C56   H49   S    
C126  I3    S    
C100  H80   S    
Cu8   O27   S    
C77   C82   A    
C2    C157  A    
Cu7   O11   S    
C127  I4    S    
C22   C188  S    
C144  O17   A    
C127  C131  A    
C106  N2    T    
C20   C186  S    
C125  C129  A    
C48   C52   A    
C152  H11   S    
C137  H5    S    
C126  C130  A    
C70   C117  S    
C178  H25   S    
C19   C185  S    
C180  C184  A    
C11   O32   A    
C11   O28   A    
C6    C200  A    
C51   H48   S    
Cu6   O10   S    
C110  N6    T    
C143  O16   A    
C79   C115  A    
C145  C190  S    
C74   H58   S    
Cu3   O4    S    
C104  H83   S    
C45   C50   A    
C59   H51   S    
C37   C40   A    
Cu7   O21   S    
C13   C57   A    
C9    O25   A    
C92   C96   A    
C122  C127  A    
Cu1   O15   S    
C170  H20   S    
C29   C38   A    
C95   H79   S    
C30   C67   A    
C15   O37   A    
C4    C198  A    
C199  I9    S    
C92   H75   S    
C88   H72   S    
C195  C199  A    
Cu5   Cu7   S    
C139  C148  A    
C30   H66   S    
C194  H31   S    
C34   C39   A    
C18   O42   A    
C131  C136  A    
C134  C139  A    
C33   C71   A    
C143  O20   A    
C13   C168  A    
C32   C70   A    
C2    C147  S    
C197  H35   S    
C51   C53   A    
Cu11  O30   S    
C3    I11   S    
Cu6   O19   S    
C61   C65   A    
C1    O9    A    
C180  H26   S    
C61   H53   S    
C31   H68   S    
C26   C109  S    
C73   C85   S    
Cu5   O34   S    
C129  H56   S    
C10   C146  S    
Cu7   O20   S    
C156  C161  A    
C90   C116  A    
C74   C78   A    
C70   C89   A    
C78   H62   S    
C93   C97   A    
C171  H21   S    
Cu9   O28   S    
C33   H70   S    
C184  H30   S    
C4    C172  S    
C5    C173  S    
C36   C39   A    
C89   C94   A    
C8    O24   A    
C15   O36   A    
C57   C101  A    
C45   H42   S    
C81   H64   S    
C128  H45   S    
C154  C159  A    
C62   H54   S    
C23   C52   S    
C79   C141  S    
C28   C37   A    
C23   O5    A    
C35   C79   A    
C135  O13   A    
C7    C180  A    
C164  H15   S    
C74   C85   A    
C161  C165  A    
C91   C95   A    
C44   C54   A    
C31   C69   A    
C18   O43   A    
C45   C55   A    
C169  C173  A    
Cu3   O42   S    
Cu11  O33   S    
C140  C149  A    
C6    C178  A    
C58   C62   A    
C187  C196  A    
C158  I7    S    
C60   H52   S    
C185  C194  A    
Cu3   Cu4   S    
C112  O10   A    
C5    C199  A    
Cu12  O44   S    
Cu4   O43   S    
C133  H2    S    
C160  C164  A    
C137  C145  A    
C22   O47   A    
C3    C7    A    
Cu10  O38   S    
C103  C117  A    
C44   H41   S    
C104  C179  A    
C94   C98   A    
C37   H38   S    
C15   C65   S    
C31   C191  A    
C60   C73   A    
C32   C192  A    
C182  C186  A    
C41   C55   S    
C162  C166  A    
C78   C83   A    
C75   C85   A    
Cu8   Cu9   S    
C17   O41   A    
C178  C183  A    
C131  H78   S    
C68   C113  A    
C25   O8    A    
C181  H27   S    
C35   H84   S    
C63   C66   A    
C33   C193  A    
C133  C138  A    
C28   C111  S    
C87   C92   A    
C58   H50   S    
C94   H77   S    
C176  C181  A    
C120  H90   S    
C177  H24   S    
C104  C118  A    
C10   O31   A    
Cu4   O47   S    
Cu3   O7    S    
C47   C51   A    
C9    C40   S    
C96   H1    S    
C141  O18   A    
C47   H43   S    
C183  C187  A    
C49   C52   A    
Cu6   O18   S    
C36   H37   S    
C121  C148  A    
Cu10  O25   S    
Cu8   O32   S    
C200  I10   S    
C90   C142  S    
C16   C66   S    
C76   C86   A    
C112  O12   A    
C167  H18   S    
C154  I1    S    
C165  C170  A    
Cu7   O13   S    
Cu11  O26   S    
Cu2   Cu12  S    
Cu4   O3    S    
Cu1   O1    S    
C72   C86   S    
C167  C172  A    
C46   C90   A    
C27   C36   A    
C119  C145  A    
C130  H67   S    
C97   H12   S    
C101  C117  A    
C42   C54   S    
C38   C40   A    
C75   H59   S    
C188  C197  A    
C76   H60   S    
C80   H63   S    
Cu10  O29   S    
C87   H71   S    
C64   H57   S    
C24   C68   A    
Cu1   O14   S    
C71   C91   A    
C120  C147  A    
C4    C176  A    
C56   C61   A    
C91   H74   S    
C21   O46   A    
C44   C49   A    
C29   C114  S    
C151  C173  A    
C46   H85   S    
C196  C200  A    
C58   C72   A    
C182  H28   S    
C194  C198  A    
C2    C46   A    
C12   O29   A    
Cu12  O5    S    
Cu12  O40   S    
Cu8   O22   S    
C50   H47   S    
C153  C158  A    
C22   O4    A    
C67   C115  S    
C43   H40   S    
C26   C34   A    
C176  H22   S    
C98   H23   S    
C100  C146  A    
C7    C175  S    
C8    C39   S    
C48   H44   S    
C163  H14   S    
C43   C48   A    
C14   C179  S    
C8    O22   A    
C152  C174  A    
Cu2   O41   S    
Cu6   O9    S    
C166  C171  A    
C151  H10   S    
C164  C169  A    
C114  N8    T    
C106  C191  S    
C128  C132  A    
C102  C157  A    
C142  O19   A    
C21   C187  S    
C68   H87   S    
C186  C195  A    
C98   C192  A    
C57   H86   S    
C181  C185  A    
Cu12  O2    S    
C171  C175  A    
C9    O26   A    
C184  C188  A    
C17   C83   S    
C96   C189  A    
C163  C167  A    
Cu10  O35   S    
C109  N5    T    
C139  H7    S    
C49   H46   S    
C27   C41   A    
C38   H39   S    
C97   C191  A    
C138  C147  A    
C24   C179  A    
C5    C177  A    
C77   C86   A    
C34   H36   S    
C20   O45   A    
C135  C162  S    
C159  C163  A    
C82   H65   S    
C105  N1    T    
C81   C84   A    
C47   C55   A    
C75   C80   A    
C107  N3    T    
C62   C65   A    
C156  I6    S    
C88   C93   A    
C108  N4    T    
Cu9   O31   S    
C71   C118  S    
C155  C160  A    
C141  O14   A    
Cu5   O23   S    
C76   C81   A    
C12   C168  S    
C35   C190  A    
Cu2   O6    S    
C67   C87   A    
Cu2   O48   S    
C121  C126  A    
Cu3   O46   S    
C101  C143  S    
C20   O2    A    
C123  C128  A    
C28   C42   A    
C3    C197  A    
C105  C189  S    
C14   O30   A    
C102  C116  A    
C24   C149  S    
C158  C162  A    
C113  C118  A    
C103  C168  A    
C138  H6    S    
Cu10  Cu11  S    
C150  C154  A    
C17   O40   A    
C123  I12   S    
C146  C190  A    
C13   C148  S    
C25   O7    A    
C108  C193  S    
C63   H55   S    
C1    O1    A    
C26   C41   A    
C136  H4    S    
