data_mof_unit_10544.cif
_audit_creation_date              2012-12-11T14:54:21-0500
_audit_creation_method            fapswitch 2.2
_symmetry_space_group_name_H-M    P1
_symmetry_Int_Tables_number       1
_space_group_crystal_system       triclinic
_cell_length_a                    18.990542
_cell_length_b                    10.871706
_cell_length_c                    18.79369
_cell_angle_alpha                 90.24036
_cell_angle_beta                  89.956868
_cell_angle_gamma                 89.601621
_cell_volume                      3880.00840138

loop_
_atom_site_label
_atom_site_type_symbol
_atom_type_description
_atom_site_fract_x
_atom_site_fract_y
_atom_site_fract_z
_atom_type_partial_charge
C1    C     C_R   0.730316 0.376681 0.645954 0.551529
C2    C     C_R   0.271647 0.373598 0.355783 0.540065
C3    C     C_R   0.230318 0.876687 0.645957 0.540023
C4    C     C_R   0.771646 0.873598 0.355782 0.539665
C5    C     C_3   0.526005 0.356468 0.448445 -0.261938
C6    C     C_3   0.548508 0.359013 0.525882 -0.258498
C7    C     C_3   0.025928 0.856546 0.448467 -0.261870
C8    C     C_3   0.048437 0.859084 0.525903 -0.258600
C9    C     C_R   0.693225 0.875912 0.538107 -0.140710
C10   C     C_R   0.291786 0.847602 0.459012 -0.158444
C11   C     C_R   0.193186 0.376064 0.538087 -0.140914
C12   C     C_R   0.791814 0.347627 0.459014 -0.158235
C13   C     C_R   0.697739 0.866183 0.464534 -0.147050
C14   C     C_R   0.290182 0.832226 0.532290 -0.142131
C15   C     C_R   0.197710 0.366334 0.464516 -0.147086
C16   C     C_R   0.790209 0.332261 0.532293 -0.143109
C17   C     C_R   0.760084 0.899877 0.430384 0.032858
C18   C     C_R   0.249875 0.913065 0.574880 0.025944
C19   C     C_R   0.260089 0.399868 0.430385 0.032884
C20   C     C_R   0.749865 0.413057 0.574874 0.024415
C21   C     C_R   0.818433 0.938322 0.470429 -0.133761
C22   C     C_R   0.214883 0.012888 0.544557 -0.142895
C23   C     C_R   0.318454 0.438180 0.470446 -0.133617
C24   C     C_R   0.714829 0.512824 0.544538 -0.142887
C25   C     C_R   0.814951 0.942961 0.543113 -0.137655
C26   C     C_R   0.215587 0.026880 0.471930 -0.129107
C27   C     C_R   0.314959 0.442823 0.543131 -0.137847
C28   C     C_R   0.715524 0.526791 0.471912 -0.128785
C29   C     C_R   0.751457 0.918099 0.577238 0.029222
C30   C     C_R   0.253103 0.943498 0.428623 0.027571
C31   C     C_R   0.251442 0.418093 0.577238 0.028812
C32   C     C_R   0.753088 0.443461 0.428614 0.028504
C33   C     C_R   0.477135 0.049429 0.954435 -0.128380
C34   C     C_R   0.457189 0.048239 0.024948 -0.128599
C35   C     C_R   0.967084 0.557003 0.950784 -0.125990
C36   C     C_R   0.948164 0.554620 0.021770 -0.133115
C37   C     C_R   0.448022 0.158593 0.062391 0.023821
C38   C     C_R   0.489277 0.161313 0.919321 0.034049
C39   C     C_R   0.951248 0.661567 0.063045 0.025538
C40   C     C_R   0.991864 0.666026 0.920101 0.026785
C41   C     C_R   0.450823 0.270726 0.025246 -0.138120
C42   C     C_R   0.470640 0.271717 0.953336 -0.128985
C43   C     C_R   0.968824 0.773856 0.030748 -0.122683
C44   C     C_R   0.989885 0.775814 0.959581 -0.134632
C45   C     C_R   0.531024 0.155326 0.646675 0.544995
C46   C     C_R   0.434984 0.151188 0.360932 0.563679
C47   C     C_R   0.031027 0.655324 0.646671 0.545050
C48   C     C_R   0.934982 0.651188 0.360932 0.563637
C49   C     C_R   0.801918 0.997996 0.967309 -0.106244
C50   C     C_R   0.206873 0.021646 0.028301 -0.103120
C51   C     C_R   0.297553 0.511129 0.970300 -0.108455
C52   C     C_R   0.676081 0.425495 0.049643 -0.107552
C53   C     C_R   0.802056 0.996527 0.040453 0.096830
C54   C     C_R   0.205750 0.014677 0.954972 0.095579
C55   C     C_R   0.298413 0.507124 0.043577 0.090940
C56   C     C_R   0.665176 0.404543 0.977741 0.092772
C57   C     C_R   0.753794 0.919610 0.076026 0.050093
C58   C     C_R   0.250425 0.928838 0.920708 0.053879
C59   C     C_R   0.250943 0.428160 0.078728 0.053445
C60   C     C_R   0.720341 0.352821 0.936371 0.058564
C61   C     C_R   0.701089 0.858320 0.037472 -0.159096
C62   C     C_R   0.302784 0.866668 0.959492 -0.162344
C63   C     C_R   0.196033 0.372766 0.040667 -0.160692
C64   C     C_R   0.784375 0.320766 0.969110 -0.163641
C65   C     C_R   0.698278 0.868855 0.963934 -0.144967
C66   C     C_R   0.305626 0.879608 0.032828 -0.161203
C67   C     C_R   0.192437 0.386149 0.967365 -0.153307
C68   C     C_R   0.795581 0.349052 0.040291 -0.165820
C69   C     C_R   0.749524 0.937396 0.928639 0.011226
C70   C     C_R   0.255275 0.951900 0.067730 0.010610
C71   C     C_R   0.245596 0.449431 0.931603 0.009663
C72   C     C_R   0.742301 0.405800 0.079946 0.007542
C73   C     C_R   0.741692 0.967411 0.648049 0.548823
C74   C     C_R   0.259362 0.972644 0.353981 0.543855
C75   C     C_R   0.241690 0.467406 0.648050 0.546703
C76   C     C_R   0.759357 0.472630 0.353976 0.540731
C77   C     C_R   0.710878 0.331757 0.859988 0.587561
C78   C     C_R   0.269668 0.381226 0.148584 0.551729
C79   C     C_R   0.230601 0.881823 0.851188 0.560204
C80   C     C_R   0.770264 0.879465 0.147756 0.552936
C81   C     C_R   0.529536 0.156970 0.852353 0.546099
C82   C     C_R   0.434575 0.152649 0.139290 0.565506
C83   C     C_R   0.030408 0.657509 0.852736 0.549084
C84   C     C_R   0.935601 0.653133 0.139157 0.567327
C85   C     C_R   0.741083 0.972442 0.854934 0.541545
C86   C     C_R   0.260372 0.977001 0.143232 0.545324
C87   C     C_R   0.239861 0.476703 0.856453 0.546576
C88   C     C_R   0.757769 0.467348 0.146916 0.544681
C89   C     C_R   0.448114 0.159290 0.437490 0.015960
C90   C     C_R   0.489083 0.164792 0.581630 0.016340
C91   C     C_R   0.948106 0.659289 0.437491 0.015940
C92   C     C_R   0.989081 0.664783 0.581628 0.017058
C93   C     C_R   0.469462 0.269101 0.469823 0.012243
C94   C     C_R   0.489871 0.271718 0.540512 0.005460
C95   C     C_R   0.969418 0.769112 0.469836 0.012132
C96   C     C_R   0.989834 0.771723 0.540524 0.005571
C97   C     C_R   0.456330 0.059701 0.552948 -0.148083
C98   C     C_R   0.436460 0.056886 0.481190 -0.151700
C99   C     C_R   0.956355 0.559673 0.552937 -0.147102
C100  C     C_R   0.936484 0.556861 0.481180 -0.151721
Cr1   Cr    Cr6+3 0.771950 0.169480 0.750100 1.007141
Cr2   Cr    Cr6+3 0.228050 0.169480 0.249900 1.006631
Cr3   Cr    Cr6+3 0.271950 0.669480 0.750100 1.005407
Cr4   Cr    Cr6+3 0.728050 0.669480 0.249900 1.006802
Cr5   Cr    Cr6+3 0.614930 0.323340 0.749170 1.020981
Cr6   Cr    Cr6+3 0.385070 0.323340 0.250830 1.023889
Cr7   Cr    Cr6+3 0.114930 0.823340 0.749170 1.031284
Cr8   Cr    Cr6+3 0.885070 0.823340 0.250830 1.026774
Cr9   Cr    Cr6+3 0.616590 0.010620 0.750610 1.006171
Cr10  Cr    Cr6+3 0.383410 0.010620 0.249390 1.007658
Cr11  Cr    Cr6+3 0.116590 0.510620 0.750610 1.014796
Cr12  Cr    Cr6+3 0.883410 0.510620 0.249390 1.008292
H1    H     H_    0.452050 0.976110 0.583760 0.134890
H2    H     H_    0.416845 0.972078 0.458744 0.136618
H3    H     H_    0.952098 0.476066 0.583740 0.135952
H4    H     H_    0.916894 0.472040 0.458727 0.136749
H5    H     H_    0.841433 0.052805 0.940920 0.130210
H6    H     H_    0.170539 0.084598 0.054251 0.131637
H7    H     H_    0.336590 0.566950 0.943869 0.127679
H8    H     H_    0.634163 0.468196 0.080378 0.134265
H9    H     H_    0.663721 0.798892 0.063756 0.136739
H10   H     H_    0.338981 0.803131 0.933805 0.122753
H11   H     H_    0.157728 0.315339 0.067023 0.127208
H12   H     H_    0.827218 0.279884 0.939017 0.127264
H13   H     H_    0.656333 0.824063 0.934883 0.129245
H14   H     H_    0.346731 0.833333 0.062238 0.115522
H15   H     H_    0.148492 0.347280 0.938724 0.129458
H16   H     H_    0.846770 0.332036 0.063356 0.115822
H17   H     H_    0.004137 0.945949 0.429898 0.133068
H18   H     H_    0.101296 0.817264 0.534762 0.162821
H19   H     H_    0.504246 0.445888 0.429861 0.132878
H20   H     H_    0.601353 0.317136 0.534750 0.162540
H21   H     H_    0.565955 0.313619 0.412630 0.159192
H22   H     H_    0.539879 0.449932 0.551844 0.136758
H23   H     H_    0.065889 0.813756 0.412645 0.159716
H24   H     H_    0.039777 0.949980 0.551879 0.137223
H25   H     H_    0.643408 0.856666 0.563720 0.132771
H26   H     H_    0.322505 0.784905 0.426281 0.121774
H27   H     H_    0.143346 0.356957 0.563682 0.132856
H28   H     H_    0.822570 0.284972 0.426291 0.121608
H29   H     H_    0.652913 0.833289 0.434549 0.123697
H30   H     H_    0.317061 0.753409 0.554957 0.139168
H31   H     H_    0.152863 0.333583 0.434514 0.123826
H32   H     H_    0.817126 0.253489 0.554970 0.138851
H33   H     H_    0.868056 0.962505 0.445996 0.137608
H34   H     H_    0.183634 0.075981 0.576574 0.126956
H35   H     H_    0.368099 0.462265 0.446024 0.137642
H36   H     H_    0.683549 0.575885 0.576545 0.127345
H37   H     H_    0.860776 0.974620 0.572067 0.132261
H38   H     H_    0.187087 0.104302 0.449816 0.140157
H39   H     H_    0.360798 0.474377 0.572101 0.131820
H40   H     H_    0.686983 0.604163 0.449793 0.140239
H41   H     H_    0.487579 0.961445 0.929161 0.131828
H42   H     H_    0.452347 0.960036 0.050945 0.128610
H43   H     H_    0.966845 0.471070 0.921385 0.132725
H44   H     H_    0.934037 0.467735 0.045189 0.121570
H45   H     H_    0.440122 0.357100 0.052141 0.154437
H46   H     H_    0.474071 0.358084 0.925282 0.138863
H47   H     H_    0.969655 0.858713 0.061102 0.156575
H48   H     H_    0.008284 0.861204 0.936898 0.141178
O1    O     O_R   0.787510 0.042610 0.670410 -0.525111
O2    O     O_R   0.212490 0.042610 0.329590 -0.519794
O3    O     O_R   0.287510 0.542610 0.670410 -0.525913
O4    O     O_R   0.712490 0.542610 0.329590 -0.522399
O5    O     O_R   0.556450 0.252890 0.823790 -0.495718
O6    O     O_R   0.443550 0.252890 0.176210 -0.488951
O7    O     O_R   0.056450 0.752890 0.823790 -0.498510
O8    O     O_R   0.943550 0.752890 0.176210 -0.490390
O9    O     O_R   0.545750 0.051070 0.830560 -0.530420
O10   O     O_R   0.454250 0.051070 0.169440 -0.512010
O11   O     O_R   0.045750 0.551070 0.830560 -0.524339
O12   O     O_R   0.954250 0.551070 0.169440 -0.508817
O13   O     O_R   0.681210 0.959150 0.825320 -0.502131
O14   O     O_R   0.318790 0.959150 0.174680 -0.521416
O15   O     O_R   0.181210 0.459150 0.825320 -0.503128
O16   O     O_R   0.818790 0.459150 0.174680 -0.521149
O17   O     O_3   0.667820 0.167810 0.749960 -0.264292
O18   O     O_3   0.332180 0.167810 0.250040 -0.292585
O19   O     O_3   0.167820 0.667810 0.749960 -0.244351
O20   O     O_3   0.832180 0.667810 0.250040 -0.289688
O21   O     O_R   0.765670 0.292090 0.675090 -0.501015
O22   O     O_R   0.234330 0.292090 0.324910 -0.505325
O23   O     O_R   0.265670 0.792090 0.675090 -0.507761
O24   O     O_R   0.734330 0.792090 0.324910 -0.505404
O25   O     O_R   0.670220 0.409020 0.668560 -0.525456
O26   O     O_R   0.329780 0.409020 0.331440 -0.534758
O27   O     O_R   0.170220 0.909020 0.668560 -0.529050
O28   O     O_R   0.829780 0.909020 0.331440 -0.535377
O29   O     O_R   0.556580 0.251590 0.674980 -0.500985
O30   O     O_R   0.443420 0.251590 0.325020 -0.494056
O31   O     O_R   0.056580 0.751590 0.674980 -0.500441
O32   O     O_R   0.943420 0.751590 0.325020 -0.493972
O33   O     O_R   0.545890 0.049670 0.670030 -0.524867
O34   O     O_R   0.454110 0.049670 0.329970 -0.508428
O35   O     O_R   0.045890 0.549670 0.670030 -0.525138
O36   O     O_R   0.954110 0.549670 0.329970 -0.508469
O37   O     O_R   0.681340 0.957860 0.676500 -0.503247
O38   O     O_R   0.318660 0.957860 0.323500 -0.519192
O39   O     O_R   0.181340 0.457860 0.676500 -0.505133
O40   O     O_R   0.818660 0.457860 0.323500 -0.520953
O41   O     O_R   0.787380 0.044010 0.830940 -0.537295
O42   O     O_R   0.212620 0.044010 0.169060 -0.519438
O43   O     O_R   0.287380 0.544010 0.830940 -0.529736
O44   O     O_R   0.712620 0.544010 0.169060 -0.520689
O45   O     O_R   0.765540 0.293390 0.823910 -0.516219
O46   O     O_R   0.234460 0.293390 0.176090 -0.515078
O47   O     O_R   0.265540 0.793390 0.823910 -0.518597
O48   O     O_R   0.734460 0.793390 0.176090 -0.510303
O49   O     O_R   0.670090 0.410410 0.829090 -0.493142
O50   O     O_R   0.329910 0.410410 0.170910 -0.484919
O51   O     O_R   0.170090 0.910410 0.829090 -0.472567
O52   O     O_R   0.829910 0.910410 0.170910 -0.484330
N1    N     N_3   0.853399 0.068423 0.078396 -0.601637
H49   H     H_    0.826002 0.131690 0.110174 0.238515
H50   H     H_    0.885282 0.118439 0.043750 0.202848
N2    N     N_3   0.156746 0.089327 0.915506 -0.600964
H51   H     H_    0.186006 0.153315 0.886772 0.227799
H52   H     H_    0.122869 0.137930 0.949472 0.206169
N3    N     N_3   0.349731 0.578006 0.082062 -0.607119
H53   H     H_    0.322274 0.642652 0.112870 0.236740
H54   H     H_    0.382767 0.626087 0.047606 0.199791
N4    N     N_3   0.600424 0.446021 0.946205 -0.603417
H55   H     H_    0.609849 0.533055 0.924875 0.236332
H56   H     H_    0.562418 0.460555 0.985676 0.202109

loop_
_geom_bond_atom_site_label_1
_geom_bond_atom_site_label_2
_ccdc_geom_bond_type
C58   C62   A    
C56   N4    S    
C14   H30   S    
C93   C94   A    
C48   O36   A    
C55   C59   A    
C63   H11   S    
C8    H24   S    
C34   C37   A    
C41   C42   A    
C14   C18   A    
Cr9   O37   S    
C95   C96   A    
C8    C96   S    
C86   O42   A    
C82   O10   A    
C97   C98   A    
C69   C85   S    
C7    C8    S    
C46   C89   S    
Cr4   O20   S    
N1    H49   S    
C79   O51   A    
C50   C54   A    
C57   C61   A    
C51   C71   A    
Cr11  O15   S    
C55   N3    S    
C64   C68   A    
C75   O3    A    
C16   H32   S    
C35   H43   S    
C39   C84   S    
C38   C42   A    
C43   H47   S    
C99   H3    S    
C5    C6    S    
C30   C74   S    
Cr9   O13   S    
C98   H2    S    
Cr10  O38   S    
Cr10  O18   S    
C2    O26   A    
Cr6   O50   S    
Cr7   O27   S    
C92   C96   A    
Cr5   O49   S    
Cr8   O20   S    
C3    C18   S    
C61   H9    S    
C47   C92   S    
C5    H19   S    
Cr5   O25   S    
Cr8   O52   S    
C11   H27   S    
Cr12  O36   S    
C9    C13   A    
C77   O49   A    
Cr11  O39   S    
C15   C19   A    
C9    H25   S    
C49   H5    S    
C22   H34   S    
C6    C94   S    
C48   C91   S    
C83   O11   A    
Cr10  O34   S    
C51   H7    S    
C12   H28   S    
Cr9   O33   S    
C23   C27   A    
C91   C100  A    
C78   O50   A    
C90   C97   A    
Cr3   O19   S    
C85   O13   A    
C85   O41   A    
Cr12  O20   S    
Cr7   O19   S    
C10   H26   S    
Cr10  O14   S    
Cr8   O8    S    
C11   C31   A    
C18   C22   A    
C12   C32   A    
Cr11  O19   S    
C40   C83   S    
C87   O15   A    
C42   H46   S    
C11   C15   A    
Cr2   O18   S    
C46   O30   A    
Cr3   O47   S    
C59   C78   S    
C87   O43   A    
C72   C88   S    
Cr9   O9    S    
C90   C94   A    
Cr7   O7    S    
C75   O39   A    
N1    H50   S    
C25   C29   A    
C41   H45   S    
C63   C67   A    
C60   C77   S    
C59   C63   A    
C2    O22   A    
C62   C66   A    
C27   C31   A    
C53   N1    S    
Cr2   O22   S    
C12   C16   A    
C28   C32   A    
N2    H51   S    
Cr6   O26   S    
C6    H20   S    
C10   C14   A    
Cr5   O17   S    
N3    H53   S    
C74   O2    A    
C53   C57   A    
C19   C23   A    
C39   C43   A    
C51   C55   A    
C64   H12   S    
C83   O7    A    
C73   O1    A    
C89   C93   A    
C17   C21   A    
C74   O38   A    
C66   H14   S    
C46   O34   A    
C73   O37   A    
C68   C72   A    
C86   O14   A    
C35   C36   A    
C65   H13   S    
C54   N2    S    
C43   C44   A    
C78   O46   A    
C7    H23   S    
C15   H31   S    
C52   C72   A    
C77   O45   A    
N3    H54   S    
C10   C30   A    
C31   C75   S    
C99   C100  A    
C26   H38   S    
C16   C20   A    
C33   C34   A    
C5    H21   S    
C4    O24   A    
N4    H56   S    
C45   C90   S    
Cr2   O46   S    
Cr1   O45   S    
C58   C79   S    
C71   C87   S    
C4    C17   S    
C52   H8    S    
C45   O29   A    
C80   O48   A    
C57   C80   S    
C26   C30   A    
C34   H42   S    
C1    O25   A    
Cr4   O24   S    
C38   C81   S    
C76   O40   A    
C68   H16   S    
C44   H48   S    
Cr3   O23   S    
C37   C82   S    
C76   O4    A    
C21   H33   S    
Cr6   O30   S    
C97   H1    S    
C70   C86   S    
Cr4   O44   S    
C62   H10   S    
Cr1   O21   S    
Cr2   O2    S    
C36   H44   S    
C54   C58   A    
C47   O35   A    
C65   C69   A    
C21   C25   A    
C1    C20   S    
C27   H39   S    
Cr12  O16   S    
C2    C19   S    
C50   H6    S    
Cr3   O3    S    
C13   H29   S    
Cr8   O28   S    
C36   C39   A    
C24   C28   A    
C25   H37   S    
N2    H52   S    
C84   O12   A    
C3    O27   A    
C32   C76   S    
C5    C93   S    
Cr11  O11   S    
C47   O31   A    
C1    O21   A    
C9    C29   A    
Cr12  O40   S    
C7    C95   S    
C67   H15   S    
C81   O9    A    
C88   O16   A    
C80   O52   A    
C89   C98   A    
C60   C64   A    
C82   O6    A    
C100  H4    S    
C4    O28   A    
C28   H40   S    
Cr1   O1    S    
C35   C40   A    
C50   C70   A    
C33   H41   S    
C6    H22   S    
Cr1   O41   S    
C7    H17   S    
C56   C60   A    
Cr7   O51   S    
C8    H18   S    
Cr4   O4    S    
C66   C70   A    
C23   H35   S    
Cr6   O6    S    
C79   O47   A    
Cr5   O29   S    
Cr5   O5    S    
C67   C71   A    
C45   O33   A    
Cr4   O48   S    
C37   C41   A    
N4    H55   S    
C20   C24   A    
Cr3   O43   S    
C48   O32   A    
C49   C53   A    
Cr1   O17   S    
C91   C95   A    
C13   C17   A    
C61   C65   A    
C40   C44   A    
C29   C73   S    
C84   O8    A    
Cr10  O10   S    
Cr2   O42   S    
C22   C26   A    
Cr7   O31   S    
Cr9   O17   S    
C81   O5    A    
Cr8   O32   S    
C33   C38   A    
C49   C69   A    
C88   O44   A    
C3    O23   A    
Cr6   O18   S    
C24   H36   S    
C52   C56   A    
C92   C99   A    
Cr11  O35   S    
Cr12  O12   S    
