data_mof_unit_8331.cif
_audit_creation_date              2012-12-10T17:36:19-0500
_audit_creation_method            fapswitch 2.2
_symmetry_space_group_name_H-M    P1
_symmetry_Int_Tables_number       1
_space_group_crystal_system       triclinic
_cell_length_a                    12.321126
_cell_length_b                    13.141272
_cell_length_c                    15.853715
_cell_angle_alpha                 77.774835
_cell_angle_beta                  101.376401
_cell_angle_gamma                 116.433547
_cell_volume                      2230.85114953

loop_
_atom_site_label
_atom_site_type_symbol
_atom_type_description
_atom_site_fract_x
_atom_site_fract_y
_atom_site_fract_z
_atom_type_partial_charge
C1    C     C_R   0.854982 0.286398 0.507726 0.770464
C2    C     C_3   0.050546 0.408461 0.072159 0.016733
C3    C     C_3   0.996356 0.491711 0.083689 0.217161
C4    C     C_3   0.075878 0.614170 0.040842 -0.428101
C5    C     C_3   0.074228 0.615861 0.942809 -0.370234
C6    C     C_1   0.997284 0.494895 0.175603 -0.096684
C7    C     C_1   0.997903 0.495675 0.825262 -0.053957
C8    C     C_1   0.998473 0.497545 0.749455 -0.179116
C9    C     C_R   0.270562 0.030706 0.406142 0.483676
C10   C     C_R   0.227508 0.835737 0.474952 -0.111454
C11   C     C_R   0.815939 0.085836 0.568219 -0.198157
C12   C     C_R   0.999550 0.499380 0.659664 0.821716
C13   C     C_R   0.735767 0.972921 0.591108 -0.161020
C14   C     C_R   0.611601 0.936538 0.563804 -0.183776
C15   C     C_R   0.565058 0.011437 0.507625 0.109352
C16   C     C_R   0.649099 0.123529 0.478417 0.027386
C17   C     C_R   0.438345 0.979296 0.479879 -0.045126
C18   C     C_R   0.397522 0.059656 0.424833 -0.038405
C19   C     C_R   0.483880 0.165187 0.388251 0.423621
C20   C     C_R   0.608044 0.192678 0.412216 -0.320740
C21   C     C_R   0.350851 0.868538 0.504399 -0.237099
C22   C     C_R   0.186823 0.917420 0.428447 -0.315335
C23   C     C_R   0.145005 0.713657 0.488290 0.828046
C24   C     C_R   0.773229 0.163179 0.514779 -0.076053
C25   C     C_R   0.353252 0.338095 0.643200 -0.330132
C26   C     C_R   0.762464 0.647400 0.384888 0.024478
C27   C     C_R   0.677913 0.694099 0.367986 -0.284430
C28   C     C_R   0.579940 0.651032 0.417444 0.162422
C29   C     C_R   0.559349 0.548879 0.478868 -0.072954
C30   C     C_R   0.655502 0.510785 0.498412 0.229396
C31   C     C_R   0.452049 0.484442 0.524108 -0.041476
C32   C     C_R   0.452902 0.398258 0.595098 0.177631
C33   C     C_R   0.551713 0.370102 0.616731 -0.302557
C34   C     C_R   0.999941 0.499771 0.340387 0.826921
C35   C     C_R   0.648801 0.422705 0.568062 -0.172050
C36   C     C_R   0.340478 0.495667 0.499818 -0.005620
C37   C     C_R   0.251079 0.361110 0.620054 0.066910
C38   C     C_3   0.052443 0.412474 0.973255 -0.484994
C39   C     C_3   0.863651 0.450101 0.938456 0.352563
C40   C     C_3   0.864818 0.455387 0.035785 -0.418407
C41   C     C_1   0.998649 0.497445 0.250944 -0.186683
C42   C     C_3   0.996815 0.493823 0.917673 0.231107
Cu1   Cu    Cu3+1 0.098280 0.475420 0.519630 0.915979
Cu2   Cu    Cu3+1 0.901720 0.524580 0.480370 0.918883
H1    H     H_    0.148323 0.442817 0.960195 0.171108
H2    H     H_    0.146730 0.441429 0.103721 0.158637
H3    H     H_    0.041364 0.676134 0.049385 0.185035
H4    H     H_    0.090448 0.893325 0.407663 0.164777
H5    H     H_    0.376201 0.803670 0.544019 0.157694
H6    H     H_    0.910787 0.113740 0.595522 0.146216
H7    H     H_    0.555780 0.849165 0.588290 0.122003
H8    H     H_    0.769348 0.914209 0.633475 0.143969
H9    H     H_    0.000956 0.325630 0.952964 0.172769
H10   H     H_    0.672633 0.267534 0.376397 0.175031
H11   H     H_    0.174634 0.316568 0.657755 0.122132
H12   H     H_    0.552412 0.303689 0.670469 0.145503
H13   H     H_    0.354484 0.273674 0.698388 0.132844
H14   H     H_    0.324880 0.547059 0.440823 0.160093
H15   H     H_    0.840450 0.685976 0.348725 0.143161
H16   H     H_    0.694258 0.769967 0.319989 0.151350
H17   H     H_    0.717742 0.391924 0.588298 0.209962
H18   H     H_    0.814912 0.358093 0.927587 0.028807
H19   H     H_    0.802276 0.370458 0.067076 0.122456
H20   H     H_    0.829142 0.517844 0.041196 0.194525
H21   H     H_    0.169398 0.648119 0.927529 0.157188
H22   H     H_    0.036319 0.676493 0.904304 0.206293
H23   H     H_    0.171591 0.643303 0.072909 0.166178
N1    N     N_R   0.246300 0.438200 0.549400 -0.180828
N2    N     N_R   0.754300 0.561180 0.451130 -0.206243
O1    O     O_R   0.972520 0.318130 0.524690 -0.591345
O2    O     O_R   0.806530 0.359650 0.491530 -0.606594
O3    O     O_R   0.083030 0.479240 0.637150 -0.578198
O4    O     O_R   0.917040 0.520750 0.603990 -0.581916
O5    O     O_R   0.193470 0.640350 0.508470 -0.584697
O6    O     O_R   0.027480 0.681870 0.475310 -0.584327
O7    O     O_R   0.082960 0.479250 0.396010 -0.584786
O8    O     O_R   0.916970 0.520760 0.362850 -0.586018
C43   C     C_3   0.982455 0.283504 0.116677 -0.417887
C44   C     C_3   0.055398 0.212470 0.125701 -0.821415
H24   H     H_    0.071319 0.205517 0.061083 0.248906
H25   H     H_    0.144610 0.252073 0.165378 0.266860
H26   H     H_    0.003857 0.124619 0.158762 0.249438
H27   H     H_    0.965985 0.283403 0.183058 0.211940
H28   H     H_    0.892085 0.240073 0.079236 0.204927
O9    O     O_3   0.447234 0.231532 0.318757 -0.539845
C45   C     C_3   0.480891 0.341401 0.340361 0.127402
H29   H     H_    0.581490 0.388465 0.353718 0.143078
H30   H     H_    0.437551 0.334309 0.397928 0.147314
C46   C     C_3   0.438193 0.412057 0.263943 -0.796011
H31   H     H_    0.338664 0.366392 0.245203 0.253508
H32   H     H_    0.457769 0.496248 0.281887 0.204636
H33   H     H_    0.486716 0.426901 0.207378 0.241480
O10   O     O_3   0.227759 0.111744 0.363929 -0.543311
C47   C     C_3   0.183436 0.143068 0.425559 0.044474
H34   H     H_    0.257197 0.179723 0.478523 0.137303
H35   H     H_    0.105770 0.067941 0.454475 0.137504
C48   C     C_3   0.137251 0.233424 0.381509 -0.758338
H36   H     H_    0.096216 0.252987 0.428849 0.227120
H37   H     H_    0.213582 0.313688 0.357623 0.239533
H38   H     H_    0.066717 0.201231 0.326207 0.244497
C49   C     C_3   0.519492 0.730894 0.412961 -0.393521
C50   C     C_3   0.438380 0.735710 0.326979 -0.841724
H39   H     H_    0.383491 0.781956 0.331335 0.254722
H40   H     H_    0.375658 0.648497 0.311078 0.240686
H41   H     H_    0.495493 0.782659 0.273103 0.244451
H42   H     H_    0.469468 0.711094 0.469340 0.193458
H43   H     H_    0.591872 0.819086 0.418304 0.215327
O11   O     O_3   0.808274 0.519349 0.884360 -0.572021
C51   C     C_3   0.683199 0.452646 0.860405 0.054005
H44   H     H_    0.634339 0.410132 0.919049 0.134697
H45   H     H_    0.671439 0.386552 0.821293 0.136172
C52   C     C_3   0.626445 0.530090 0.804738 -0.760633
H46   H     H_    0.671614 0.571264 0.744594 0.256427
H47   H     H_    0.527726 0.478622 0.786382 0.202202
H48   H     H_    0.637045 0.597717 0.841535 0.239978

loop_
_geom_bond_atom_site_label_1
_geom_bond_atom_site_label_2
_ccdc_geom_bond_type
C49   H43   S    
C22   H4    S    
C5    C42   S    
C49   C50   S    
C19   C20   A    
C3    C6    S    
C48   H38   S    
C52   H47   S    
C48   H36   S    
C7    C8    T    
O9    C45   S    
C10   C22   A    
C26   C27   A    
O10   C47   S    
C40   H19   S    
C30   C35   A    
C50   H41   S    
Cu2   O8    S    
C38   C42   S    
C36   H14   S    
C27   H16   S    
C51   H45   S    
C34   O8    A    
C45   H30   S    
C9    C22   A    
C15   C16   A    
C37   N1    A    
C11   C24   A    
Cu1   O7    S    
O11   C51   S    
Cu2   O2    S    
C18   C19   A    
C7    C42   S    
C39   H18   S    
C38   H1    S    
C25   C37   A    
C28   C49   S    
C14   H7    S    
Cu1   N1    S    
C6    C41   T    
C46   H32   S    
C26   H15   S    
C8    C12   S    
C33   H12   S    
C12   O3    A    
C16   C24   A    
C12   O4    A    
C47   H34   S    
C34   C41   S    
C25   H13   S    
C43   H27   S    
C21   H5    S    
C52   H46   S    
C48   H37   S    
C39   C42   S    
C10   C21   A    
C39   O11   S    
C5    H21   S    
C51   C52   S    
C39   C40   S    
C44   H25   S    
C45   H29   S    
C5    H22   S    
C47   C48   S    
C2    H2    S    
Cu2   O6    S    
C47   H35   S    
Cu1   Cu2   S    
C29   C30   A    
C2    C43   S    
C4    H23   S    
C13   H8    S    
C2    C38   S    
C31   C32   A    
C14   C15   A    
C16   C20   A    
C17   C18   A    
Cu2   N2    S    
C35   H17   S    
C1    O2    A    
C46   H33   S    
C50   H40   S    
C20   H10   S    
C3    C40   S    
Cu1   O1    S    
C23   O5    A    
C3    C4    S    
C9    O10   S    
C30   N2    A    
C49   H42   S    
C15   C17   A    
Cu1   O3    S    
C28   C29   A    
C43   C44   S    
C23   O6    A    
C4    C5    S    
C19   O9    S    
C45   C46   S    
C44   H26   S    
C36   N1    A    
C10   C23   S    
C1    O1    A    
C40   H20   S    
C32   C33   A    
C2    C3    S    
C29   C31   A    
C11   H6    S    
C51   H44   S    
C11   C13   A    
C38   H9    S    
Cu1   O5    S    
C33   C35   A    
C50   H39   S    
C17   C21   A    
C44   H24   S    
C37   H11   S    
C43   H28   S    
C9    C18   A    
C1    C24   S    
C27   C28   A    
C26   N2    A    
C31   C36   A    
C46   H31   S    
C13   C14   A    
C4    H3    S    
C52   H48   S    
C34   O7    A    
C25   C32   A    
Cu2   O4    S    
