data_mof_unit_23396.cif
_audit_creation_date              2012-12-11T16:33:27-0500
_audit_creation_method            fapswitch 2.2
_symmetry_space_group_name_H-M    P1
_symmetry_Int_Tables_number       1
_space_group_crystal_system       triclinic
_cell_length_a                    6.954683
_cell_length_b                    18.207663
_cell_length_c                    20.199052
_cell_angle_alpha                 68.428473
_cell_angle_beta                  90.145596
_cell_angle_gamma                 90.380916
_cell_volume                      2378.57516141

loop_
_atom_site_label
_atom_site_type_symbol
_atom_type_description
_atom_site_fract_x
_atom_site_fract_y
_atom_site_fract_z
_atom_type_partial_charge
O1    O     O_R   0.488960 0.443750 0.941980 -0.527808
O2    O     O_R   0.823890 0.406510 0.087590 -0.538193
O3    O     O_R   0.999680 0.556250 0.058020 -0.534837
C1    C     C_R   0.654870 0.383195 0.114777 0.687603
O4    O     O_R   0.818360 0.434410 0.944340 -0.539775
O5    O     O_R   0.994110 0.584350 0.913750 -0.537556
C2    C     C_R   0.649829 0.420065 0.924057 0.717240
O6    O     O_R   0.494530 0.415650 0.086250 -0.537338
O7    O     O_3   0.662590 0.549160 0.990130 -0.370390
V1    V     V_3+5 0.935320 0.490880 0.001830 1.443477
O8    O     O_R   0.324180 0.593490 0.912410 -0.539180
C3    C     C_R   0.155377 0.616404 0.884917 0.693056
O9    O     O_R   0.329720 0.565590 0.055660 -0.543791
C4    C     C_R   0.161396 0.579506 0.076290 0.719941
V2    V     V_3+5 0.435990 0.509120 0.998170 1.435971
O10   O     O_3   0.158850 0.450840 0.009870 -0.362669
C5    C     C_3   0.964118 0.734318 0.286626 -0.138439
C6    C     C_3   0.116996 0.671265 0.290265 -0.137216
H1    H     H_    0.105325 0.607180 0.322518 0.102448
H2    H     H_    0.825885 0.722845 0.316181 0.103011
H3    H     H_    0.399256 0.709994 0.335686 0.105905
C7    C     C_1   0.153250 0.624755 0.122249 -0.192876
C8    C     C_1   0.112463 0.874145 0.378367 -0.174622
C9    C     C_3   0.984660 0.770042 0.204443 -0.135618
C10   C     C_3   0.137461 0.707662 0.208702 0.178135
C11   C     C_3   0.145597 0.826058 0.211481 -0.131250
C12   C     C_3   0.125265 0.789742 0.293039 0.174013
C13   C     C_3   0.298388 0.763032 0.215136 -0.159686
C14   C     C_3   0.277956 0.727307 0.297306 -0.151464
C15   C     C_1   0.145948 0.662130 0.161153 -0.068354
C16   C     C_1   0.118649 0.835978 0.340083 -0.044012
H4    H     H_    0.436446 0.774579 0.185462 0.106990
H5    H     H_    0.157917 0.890121 0.179245 0.135911
H6    H     H_    0.863442 0.787304 0.166031 0.099728
H7    H     H_    0.907741 0.528132 0.698790 0.120291
C17   C     C_R   0.271311 0.774436 0.872277 -0.136210
C18   C     C_R   0.327185 0.849638 0.868096 -0.120727
C19   C     C_R   0.314988 0.913276 0.803836 -0.120169
C20   C     C_R   0.246572 0.902220 0.743273 -0.139886
C21   C     C_R   0.190752 0.826361 0.745540 0.068276
C22   C     C_R   0.203612 0.761061 0.811469 0.069685
C23   C     C_R   0.119241 0.815318 0.683913 -0.184048
C24   C     C_R   0.060870 0.738832 0.688334 0.070284
C25   C     C_R   0.073716 0.673534 0.754269 0.064541
C26   C     C_R   0.145146 0.684588 0.815901 -0.184921
C27   C     C_R   0.993379 0.725437 0.627510 -0.135551
C28   C     C_R   0.937737 0.650211 0.631676 -0.125694
C29   C     C_R   0.949904 0.586577 0.695943 -0.114955
C30   C     C_R   0.018053 0.597660 0.756530 -0.134828
H8    H     H_    0.280539 0.727290 0.923856 0.103342
H9    H     H_    0.378938 0.858656 0.915148 0.112692
H10   H     H_    0.357331 0.971706 0.800975 0.115590
H11   H     H_    0.236527 0.954040 0.695023 0.111712
H12   H     H_    0.984190 0.772580 0.575928 0.102361
H13   H     H_    0.886185 0.641172 0.584608 0.111330
H14   H     H_    0.028060 0.545851 0.804794 0.118302
C31   C     C_R   0.750044 0.098608 0.257796 -0.218643
C32   C     C_R   0.812689 0.086555 0.196993 0.490893
C33   C     C_R   0.822268 0.150128 0.132212 -0.206094
C34   C     C_R   0.765741 0.225101 0.127653 -0.205178
C35   C     C_R   0.701177 0.238787 0.188493 0.068699
C36   C     C_R   0.691615 0.174077 0.254863 0.006026
C37   C     C_R   0.643812 0.315134 0.183817 -0.145087
C38   C     C_R   0.576952 0.326635 0.245606 0.069778
C39   C     C_R   0.567632 0.262093 0.312001 -0.000293
C40   C     C_R   0.622465 0.185396 0.316521 -0.132368
C41   C     C_R   0.522130 0.402311 0.242782 -0.199927
C42   C     C_R   0.462404 0.414671 0.303447 -0.245250
C43   C     C_R   0.461221 0.352183 0.370142 0.479743
C44   C     C_R   0.509155 0.276452 0.373250 -0.183376
H15   H     H_    0.747057 0.047736 0.306938 0.134771
H16   H     H_    0.873224 0.141277 0.085095 0.138014
H17   H     H_    0.772854 0.271954 0.075812 0.131325
H18   H     H_    0.526167 0.453413 0.193781 0.134645
H19   H     H_    0.418755 0.473647 0.297568 0.108515
H20   H     H_    0.504422 0.229254 0.424979 0.123536
O11   O     O_R   0.770540 0.084530 0.414050 -0.536460
O12   O     O_R   0.445710 0.065660 0.555720 -0.540396
O13   O     O_R   0.270420 0.915650 0.586190 -0.537448
C45   C     C_R   0.613883 0.079559 0.576580 0.724815
O14   O     O_R   0.441140 0.093540 0.412470 -0.537119
O15   O     O_R   0.265820 0.943740 0.441930 -0.536147
C46   C     C_R   0.610395 0.117107 0.385476 0.690034
O16   O     O_R   0.775150 0.056440 0.558310 -0.533957
O17   O     O_3   0.602370 0.950960 0.510050 -0.369711
V3    V     V_3+5 0.329450 0.009140 0.498150 1.437605
O18   O     O_R   0.935790 0.934280 0.444060 -0.542865
C47   C     C_R   0.104289 0.920201 0.423695 0.723101
O19   O     O_R   0.940370 0.906390 0.587310 -0.539549
C48   C     C_R   0.109106 0.883512 0.614898 0.690887
V4    V     V_3+5 0.828810 0.990710 0.501460 1.429996
O20   O     O_3   0.105780 0.049100 0.489960 -0.364281
C49   C     C_3   0.695050 0.320374 0.715536 -0.169939
C50   C     C_3   0.509319 0.283961 0.697406 -0.176704
H21   H     H_    0.407191 0.312571 0.653402 0.139913
H22   H     H_    0.751778 0.380591 0.685457 0.128007
C51   C     C_1   0.619047 0.124370 0.622927 -0.176079
C52   C     C_1   0.643179 0.373555 0.879232 -0.155816
C53   C     C_3   0.803757 0.242278 0.727768 -0.071201
C54   C     C_3   0.618687 0.206468 0.710149 0.095905
C55   C     C_3   0.744939 0.210635 0.807559 -0.125604
C56   C     C_3   0.637205 0.288322 0.794682 0.126428
C57   C     C_3   0.559692 0.174162 0.789354 -0.193602
C58   C     C_3   0.453709 0.252410 0.777008 0.303093
C59   C     C_1   0.618261 0.161368 0.662196 -0.024054
C60   C     C_1   0.641420 0.334937 0.841368 0.044876
H23   H     H_    0.501900 0.114105 0.819323 0.131567
H24   H     H_    0.839062 0.179742 0.853722 0.169030
H25   H     H_    0.948292 0.237724 0.706447 0.154023
O21   O     O_3   0.406342 0.360342 0.433412 -0.554347
C61   C     C_3   0.450843 0.435891 0.434378 0.096157
H26   H     H_    0.338533 0.478883 0.405180 0.117785
H27   H     H_    0.595369 0.457124 0.411093 0.113272
C62   C     C_3   0.453274 0.431646 0.510902 -0.714818
H28   H     H_    0.566994 0.390296 0.541183 0.223154
H29   H     H_    0.484149 0.491044 0.512151 0.172002
H30   H     H_    0.311290 0.410985 0.536163 0.224754
O22   O     O_3   0.876759 0.013026 0.202054 -0.563604
C63   C     C_3   0.723881 0.970253 0.186523 0.074623
H31   H     H_    0.786609 0.930075 0.162371 0.140764
H32   H     H_    0.619082 0.008134 0.146804 0.110520
C64   C     C_3   0.619326 0.919794 0.254529 -0.741513
H33   H     H_    0.534077 0.957523 0.275772 0.212165
H34   H     H_    0.519793 0.878480 0.242819 0.190473
H35   H     H_    0.723951 0.884968 0.295391 0.233161
Br1   Br    Br    0.208897 0.263501 0.816821 -0.652398

loop_
_geom_bond_atom_site_label_1
_geom_bond_atom_site_label_2
_ccdc_geom_bond_type
C25   C30   A    
O18   C47   A    
C21   C22   A    
C49   C50   S    
C2    C52   S    
O18   V4    S    
C45   C51   S    
C12   C14   S    
C61   H26   S    
C1    O6    A    
C62   H28   S    
O17   V4    S    
C31   C36   A    
O17   V3    S    
C42   H19   S    
C1    C37   S    
C13   C14   S    
C11   C12   S    
C55   C56   S    
C17   C18   A    
C9    C11   S    
O5    C3    A    
C19   C20   A    
C18   H9    S    
O12   C45   A    
C19   H10   S    
O11   C46   A    
V2    O10   S    
C53   H25   S    
C34   H17   S    
C32   O22   S    
C5    H2    S    
C6    H1    S    
C35   C37   A    
O22   C63   S    
O13   C48   A    
C40   C46   S    
O21   C61   S    
O8    V2    S    
C28   C29   A    
C42   C43   A    
O1    V2    S    
O16   V4    S    
O19   V4    S    
O7    V1    S    
C49   C53   S    
O14   V3    S    
C45   O16   A    
C33   H16   S    
C51   C59   T    
O12   V3    S    
C55   H24   S    
C21   C23   A    
C50   C58   S    
C33   C34   A    
C55   C57   S    
O9    C4    A    
C17   C22   A    
C43   C44   A    
C6    C10   S    
H7    C29   S    
O14   C46   A    
C63   H32   S    
C5    C9    S    
C36   C40   A    
C12   C16   S    
C41   C42   A    
C5    C12   S    
C38   C41   A    
C13   H4    S    
C9    C10   S    
O19   C48   A    
C20   C21   A    
O4    C2    A    
C32   C33   A    
O15   V3    S    
H3    C14   S    
C54   C57   S    
C9    H6    S    
C34   C35   A    
C23   C48   S    
C8    C16   T    
O2    C1    A    
C24   C25   A    
C18   C19   A    
C43   O21   S    
C11   H5    S    
C53   C54   S    
C50   C54   S    
O8    C3    A    
C27   H12   S    
C5    C6    S    
C54   C59   S    
C61   H27   S    
C6    C14   S    
C31   H15   S    
C56   C58   S    
O3    C4    A    
C29   C30   A    
C53   C55   S    
C49   H22   S    
C8    C47   S    
O9    V2    S    
C44   H20   S    
C23   C24   A    
C64   H34   S    
O2    V1    S    
V4    O20   S    
C17   H8    S    
C25   C26   A    
C28   H13   S    
C63   C64   S    
C10   C15   S    
C27   C28   A    
O11   V4    S    
C7    C15   T    
O1    C2    A    
C3    C26   S    
C49   C56   S    
O5    V1    S    
C62   H29   S    
C63   H31   S    
O6    V2    S    
C30   H14   S    
C11   C13   S    
C52   C60   T    
C38   C39   A    
C4    C7    S    
C64   H35   S    
C35   C36   A    
O7    V2    S    
O4    V1    S    
O3    V1    S    
V3    O20   S    
C31   C32   A    
C20   H11   S    
V1    O10   S    
O15   C47   A    
C56   C60   S    
C61   C62   S    
C41   H18   S    
C50   H21   S    
C24   C27   A    
C62   H30   S    
C10   C13   S    
C37   C38   A    
C58   Br1   S    
C39   C40   A    
C57   C58   S    
C22   C26   A    
C57   H23   S    
C64   H33   S    
O13   V3    S    
C39   C44   A    
