data_mof_unit_37976.cif
_audit_creation_date              2012-12-10T18:42:34-0500
_audit_creation_method            fapswitch 2.2
_symmetry_space_group_name_H-M    P1
_symmetry_Int_Tables_number       1
_space_group_crystal_system       triclinic
_cell_length_a                    8.633434
_cell_length_b                    10.707296
_cell_length_c                    9.841859
_cell_angle_alpha                 89.972451
_cell_angle_beta                  97.902142
_cell_angle_gamma                 90.154381
_cell_volume                      901.14632832

loop_
_atom_site_label
_atom_site_type_symbol
_atom_type_description
_atom_site_fract_x
_atom_site_fract_y
_atom_site_fract_z
_atom_type_partial_charge
C1    C     C_R   0.499958 0.259901 0.499963 0.856212
C2    C     C_R   0.458921 0.063852 0.613777 -0.192162
C3    C     C_R   0.500037 0.872530 0.500019 -0.008292
C4    C     C_R   0.499963 0.127470 0.499981 -0.008293
C5    C     C_R   0.601414 0.574289 0.084109 -0.083078
C6    C     C_R   0.398586 0.425711 0.915891 -0.083079
C7    C     C_R   0.601352 0.574275 0.940207 -0.068045
C8    C     C_R   0.398648 0.425725 0.059793 -0.068045
C9    C     C_3   0.976525 0.375799 0.347511 -0.901246
C10   C     C_3   0.023476 0.624198 0.652493 -0.901243
C11   C     C_R   0.500042 0.740098 0.500037 0.856212
C12   C     C_R   0.201963 0.497482 0.465496 0.965263
C13   C     C_R   0.798037 0.502518 0.534504 0.965262
C14   C     C_2   0.040285 0.474372 0.452513 -0.022874
C15   C     C_2   0.959715 0.525628 0.547488 -0.022873
C16   C     C_R   0.541042 0.064121 0.386203 -0.202252
C17   C     C_R   0.458958 0.935879 0.613797 -0.202252
C18   C     C_R   0.541079 0.936148 0.386222 -0.192163
H1    H     H_    0.574242 0.113126 0.298204 0.157800
H2    H     H_    0.905534 0.305412 0.394687 0.237038
H3    H     H_    0.905493 0.420434 0.258040 0.266974
H4    H     H_    0.927757 0.676216 0.692021 0.231343
H5    H     H_    0.094507 0.579562 0.741963 0.266974
H6    H     H_    0.094466 0.694588 0.605319 0.237038
H7    H     H_    0.425758 0.886874 0.701796 0.157800
H8    H     H_    0.574289 0.887356 0.298231 0.153502
H9    H     H_    0.425710 0.112644 0.701769 0.153502
H10   H     H_    0.682490 0.633666 0.148367 0.127534
H11   H     H_    0.317509 0.366335 0.851633 0.127534
H12   H     H_    0.682363 0.633669 0.895383 0.127886
H13   H     H_    0.317637 0.366331 0.104617 0.127887
H14   H     H_    0.072245 0.323780 0.307985 0.231345
N1    N     N_R   0.499960 0.499970 0.857200 -0.079771
N2    N     N_R   0.500040 0.500030 0.142800 -0.079771
O1    O     O_R   0.499990 0.316750 0.614620 -0.626703
O2    O     O_R   0.500010 0.683250 0.385380 -0.626703
O3    O     O_R   0.499990 0.316780 0.385290 -0.631194
O4    O     O_R   0.500010 0.683220 0.614710 -0.631194
O5    O     O_R   0.271750 0.499990 0.587840 -0.624193
O6    O     O_R   0.728250 0.500010 0.412160 -0.624194
O7    O     O_R   0.271750 0.500010 0.358510 -0.620610
O8    O     O_R   0.728250 0.499990 0.641490 -0.620610
Zn1   Zn    Zn3+2 0.500000 0.499980 0.653120 0.936868
Zn2   Zn    Zn3+2 0.500000 0.500020 0.346880 0.936867

loop_
_geom_bond_atom_site_label_1
_geom_bond_atom_site_label_2
_ccdc_geom_bond_type
C4    C16   A    
C11   O4    A    
C2    C4    A    
C9    C14   S    
C12   O7    A    
C10   H5    S    
C5    H10   S    
O1    Zn1   S    
C9    H2    S    
C18   H8    S    
C6    N1    A    
C1    O3    A    
C1    C4    S    
C17   H7    S    
C5    N2    A    
C12   O5    A    
O4    Zn1   S    
C7    H12   S    
C8    N2    A    
C10   H4    S    
C2    C17   A    
C7    N1    A    
C9    H3    S    
C2    H9    S    
O3    Zn2   S    
C16   H1    S    
C6    C8    A    
C13   O8    A    
C12   C14   S    
C3    C17   A    
C10   C15   S    
C13   C15   S    
O7    Zn2   S    
O2    Zn2   S    
C3    C11   S    
O8    Zn1   S    
N1    Zn1   S    
O6    Zn2   S    
C6    H11   S    
N2    Zn2   S    
C1    O1    A    
C3    C18   A    
C16   C18   A    
C5    C7    A    
C14   C15   D    
C11   O2    A    
C13   O6    A    
O5    Zn1   S    
C9    H14   S    
C10   H6    S    
C8    H13   S    
