data_mof_unit_49904.cif
_audit_creation_date              2012-12-10T17:44:29-0500
_audit_creation_method            fapswitch 2.2
_symmetry_space_group_name_H-M    P1
_symmetry_Int_Tables_number       1
_space_group_crystal_system       triclinic
_cell_length_a                    9.97591
_cell_length_b                    10.671031
_cell_length_c                    15.430541
_cell_angle_alpha                 93.839353
_cell_angle_beta                  68.412058
_cell_angle_gamma                 90.870676
_cell_volume                      1523.9002111

loop_
_atom_site_label
_atom_site_type_symbol
_atom_type_description
_atom_site_fract_x
_atom_site_fract_y
_atom_site_fract_z
_atom_type_partial_charge
C1    C     C_R   0.504434 0.738700 0.493561 0.882679
C2    C     C_R   0.741538 0.456104 0.028283 0.175134
C3    C     C_R   0.597032 0.424888 0.081777 0.096929
C4    C     C_R   0.410177 0.493848 0.675369 0.890285
C5    C     C_R   0.837204 0.493902 0.072435 -0.223980
C6    C     C_R   0.789715 0.505644 0.169371 -0.197897
C7    C     C_R   0.551906 0.438123 0.179019 -0.273816
C8    C     C_R   0.413918 0.854501 0.355413 -0.177282
C9    C     C_R   0.365098 0.913387 0.294410 -0.128989
C10   C     C_R   0.363849 0.043739 0.294978 -0.143400
C11   C     C_R   0.411020 0.115849 0.356742 -0.187325
C12   C     C_R   0.435094 0.411649 0.900366 0.092678
C13   C     C_R   0.457484 0.057982 0.420935 0.106332
C14   C     C_R   0.459491 0.925997 0.420024 0.099500
C15   C     C_R   0.514036 0.870212 0.481154 -0.121475
C16   C     C_R   0.502376 0.260425 0.494306 0.858228
C17   C     C_R   0.579476 0.941492 0.532950 -0.221197
C18   C     C_R   0.573315 0.068980 0.536372 -0.218928
C19   C     C_R   0.508031 0.127208 0.483997 -0.099480
C20   C     C_R   0.790194 0.652101 0.646110 0.556236
C21   C     C_R   0.830838 0.700625 0.720833 -0.296434
C22   C     C_R   0.971385 0.697976 0.714051 -0.291117
C23   C     C_R   0.293607 0.371064 0.950219 0.182123
C24   C     C_R   0.073867 0.642457 0.635590 -0.145561
C25   C     C_R   0.037153 0.570911 0.568280 0.106968
C26   C     C_R   0.891320 0.572783 0.570475 0.052985
C27   C     C_R   0.964771 0.431957 0.434453 -0.120460
C28   C     C_R   0.590215 0.496620 0.324256 0.827191
C29   C     C_R   0.107176 0.431911 0.434575 -0.096806
C30   C     C_R   0.360592 0.461466 0.772930 -0.071152
C31   C     C_R   0.645901 0.480609 0.222654 -0.047623
C32   C     C_R   0.189321 0.369796 0.908760 -0.224598
C33   C     C_R   0.222813 0.414746 0.820141 -0.206090
C34   C     C_R   0.541904 0.411132 0.940457 0.062015
C35   C     C_R   0.463899 0.459931 0.813913 -0.273227
C36   C     C_3   0.566495 0.763286 0.718243 -0.388619
C37   C     C_R   0.498931 0.392852 0.036711 0.071579
C38   C     C_R   0.358303 0.347497 0.084530 -0.236067
C39   C     C_R   0.258353 0.334413 0.040943 -0.246484
C40   C     C_R   0.689486 0.431517 0.887959 -0.231768
C41   C     C_R   0.787584 0.453032 0.931509 -0.242537
H1    H     H_    0.151340 0.300627 0.079757 0.148795
H2    H     H_    0.758121 0.752343 0.782262 0.162245
H3    H     H_    0.441539 0.421315 0.222358 0.150039
H4    H     H_    0.002540 0.745996 0.767763 0.174270
H5    H     H_    0.181884 0.658685 0.629576 0.220840
H6    H     H_    0.189757 0.375758 0.380883 0.126931
H7    H     H_    0.864013 0.537532 0.202455 0.158907
H8    H     H_    0.898389 0.473169 0.889504 0.150333
H9    H     H_    0.082409 0.333923 0.944759 0.143096
H10   H     H_    0.142990 0.410448 0.787874 0.159297
H11   H     H_    0.567625 0.499287 0.777565 0.163023
H12   H     H_    0.947177 0.518819 0.032120 0.146468
H13   H     H_    0.323391 0.319314 0.155256 0.134808
H14   H     H_    0.732580 0.430280 0.812684 0.152868
H15   H     H_    0.609773 0.857351 0.728590 0.165461
H16   H     H_    0.536532 0.711026 0.782296 0.161455
H17   H     H_    0.465423 0.778731 0.705893 0.180058
H18   H     H_    0.631877 0.899223 0.573579 0.207268
H19   H     H_    0.419782 0.753179 0.348868 0.163824
H20   H     H_    0.330932 0.857559 0.245177 0.138966
H21   H     H_    0.328718 0.089168 0.246202 0.130697
H22   H     H_    0.414380 0.216322 0.351293 0.145205
H23   H     H_    0.617601 0.122443 0.581745 0.167953
H24   H     H_    0.941280 0.376050 0.380735 0.138184
N1    N     N_R   0.856800 0.501200 0.500850 -0.103223
N2    N     N_R   0.142390 0.501280 0.500880 -0.107599
O1    O     O_R   0.385310 0.683220 0.500000 -0.648849
O2    O     O_R   0.614640 0.683250 0.500010 -0.535406
O3    O     O_R   0.319840 0.499980 0.632240 -0.641572
O4    O     O_R   0.549160 0.500000 0.632250 -0.559678
O5    O     O_R   0.385360 0.316750 0.499990 -0.615801
O6    O     O_R   0.614690 0.316780 0.500000 -0.618077
O7    O     O_R   0.450840 0.500000 0.367750 -0.634303
O8    O     O_R   0.680160 0.500020 0.367760 -0.619211
O9    O     O_3   0.664657 0.694907 0.638790 -0.561852
Zn1   Zn    Zn3+2 0.346880 0.499980 0.499990 0.924314
Zn2   Zn    Zn3+2 0.653120 0.500020 0.500010 0.981720

loop_
_geom_bond_atom_site_label_1
_geom_bond_atom_site_label_2
_ccdc_geom_bond_type
C27   C29   A    
C34   C37   A    
N2    Zn1   S    
C28   O7    A    
C16   O5    A    
C4    O3    A    
C12   C23   A    
O5    Zn1   S    
C6    H7    S    
C30   C35   A    
C29   H6    S    
C9    H20   S    
C5    H12   S    
C3    C7    A    
C36   H17   S    
C5    C6    A    
C2    C41   A    
C1    O1    A    
C20   O9    S    
C18   C19   A    
C36   O9    S    
C21   H2    S    
C8    C9    A    
O7    Zn1   S    
C25   N2    A    
O6    Zn2   S    
C1    C15   S    
C9    C10   A    
C6    C31   A    
C29   N2    A    
C21   C22   A    
O3    Zn1   S    
O2    Zn2   S    
C10   H21   S    
C41   H8    S    
C39   H1    S    
N1    Zn2   S    
C7    C31   A    
C13   C19   A    
C16   O6    A    
C26   N1    A    
C24   C25   A    
C36   H16   S    
C25   C26   A    
C1    O2    A    
C37   C38   A    
C27   H24   S    
C38   H13   S    
C40   H14   S    
C17   C18   A    
C7    H3    S    
C12   C35   A    
C32   H9    S    
C17   H18   S    
C40   C41   A    
C22   C24   A    
C2    C5    A    
C12   C34   A    
O1    Zn1   S    
C15   C17   A    
C8    C14   A    
C30   C33   A    
C28   C31   S    
C23   C32   A    
C33   H10   S    
C11   H22   S    
C24   H5    S    
C32   C33   A    
C2    C3    A    
C27   N1    A    
C8    H19   S    
C11   C13   A    
C18   H23   S    
C38   C39   A    
C20   C26   A    
C16   C19   S    
C23   C39   A    
C36   H15   S    
O4    Zn2   S    
O8    Zn2   S    
C10   C11   A    
C22   H4    S    
C20   C21   A    
C3    C37   A    
C35   H11   S    
C14   C15   A    
C34   C40   A    
C13   C14   A    
C28   O8    A    
C4    O4    A    
C4    C30   S    
