data_mof_unit_55375.cif
_audit_creation_date              2012-12-10T18:13:55-0500
_audit_creation_method            fapswitch 2.2
_symmetry_space_group_name_H-M    P1
_symmetry_Int_Tables_number       1
_space_group_crystal_system       triclinic
_cell_length_a                    10.728127
_cell_length_b                    9.543715
_cell_length_c                    23.587052
_cell_angle_alpha                 91.168501
_cell_angle_beta                  89.79652
_cell_angle_gamma                 90.211201
_cell_volume                      2414.45510128

loop_
_atom_site_label
_atom_site_type_symbol
_atom_type_description
_atom_site_fract_x
_atom_site_fract_y
_atom_site_fract_z
_atom_type_partial_charge
C1    C     C_R   0.260232 0.499808 0.499034 0.875461
C2    C     C_R   0.586317 0.555426 0.120386 0.613157
C3    C     C_R   0.569753 0.435037 0.235861 -0.148403
C4    C     C_R   0.498909 0.499720 0.391245 0.970159
C5    C     C_R   0.581486 0.436516 0.294523 0.350699
C6    C     C_R   0.490841 0.502820 0.328790 -0.266935
C7    C     C_R   0.398746 0.585443 0.302638 0.289628
C8    C     C_R   0.395942 0.595982 0.243230 0.419245
C9    C     C_R   0.478944 0.515773 0.209450 0.089721
C10   C     C_R   0.418021 0.415089 0.759961 -0.086073
C11   C     C_R   0.417040 0.414540 0.700812 0.360928
C12   C     C_R   0.261577 0.496084 0.968108 -0.141606
C13   C     C_R   0.500435 0.501393 0.671056 -0.197409
C14   C     C_R   0.585818 0.585348 0.701866 0.349841
C15   C     C_R   0.578072 0.594068 0.760840 -0.086350
C16   C     C_R   0.739651 0.500102 0.498986 0.855311
C17   C     C_R   0.495447 0.507834 0.790694 0.160342
C18   C     C_3   0.071110 0.473493 0.559351 0.176573
C19   C     C_3   0.071260 0.379751 0.458659 0.165316
C20   C     C_3   0.926823 0.473498 0.558925 -0.376255
C21   C     C_3   0.927436 0.383306 0.457518 -0.331825
C22   C     C_3   0.071670 0.642536 0.477627 -0.321679
C23   C     C_R   0.257013 0.487708 0.027098 0.417925
C24   C     C_3   0.122009 0.499708 0.498459 -0.064651
C25   C     C_3   0.877822 0.499948 0.498402 -0.069345
C26   C     C_3   0.928955 0.642857 0.478140 -0.318254
C27   C     C_3   0.607053 0.081000 0.534516 0.313574
C28   C     C_3   0.588186 0.919431 0.544204 0.326383
C29   C     C_3   0.381095 0.082648 0.522830 -0.298050
C30   C     C_3   0.375051 0.917237 0.514852 -0.309615
C31   C     C_3   0.518624 0.079851 0.442853 0.223716
C32   C     C_3   0.531386 0.913036 0.444193 0.216153
C33   C     C_R   0.500598 0.500808 0.608691 0.942388
C34   C     C_R   0.368405 0.499734 0.059137 -0.122318
C35   C     C_R   0.602543 0.511405 0.881891 0.608108
C36   C     C_R   0.380206 0.515280 0.880101 0.603076
C37   C     C_R   0.375509 0.509868 0.939391 -0.078749
C38   C     C_R   0.486892 0.520121 0.970352 -0.055317
C39   C     C_R   0.602543 0.527845 0.941543 -0.109161
C40   C     C_R   0.482394 0.522378 0.030259 -0.059983
C41   C     C_R   0.592311 0.546930 0.061163 -0.084631
C42   C     C_R   0.705994 0.562717 0.032528 -0.137391
C43   C     C_R   0.712851 0.550269 0.973596 0.414496
C44   C     C_R   0.371743 0.488777 0.118815 0.675621
Cl1   Cl    Cl    0.308162 0.304399 0.665980 -0.516324
Cl2   Cl    Cl    0.862231 0.573013 0.943401 -0.428593
Cl3   Cl    Cl    0.724500 0.380715 0.321576 -0.447981
Cl4   Cl    Cl    0.289217 0.681736 0.343718 -0.500751
Cl5   Cl    Cl    0.295134 0.717951 0.211727 -0.373782
Cl6   Cl    Cl    0.714092 0.666519 0.669165 -0.492771
Cl7   Cl    Cl    0.128829 0.599513 0.610639 -0.506827
Cl8   Cl    Cl    0.133324 0.386320 0.387985 -0.489674
Cl9   Cl    Cl    0.656373 0.171686 0.597983 -0.489245
Cl10  Cl    Cl    0.534909 0.894098 0.616310 -0.439400
Cl11  Cl    Cl    0.107199 0.471313 0.057506 -0.406759
Cl12  Cl    Cl    0.650959 0.153122 0.406988 -0.455809
Cl13  Cl    Cl    0.680354 0.847585 0.419856 -0.526149
Cu1   Cu    Cu3+1 0.499860 0.642410 0.500030 1.046928
Cu2   Cu    Cu3+1 0.499860 0.357590 0.500030 1.057512
H1    H     H_    0.791192 0.582039 0.056017 0.245044
H2    H     H_    0.105699 0.730712 0.505078 0.210744
H3    H     H_    0.105736 0.662863 0.434032 0.255059
H4    H     H_    0.896011 0.729588 0.506676 0.216186
H5    H     H_    0.894529 0.663605 0.434667 0.247446
H6    H     H_    0.695175 0.089825 0.509997 0.128881
H7    H     H_    0.680049 0.866742 0.540851 0.143842
H8    H     H_    0.369230 0.111653 0.568367 0.269224
H9    H     H_    0.334248 0.868991 0.553166 0.257938
H10   H     H_    0.436811 0.106054 0.416182 0.140048
H11   H     H_    0.463803 0.870695 0.412575 0.176163
H12   H     H_    0.175042 0.488974 0.944644 0.244953
H13   H     H_    0.300678 0.127479 0.500090 0.177406
H14   H     H_    0.307747 0.890434 0.480405 0.165237
H15   H     H_    0.637712 0.378388 0.210308 0.227240
H16   H     H_    0.356984 0.343781 0.782052 0.213769
H17   H     H_    0.639956 0.665133 0.783550 0.219476
H18   H     H_    0.103434 0.369114 0.573412 0.157482
H19   H     H_    0.100230 0.276819 0.475564 0.118984
H20   H     H_    0.891705 0.370832 0.574043 0.200522
H21   H     H_    0.891026 0.278967 0.470052 0.199052
H22   H     H_    0.890008 0.555523 0.588514 0.263830
H23   H     H_    0.893256 0.402468 0.413986 0.275470
N1    N     N_R   0.492604 0.511841 0.852118 -0.453539
N2    N     N_R   0.478161 0.522409 0.148293 -0.446959
N3    N     N_3   0.500250 0.143650 0.501250 -0.229638
N4    N     N_3   0.500250 0.856350 0.501250 -0.247951
O1    O     O_R   0.317570 0.620260 0.500030 -0.579912
O2    O     O_2   0.272879 0.525014 0.850785 -0.470896
O3    O     O_2   0.271311 0.441723 0.147249 -0.392791
O4    O     O_2   0.688321 0.595767 0.149936 -0.461276
O5    O     O_R   0.317570 0.379740 0.500030 -0.607796
O6    O     O_R   0.499840 0.620290 0.417900 -0.546841
O7    O     O_R   0.499840 0.379710 0.417900 -0.530927
O8    O     O_R   0.682190 0.620260 0.500010 -0.566756
O9    O     O_R   0.682190 0.379740 0.500010 -0.546122
O10   O     O_R   0.499920 0.620230 0.582140 -0.519679
O11   O     O_R   0.499920 0.379770 0.582140 -0.509346
O12   O     O_2   0.710806 0.490752 0.853872 -0.427761

loop_
_geom_bond_atom_site_label_1
_geom_bond_atom_site_label_2
_ccdc_geom_bond_type
C1    O1    A    
C31   N3    S    
C41   C42   A    
C2    N2    A    
Cu1   O1    S    
C7    C8    A    
C36   O2    S    
C5    Cl3   S    
C12   C23   A    
C29   C30   S    
C34   C40   A    
C36   C37   A    
C19   C21   S    
C5    C6    A    
C20   C25   S    
C36   N1    A    
C27   N3    S    
C12   C37   A    
C2    O4    S    
C3    H15   S    
C26   H5    S    
Cu1   O10   S    
C29   H8    S    
C19   Cl8   S    
C8    C9    A    
C18   C24   S    
C31   Cl12  S    
C30   N4    S    
C35   O12   S    
C29   N3    S    
C29   H13   S    
C15   H17   S    
C1    O5    A    
C13   C14   A    
Cu2   O9    S    
C32   Cl13  S    
Cu1   N4    S    
C18   Cl7   S    
C27   H6    S    
C38   C39   A    
C34   C44   A    
C4    C6    S    
C42   H1    S    
C30   H14   S    
C28   Cl10  S    
C39   C43   A    
C3    C5    A    
Cu1   Cu2   S    
C17   N1    S    
C19   H19   S    
C28   H7    S    
C26   H4    S    
Cu2   N3    S    
C13   C33   S    
C37   C38   A    
C3    C9    A    
C22   H3    S    
C10   H16   S    
C31   C32   S    
C23   C34   A    
C32   N4    S    
Cu2   O5    S    
C40   C41   A    
C12   H12   S    
C28   N4    S    
Cu2   O11   S    
C22   C24   S    
C11   Cl1   S    
C42   C43   A    
C10   C17   A    
C33   O10   A    
C16   C25   S    
C15   C17   A    
C21   C25   S    
C16   O9    A    
C35   N1    A    
C20   H20   S    
C44   N2    A    
C32   H11   S    
C27   Cl9   S    
C23   Cl11  S    
C6    C7    A    
C16   O8    A    
C7    Cl4   S    
C19   C24   S    
C25   C26   S    
C2    C41   A    
C22   H2    S    
C38   C40   A    
C11   C13   A    
C14   Cl6   S    
C18   H18   S    
C35   C39   A    
C21   H21   S    
C18   C20   S    
Cu1   O8    S    
C43   Cl2   S    
C10   C11   A    
C9    N2    S    
C4    O7    A    
C31   H10   S    
C21   H23   S    
C1    C24   S    
C22   C26   S    
C27   C28   S    
C14   C15   A    
Cu2   O7    S    
C33   O11   A    
C20   H22   S    
Cu1   O6    S    
C8    Cl5   S    
C30   H9    S    
C44   O3    S    
C4    O6    A    
