data_mof_unit_18073.cif
_audit_creation_date              2012-12-10T19:57:39-0500
_audit_creation_method            fapswitch 2.2
_symmetry_space_group_name_H-M    P1
_symmetry_Int_Tables_number       1
_space_group_crystal_system       triclinic
_cell_length_a                    25.97916
_cell_length_b                    25.893572
_cell_length_c                    18.310868
_cell_angle_alpha                 90.037037
_cell_angle_beta                  134.960315
_cell_angle_gamma                 89.881006
_cell_volume                      8715.86256904

loop_
_atom_site_label
_atom_site_type_symbol
_atom_type_description
_atom_site_fract_x
_atom_site_fract_y
_atom_site_fract_z
_atom_type_partial_charge
C1    C     C_R   0.889167 0.750574 0.498273 0.537030
C2    C     C_R   0.437636 0.253384 0.891491 -0.042644
C3    C     C_R   0.248744 0.890003 0.498776 0.538563
C4    C     C_R   0.889348 0.750664 0.780139 0.544124
C5    C     C_R   0.888862 0.248769 0.780053 0.538612
C6    C     C_R   0.389259 0.250170 0.780211 0.546321
C7    C     C_R   0.390251 0.750408 0.780043 0.578504
C8    C     C_R   0.611118 0.751011 0.220185 0.524407
C9    C     C_R   0.608543 0.250955 0.219834 0.527826
C10   C     C_R   0.109263 0.249679 0.219562 0.554345
C11   C     C_R   0.108855 0.751244 0.219932 0.544350
C12   C     C_R   0.507184 0.711040 0.054543 -0.050733
C13   C     C_R   0.938424 0.242245 0.891003 -0.043035
C14   C     C_R   0.534602 0.297588 0.052021 -0.071023
C15   C     C_R   0.057710 0.216902 0.052915 -0.094358
C16   C     C_R   0.060351 0.779521 0.052693 -0.089413
C17   C     C_R   0.555520 0.752369 0.108703 -0.015693
C18   C     C_R   0.545035 0.255174 0.108777 -0.044713
C19   C     C_R   0.048381 0.245103 0.107768 -0.012634
C20   C     C_R   0.048176 0.757451 0.108705 -0.029112
C21   C     C_R   0.544913 0.796900 0.054078 0.236450
C22   C     C_R   0.489175 0.216894 0.055137 0.250740
C23   C     C_R   0.978751 0.266168 0.053881 0.247711
C24   C     C_R   0.940198 0.756102 0.891511 -0.047077
C25   C     C_R   0.975691 0.744145 0.054833 0.257705
C26   C     C_3   0.590669 0.871236 0.152582 -0.003033
C27   C     C_3   0.612040 0.924435 0.145982 -0.356570
C28   C     C_3   0.457717 0.180550 0.134607 0.022593
C29   C     C_3   0.421189 0.129983 0.119215 -0.360219
C30   C     C_3   0.924444 0.280703 0.111780 0.022341
C31   C     C_3   0.870992 0.323023 0.080268 -0.332501
C32   C     C_3   0.952753 0.774108 0.147184 -0.000823
C33   C     C_3   0.893999 0.766227 0.145715 -0.345560
C34   C     C_3   0.349524 0.761208 0.259725 -0.011914
C35   C     C_R   0.453995 0.710941 0.947890 -0.027659
C36   C     C_3   0.319472 0.765423 0.152289 -0.367086
C37   C     C_3   0.345325 0.239297 0.258307 -0.006214
C38   C     C_3   0.315660 0.236695 0.150988 -0.382040
C39   C     C_3   0.846000 0.255499 0.251706 -0.039621
C40   C     C_3   0.775049 0.225748 0.186677 -0.332016
C41   C     C_3   0.779034 0.693794 0.234945 0.026508
C42   C     C_3   0.713369 0.693617 0.118541 -0.346527
C43   C     C_3   0.855427 0.099904 0.433259 0.010047
C44   C     C_3   0.853427 0.117511 0.352331 -0.376268
C45   C     C_3   0.835031 0.894544 0.415539 0.000998
C46   C     C_R   0.485288 0.294516 0.946748 -0.027395
C47   C     C_3   0.838447 0.874955 0.340684 -0.367835
C48   C     C_3   0.311350 0.560530 0.363931 0.039913
C49   C     C_3   0.286320 0.616608 0.335438 -0.371456
C50   C     C_3   0.349354 0.399984 0.431025 0.008077
C51   C     C_3   0.346298 0.384661 0.347901 -0.375143
C52   C     C_3   0.435645 0.875694 0.872819 0.007931
C53   C     C_3   0.419414 0.915908 0.798201 -0.344516
C54   C     C_3   0.320412 0.189220 0.864944 0.010690
C55   C     C_3   0.265479 0.146183 0.798118 -0.315232
C56   C     C_3   0.803789 0.240162 0.851367 -0.008410
C57   C     C_R   0.004385 0.216771 0.946377 -0.046598
C58   C     C_3   0.733622 0.260884 0.813969 -0.331306
C59   C     C_3   0.806188 0.768079 0.858152 0.007217
C60   C     C_3   0.732651 0.748922 0.811006 -0.326229
C61   C     C_3   0.549385 0.630449 0.209485 0.015168
C62   C     C_3   0.534283 0.589726 0.252156 -0.389335
C63   C     C_3   0.609609 0.391630 0.181339 0.030979
C64   C     C_3   0.596304 0.446417 0.195078 -0.380785
C65   C     C_3   0.143709 0.131319 0.111621 0.017078
C66   C     C_3   0.196135 0.087807 0.145541 -0.357474
C67   C     C_3   0.146968 0.863108 0.106611 0.016567
C68   C     C_R   0.007753 0.778554 0.946511 -0.048751
C69   C     C_3   0.200841 0.905306 0.141042 -0.353785
C70   C     C_3   0.551412 0.629801 0.483837 0.016292
C71   C     C_3   0.536065 0.577238 0.502172 -0.355479
C72   C     C_3   0.553508 0.372925 0.506249 0.005825
C73   C     C_3   0.548672 0.421766 0.547528 -0.366872
C74   C     C_3   0.060824 0.128404 0.510874 0.004468
C75   C     C_3   0.061851 0.076944 0.551997 -0.363955
C76   C     C_3   0.109823 0.866776 0.599018 0.017041
C77   C     C_3   0.074102 0.903788 0.617452 -0.410762
C78   C     C_3   0.462076 0.654176 0.942008 0.502422
C79   C     C_3   0.529042 0.327303 0.940026 0.515439
C80   C     C_3   0.058108 0.219880 0.938553 0.485774
C81   C     C_R   0.890149 0.250138 0.500336 0.528571
C82   C     C_3   0.062418 0.771415 0.941026 0.485424
C83   C     C_3   0.520842 0.653731 0.060747 0.485679
C84   C     C_3   0.582121 0.334931 0.057728 0.490189
C85   C     C_3   0.118093 0.219726 0.057383 0.511242
C86   C     C_3   0.121710 0.773594 0.060087 0.510969
C87   C     C_R   0.516766 0.794893 0.479864 -0.050325
C88   C     C_R   0.515334 0.204976 0.476510 -0.043776
C89   C     C_R   0.012313 0.294111 0.471330 -0.040863
C90   C     C_R   0.987313 0.727109 0.420750 -0.087826
C91   C     C_R   0.556813 0.750244 0.505307 -0.026445
C92   C     C_R   0.390154 0.249741 0.500315 0.517289
C93   C     C_R   0.557642 0.248847 0.506915 -0.020043
C94   C     C_R   0.056590 0.250787 0.505116 -0.018378
C95   C     C_R   0.052080 0.754041 0.496249 0.041433
C96   C     C_R   0.547017 0.706639 0.541331 0.224963
C97   C     C_R   0.550836 0.290734 0.549467 0.224796
C98   C     C_R   0.051525 0.209548 0.550683 0.233984
C99   C     C_R   0.056578 0.787845 0.561669 0.255177
C100  C     C_R   0.493860 0.707756 0.542741 -0.150994
C101  C     C_R   0.498232 0.289099 0.551940 -0.151366
C102  C     C_R   0.999412 0.211301 0.554010 -0.146969
C103  C     C_R   0.389854 0.749846 0.499689 0.521837
C104  C     C_R   0.002196 0.786353 0.560455 -0.124529
C105  C     C_R   0.447469 0.750569 0.503519 -0.056456
C106  C     C_R   0.448692 0.248023 0.506074 -0.054564
C107  C     C_R   0.948683 0.251816 0.506228 -0.044407
C108  C     C_R   0.940780 0.754752 0.490262 -0.014405
C109  C     C_R   0.610023 0.749719 0.500046 0.501752
C110  C     C_R   0.610170 0.250154 0.500342 0.503966
C111  C     C_R   0.109876 0.249738 0.499856 0.508263
C112  C     C_R   0.110206 0.750111 0.500638 0.518887
C113  C     C_R   0.461864 0.794435 0.476295 0.080727
C114  C     C_R   0.488286 0.797138 0.944937 0.237899
C115  C     C_R   0.460942 0.205130 0.473837 0.077005
C116  C     C_R   0.958438 0.293971 0.469757 0.090800
C117  C     C_R   0.930496 0.729866 0.412654 0.002712
C118  C     C_3   0.415305 0.830200 0.384853 0.533466
C119  C     C_3   0.413974 0.169800 0.381843 0.536614
C120  C     C_3   0.907942 0.325700 0.372829 0.531738
C121  C     C_3   0.904289 0.676622 0.365419 0.516194
C122  C     C_3   0.477384 0.831470 0.390677 0.130026
C123  C     C_3   0.475068 0.169703 0.385429 0.132262
C124  C     C_3   0.968780 0.326479 0.375618 0.126991
C125  C     C_R   0.434026 0.217093 0.946241 0.240934
C126  C     C_3   0.971755 0.672409 0.384295 0.184995
C127  C     C_R   0.752270 0.526530 0.438508 -0.114080
C128  C     C_R   0.754055 0.473643 0.440826 -0.129283
C129  C     C_R   0.253519 0.026490 0.439807 -0.117027
C130  C     C_R   0.254298 0.973493 0.440783 -0.115910
C131  C     C_R   0.740526 0.554301 0.490823 0.023796
C132  C     C_R   0.741737 0.445806 0.492227 0.024224
C133  C     C_R   0.241051 0.054180 0.491379 0.026135
C134  C     C_R   0.240824 0.945728 0.490899 0.024225
C135  C     C_R   0.718699 0.527402 0.532594 0.200504
C136  C     C_R   0.921947 0.261267 0.945184 0.241179
C137  C     C_R   0.716294 0.472573 0.529071 0.210139
C138  C     C_R   0.218336 0.027231 0.531925 0.204244
C139  C     C_R   0.214583 0.972467 0.526526 0.205890
C140  C     C_3   0.811155 0.470549 0.439571 0.175430
C141  C     C_3   0.809592 0.529773 0.437386 0.167158
C142  C     C_3   0.313666 0.970253 0.444037 0.173754
C143  C     C_3   0.313069 0.029416 0.443160 0.173321
C144  C     C_R   0.772852 0.972882 0.465601 -0.043974
C145  C     C_R   0.773669 0.026012 0.466398 -0.022110
C146  C     C_R   0.279349 0.473928 0.474697 -0.057300
C147  C     C_R   0.921600 0.743125 0.945803 0.250915
C148  C     C_R   0.281046 0.527171 0.478695 -0.074336
C149  C     C_R   0.747877 0.945598 0.500936 -0.061631
C150  C     C_R   0.748849 0.054103 0.501629 -0.057362
C151  C     C_R   0.247899 0.445895 0.500117 -0.045102
C152  C     C_R   0.249206 0.554421 0.503789 -0.046400
C153  C     C_R   0.713391 0.972970 0.524223 0.281266
C154  C     C_R   0.713842 0.027306 0.524505 0.278839
C155  C     C_R   0.208157 0.472868 0.515153 0.291974
C156  C     C_R   0.208403 0.527153 0.516230 0.291489
C157  C     C_R   0.749772 0.889863 0.500643 0.468925
C158  C     C_R   0.446003 0.752222 0.891903 -0.034043
C159  C     C_R   0.750029 0.110020 0.499941 0.482652
C160  C     C_R   0.249796 0.389973 0.499902 0.480264
C161  C     C_R   0.250061 0.610145 0.501689 0.493116
C162  C     C_3   0.844055 0.027857 0.495868 0.203838
C163  C     C_3   0.842853 0.968748 0.494401 0.200966
C164  C     C_3   0.357257 0.528521 0.525327 0.219590
C165  C     C_3   0.353154 0.469706 0.513970 0.171478
C166  C     C_R   0.748862 0.609986 0.498929 0.544834
C167  C     C_R   0.749108 0.390029 0.499201 0.545001
C168  C     C_R   0.249108 0.109946 0.499200 0.548819
H1    H     H_    0.464563 0.815393 0.323013 0.101332
H2    H     H_    0.888791 0.951518 0.571976 0.070716
H3    H     H_    0.215780 0.154232 0.780768 0.145375
H4    H     H_    0.250860 0.143435 0.724756 0.234610
H5    H     H_    0.288636 0.108669 0.839435 0.136193
H6    H     H_    0.825003 0.209065 0.908889 0.089531
H7    H     H_    0.790267 0.222405 0.784322 0.139807
H8    H     H_    0.743270 0.274197 0.880413 0.137928
H9    H     H_    0.713278 0.293772 0.760541 0.233772
H10   H     H_    0.691714 0.230058 0.772720 0.114962
H11   H     H_    0.797707 0.789381 0.797564 0.117355
H12   H     H_    0.828145 0.795255 0.921774 0.113005
H13   H     H_    0.396776 0.540425 0.607754 0.122256
H14   H     H_    0.694406 0.781940 0.778401 0.105043
H15   H     H_    0.709781 0.720919 0.748398 0.221762
H16   H     H_    0.738745 0.729634 0.870928 0.162157
H17   H     H_    0.526646 0.665728 0.922574 0.324125
H18   H     H_    0.576770 0.266468 0.944614 0.315329
H19   H     H_    0.045224 0.295174 0.917154 0.327099
H20   H     H_    0.047530 0.696150 0.925228 0.327996
H21   H     H_    0.410510 0.590050 0.903747 0.358496
H22   H     H_    0.526284 0.393337 0.888629 0.347537
H23   H     H_    0.098138 0.178525 0.900707 0.342133
H24   H     H_    0.394861 0.449245 0.589316 0.097258
H25   H     H_    0.105057 0.808016 0.902729 0.345439
H26   H     H_    0.590439 0.603839 0.094048 0.338220
H27   H     H_    0.675464 0.341993 0.104002 0.348972
H28   H     H_    0.181810 0.271347 0.079740 0.329457
H29   H     H_    0.187230 0.720635 0.090596 0.329337
H30   H     H_    0.542344 0.669207 0.227624 0.126246
H31   H     H_    0.606836 0.625361 0.249388 0.186396
H32   H     H_    0.539319 0.550512 0.233048 0.159992
H33   H     H_    0.574316 0.593341 0.337318 0.091516
H34   H     H_    0.478592 0.594845 0.218739 0.162104
H35   H     H_    0.486063 0.673676 0.568318 0.175430
H36   H     H_    0.669192 0.384256 0.239598 0.199785
H37   H     H_    0.583033 0.365081 0.194171 0.125409
H38   H     H_    0.537794 0.456503 0.130941 0.182049
H39   H     H_    0.611306 0.449450 0.268614 0.094151
H40   H     H_    0.629186 0.474214 0.195831 0.149479
H41   H     H_    0.088673 0.119979 0.037096 0.146213
H42   H     H_    0.143036 0.135955 0.171269 0.155471
H43   H     H_    0.251578 0.097776 0.220283 0.191379
H44   H     H_    0.178532 0.051585 0.155042 0.070396
H45   H     H_    0.197388 0.081575 0.086794 0.160860
H46   H     H_    0.493561 0.321768 0.583826 0.155985
H47   H     H_    0.143351 0.861153 0.163503 0.152537
H48   H     H_    0.093104 0.874068 0.029677 0.147544
H49   H     H_    0.206695 0.907989 0.086665 0.165385
H50   H     H_    0.181396 0.943016 0.143004 0.070772
H51   H     H_    0.254541 0.896500 0.219471 0.195020
H52   H     H_    0.588753 0.624392 0.474293 0.193953
H53   H     H_    0.499245 0.645596 0.409247 0.079506
H54   H     H_    0.497400 0.581495 0.509625 0.183722
H55   H     H_    0.511716 0.551315 0.436111 0.093269
H56   H     H_    0.587334 0.559585 0.573846 0.182419
H57   H     H_    0.995819 0.178971 0.587701 0.156030
H58   H     H_    0.497419 0.361460 0.433101 0.081162
H59   H     H_    0.583441 0.381721 0.485196 0.189892
H60   H     H_    0.603994 0.434873 0.618627 0.180574
H61   H     H_    0.521296 0.452838 0.488554 0.099284
H62   H     H_    0.516909 0.414178 0.566049 0.159947
H63   H     H_    0.091935 0.124196 0.490412 0.196424
H64   H     H_    0.003346 0.137460 0.437988 0.081561
H65   H     H_    0.118491 0.066376 0.623711 0.165699
H66   H     H_    0.028816 0.079718 0.569462 0.143962
H67   H     H_    0.038848 0.046256 0.493452 0.110989
H68   H     H_    0.010204 0.808319 0.618197 0.167850
H69   H     H_    0.079598 0.867078 0.515816 0.128451
H70   H     H_    0.165172 0.881574 0.642719 0.211342
H71   H     H_    0.078156 0.943974 0.600768 0.107417
H72   H     H_    0.015667 0.894366 0.565694 0.135982
H73   H     H_    0.101869 0.901432 0.699048 0.171079
H74   H     H_    0.384792 0.901650 0.354765 0.342358
H75   H     H_    0.383893 0.098353 0.350863 0.342688
H76   H     H_    0.867462 0.394535 0.329050 0.348165
H77   H     H_    0.891457 0.607135 0.388907 0.364010
H78   H     H_    0.629388 0.861630 0.235736 0.177889
H79   H     H_    0.534645 0.873477 0.119718 0.113323
H80   H     H_    0.576998 0.935892 0.064236 0.166309
H81   H     H_    0.461277 0.187336 0.318052 0.076021
H82   H     H_    0.606060 0.953381 0.184386 0.123317
H83   H     H_    0.669621 0.924044 0.185400 0.180308
H84   H     H_    0.416996 0.212418 0.093151 0.069601
H85   H     H_    0.496539 0.189968 0.217821 0.173707
H86   H     H_    0.463033 0.099455 0.168875 0.180183
H87   H     H_    0.390762 0.134796 0.140617 0.100382
H88   H     H_    0.382952 0.117399 0.037595 0.167730
H89   H     H_    0.957850 0.269898 0.193396 0.124273
H90   H     H_    0.893736 0.245533 0.065165 0.101306
H91   H     H_    0.845635 0.340416 0.005623 0.215508
H92   H     H_    0.957504 0.307143 0.311551 0.064418
H93   H     H_    0.826998 0.306963 0.070628 0.083153
H94   H     H_    0.899809 0.353797 0.139883 0.169405
H95   H     H_    0.939327 0.810317 0.103366 0.079158
H96   H     H_    0.005525 0.779822 0.228483 0.138713
H97   H     H_    0.839914 0.763026 0.064945 0.158476
H98   H     H_    0.904735 0.730426 0.187742 0.180264
H99   H     H_    0.893250 0.799464 0.183325 0.086635
H100  H     H_    0.314649 0.734424 0.256467 0.178632
H101  H     H_    0.404049 0.742940 0.311312 0.062578
H102  H     H_    0.355107 0.790287 0.154135 0.141340
H103  H     H_    0.960055 0.666638 0.313475 0.131893
H104  H     H_    0.316837 0.726457 0.124441 0.111056
H105  H     H_    0.264059 0.782408 0.097404 0.204319
H106  H     H_    0.399006 0.258777 0.310578 0.060333
H107  H     H_    0.308677 0.264168 0.254477 0.187187
H108  H     H_    0.263892 0.214763 0.097678 0.202415
H109  H     H_    0.305795 0.276359 0.120259 0.100825
H110  H     H_    0.355317 0.217365 0.154337 0.111538
H111  H     H_    0.890966 0.230124 0.315294 0.083749
H112  H     H_    0.854283 0.264513 0.201648 0.108861
H113  H     H_    0.730069 0.248314 0.116656 0.192986
H114  H     H_    0.790530 0.452861 0.367616 0.146623
H115  H     H_    0.779900 0.188419 0.162054 0.080644
H116  H     H_    0.762156 0.218150 0.232030 0.181573
H117  H     H_    0.787003 0.734287 0.261514 0.138281
H118  H     H_    0.767050 0.668200 0.270205 0.212063
H119  H     H_    0.700255 0.653409 0.088757 0.178507
H120  H     H_    0.665672 0.710640 0.099237 0.159264
H121  H     H_    0.724943 0.716996 0.080592 0.154167
H122  H     H_    0.551439 0.875977 0.424972 0.356076
H123  H     H_    0.546470 0.125374 0.411492 0.353267
H124  H     H_    0.037604 0.372134 0.398090 0.361372
H125  H     H_    0.788346 0.546318 0.364286 0.135956
H126  H     H_    0.060495 0.632994 0.462594 0.353974
H127  H     H_    0.715916 0.533670 0.635605 0.343131
H128  H     H_    0.653027 0.465984 0.549607 0.310252
H129  H     H_    0.215734 0.032825 0.635041 0.322090
H130  H     H_    0.149606 0.966374 0.544493 0.312769
H131  H     H_    0.885313 0.456357 0.589377 0.329673
H132  H     H_    0.883504 0.545771 0.586333 0.334058
H133  H     H_    0.385025 0.955633 0.593563 0.314965
H134  H     H_    0.384452 0.044691 0.592335 0.322641
H135  H     H_    0.695352 0.911711 0.566257 0.319452
H136  H     H_    0.294851 0.952948 0.372963 0.137029
H137  H     H_    0.697621 0.088795 0.568599 0.318586
H138  H     H_    0.189330 0.412182 0.557063 0.325719
H139  H     H_    0.188858 0.587552 0.557885 0.326692
H140  H     H_    0.911798 0.105308 0.510552 0.118002
H141  H     H_    0.816964 0.124241 0.426482 0.153528
H142  H     H_    0.889041 0.092471 0.354103 0.161091
H143  H     H_    0.796923 0.115486 0.274457 0.163045
H144  H     H_    0.872992 0.157782 0.368579 0.080206
H145  H     H_    0.784591 0.879185 0.390235 0.138463
H146  H     H_    0.883643 0.879513 0.493776 0.138746
H147  H     H_    0.294098 0.046211 0.371688 0.135972
H148  H     H_    0.890119 0.887343 0.366476 0.146559
H149  H     H_    0.835724 0.832154 0.337339 0.084790
H150  H     H_    0.791914 0.890438 0.262114 0.176529
H151  H     H_    0.264389 0.534898 0.328425 0.168663
H152  H     H_    0.330967 0.549474 0.328380 0.157565
H153  H     H_    0.332734 0.641997 0.367340 0.140427
H154  H     H_    0.243157 0.620926 0.250172 0.126695
H155  H     H_    0.264085 0.628907 0.366648 0.163230
H156  H     H_    0.300979 0.383190 0.409915 0.153907
H157  H     H_    0.399839 0.383761 0.506007 0.134961
H158  H     H_    0.890464 0.043798 0.574573 0.060824
H159  H     H_    0.388683 0.405544 0.359111 0.155521
H160  H     H_    0.355620 0.342522 0.351852 0.078099
H161  H     H_    0.292158 0.394477 0.270498 0.166779
H162  H     H_    0.461391 0.895413 0.945698 0.124584
H163  H     H_    0.383056 0.859118 0.838780 0.155059
H164  H     H_    0.470450 0.935491 0.832638 0.163031
H165  H     H_    0.394745 0.897085 0.724963 0.172356
H166  H     H_    0.380820 0.945217 0.781168 0.111709
H167  H     H_    0.296982 0.225953 0.820225 0.145581
H168  H     H_    0.327804 0.193831 0.931797 0.104481
O1    O     O_3   0.750030 0.750030 0.500000 -0.460379
O2    O     O_R   0.750020 0.365780 0.439270 -0.556471
O3    O     O_3   0.171861 0.815448 0.102730 -0.518975
O4    O     O_3   0.586581 0.661710 0.571101 -0.523754
O5    O     O_3   0.592861 0.334626 0.584399 -0.530370
O6    O     O_3   0.095301 0.166286 0.589150 -0.553591
O7    O     O_3   0.118162 0.816761 0.637439 -0.529670
O8    O     O_3   0.405829 0.877326 0.412023 -0.571111
O9    O     O_3   0.406151 0.122081 0.409358 -0.570090
O10   O     O_3   0.896212 0.374097 0.393531 -0.561800
O11   O     O_3   0.903324 0.641186 0.422587 -0.580197
O12   O     O_R   0.250020 0.134220 0.439270 -0.538511
O13   O     O_R   0.250020 0.865780 0.439270 -0.537880
O14   O     O_R   0.896170 0.780390 0.560700 -0.549609
O15   O     O_R   0.896170 0.219610 0.560700 -0.551144
O16   O     O_R   0.396170 0.280390 0.560700 -0.557590
O17   O     O_R   0.396170 0.719610 0.560700 -0.547147
O18   O     O_R   0.664610 0.719670 0.560740 -0.504973
O19   O     O_R   0.664610 0.280330 0.560740 -0.498479
O20   O     O_R   0.164610 0.219670 0.560740 -0.515930
O21   O     O_3   0.750030 0.249970 0.500000 -0.470592
O22   O     O_R   0.164610 0.780330 0.560740 -0.502015
O23   O     O_R   0.835440 0.719660 0.439260 -0.523683
O24   O     O_R   0.835440 0.280340 0.439260 -0.469880
O25   O     O_R   0.335440 0.219660 0.439260 -0.475180
O26   O     O_R   0.335440 0.780340 0.439260 -0.474948
O27   O     O_R   0.603880 0.780390 0.439300 -0.572243
O28   O     O_R   0.603880 0.219610 0.439300 -0.589933
O29   O     O_R   0.103880 0.280390 0.439300 -0.574819
O30   O     O_R   0.103880 0.719610 0.439300 -0.571677
O31   O     O_R   0.810750 0.865830 0.560720 -0.561163
O32   O     O_3   0.250030 0.250030 0.500000 -0.470376
O33   O     O_R   0.810750 0.134170 0.560720 -0.563523
O34   O     O_R   0.310750 0.365830 0.560720 -0.551612
O35   O     O_R   0.310750 0.634170 0.560720 -0.521193
O36   O     O_R   0.750030 0.634230 0.560720 -0.474221
O37   O     O_R   0.750030 0.365770 0.560720 -0.470641
O38   O     O_R   0.250030 0.134230 0.560720 -0.495096
O39   O     O_R   0.250030 0.865770 0.560720 -0.507245
O40   O     O_R   0.896190 0.780400 0.731600 -0.492239
O41   O     O_R   0.896190 0.219600 0.731600 -0.489005
O42   O     O_R   0.396190 0.280400 0.731600 -0.477456
O43   O     O_3   0.250030 0.749970 0.500000 -0.472730
O44   O     O_R   0.396190 0.719600 0.731600 -0.495959
O45   O     O_R   0.664570 0.719650 0.268390 -0.541949
O46   O     O_R   0.664570 0.280350 0.268390 -0.521174
O47   O     O_R   0.164570 0.219650 0.268390 -0.531061
O48   O     O_R   0.164570 0.780350 0.268390 -0.530647
O49   O     O_R   0.835480 0.719680 0.731610 -0.499403
O50   O     O_R   0.835480 0.280320 0.731610 -0.503121
O51   O     O_R   0.335480 0.219680 0.731610 -0.527934
O52   O     O_R   0.335480 0.780320 0.731610 -0.546658
O53   O     O_R   0.603860 0.780380 0.268400 -0.573150
O54   O     O_R   0.689310 0.865830 0.439290 -0.556303
O55   O     O_R   0.603860 0.219620 0.268400 -0.527777
O56   O     O_R   0.103860 0.280380 0.268400 -0.499499
O57   O     O_R   0.103860 0.719620 0.268400 -0.507157
O58   O     O_3   0.598046 0.834789 0.102858 -0.542110
O59   O     O_3   0.495538 0.173493 0.105658 -0.492532
O60   O     O_3   0.971008 0.300397 0.103855 -0.495612
O61   O     O_3   0.956887 0.729673 0.106256 -0.491620
O62   O     O_3   0.347067 0.810384 0.291682 -0.528848
O63   O     O_3   0.344917 0.189257 0.289511 -0.528222
O64   O     O_3   0.840227 0.301661 0.287084 -0.536586
O65   O     O_R   0.689310 0.134170 0.439290 -0.531748
O66   O     O_3   0.840372 0.675795 0.257620 -0.613418
O67   O     O_3   0.512486 0.879475 0.423102 -0.631593
O68   O     O_3   0.510044 0.121675 0.414586 -0.634328
O69   O     O_3   0.999712 0.375617 0.398376 -0.619755
O70   O     O_3   0.023969 0.638282 0.465138 -0.619783
O71   O     O_3   0.702974 0.554915 0.579572 -0.693968
O72   O     O_3   0.690284 0.444851 0.561728 -0.687440
O73   O     O_3   0.203231 0.054555 0.579787 -0.717601
O74   O     O_3   0.186125 0.944719 0.555581 -0.727357
O75   O     O_3   0.877893 0.448917 0.529279 -0.592283
O76   O     O_R   0.189310 0.365830 0.439290 -0.529715
O77   O     O_3   0.875159 0.553178 0.525450 -0.598702
O78   O     O_3   0.379138 0.947991 0.534868 -0.599926
O79   O     O_3   0.378140 0.052253 0.533250 -0.597955
O80   O     O_3   0.682650 0.948814 0.553286 -0.607714
O81   O     O_3   0.683297 0.052034 0.553525 -0.605713
O82   O     O_3   0.172244 0.448270 0.535650 -0.594614
O83   O     O_3   0.172263 0.551396 0.536787 -0.597740
O84   O     O_3   0.834388 0.047740 0.414927 -0.494774
O85   O     O_3   0.833186 0.949006 0.413152 -0.503121
O86   O     O_3   0.370867 0.555802 0.472530 -0.537694
O87   O     O_R   0.189310 0.634170 0.439290 -0.536947
O88   O     O_3   0.348883 0.454255 0.435712 -0.546140
O89   O     O_3   0.482579 0.837723 0.890411 -0.522210
O90   O     O_3   0.386493 0.175653 0.896234 -0.501373
O91   O     O_3   0.853933 0.281308 0.893418 -0.513277
O92   O     O_3   0.852939 0.725308 0.894676 -0.486911
O93   O     O_3   0.486750 0.641692 0.895867 -0.667246
O94   O     O_3   0.557769 0.300282 0.908355 -0.676204
O95   O     O_3   0.052854 0.265467 0.891313 -0.671211
O96   O     O_3   0.056403 0.723865 0.897752 -0.662525
O97   O     O_3   0.398580 0.627279 0.896851 -0.620489
O98   O     O_R   0.750020 0.634220 0.439270 -0.543485
O99   O     O_3   0.491133 0.371988 0.881206 -0.617862
O100  O     O_3   0.056500 0.175462 0.893166 -0.657359
O101  O     O_3   0.062763 0.813433 0.893144 -0.656440
O102  O     O_3   0.590545 0.641549 0.103859 -0.742807
O103  O     O_3   0.652852 0.316745 0.115107 -0.687961
O104  O     O_3   0.155501 0.266809 0.100138 -0.694405
O105  O     O_3   0.158430 0.726519 0.106755 -0.698668
O106  O     O_3   0.499872 0.624070 0.101475 -0.543030
O107  O     O_3   0.579574 0.386748 0.080717 -0.552653
O108  O     O_3   0.167826 0.177326 0.101864 -0.516697
Zn1   Zn    Zn3+2 0.663280 0.793400 0.413250 0.880520
Zn2   Zn    Zn3+2 0.750030 0.293350 0.586760 0.990886
Zn3   Zn    Zn3+2 0.250030 0.206650 0.586760 0.949912
Zn4   Zn    Zn3+2 0.250030 0.793350 0.586760 0.963218
Zn5   Zn    Zn3+2 0.750010 0.706640 0.413230 0.937354
Zn6   Zn    Zn3+2 0.750010 0.293360 0.413230 0.974782
Zn7   Zn    Zn3+2 0.250010 0.206640 0.413230 0.984003
Zn8   Zn    Zn3+2 0.250010 0.793360 0.413230 0.980196
Zn9   Zn    Zn3+2 0.663280 0.206600 0.413250 0.901724
Zn10  Zn    Zn3+2 0.163280 0.293400 0.413250 0.937615
Zn11  Zn    Zn3+2 0.163280 0.706600 0.413250 0.944405
Zn12  Zn    Zn3+2 0.836780 0.793410 0.586750 0.953694
Zn13  Zn    Zn3+2 0.836780 0.206590 0.586750 0.955183
Zn14  Zn    Zn3+2 0.336780 0.293410 0.586750 0.965877
Zn15  Zn    Zn3+2 0.336780 0.706590 0.586750 0.987617
Zn16  Zn    Zn3+2 0.750030 0.706650 0.586760 0.995161

loop_
_geom_bond_atom_site_label_1
_geom_bond_atom_site_label_2
_ccdc_geom_bond_type
C60   H16   S    
C53   H165  S    
C109  O18   A    
C40   H115  S    
C87   C91   A    
C30   H89   S    
C126  O70   S    
C44   H144  S    
C104  C108  A    
C90   C95   A    
C26   H79   S    
C125  O90   S    
C161  O87   A    
C138  O73   S    
O18   Zn16  S    
C123  H81   S    
C63   O107  S    
C46   C79   S    
C95   C99   A    
C53   H164  S    
C51   H160  S    
H76   O10   S    
C59   O92   S    
C94   C111  S    
O25   Zn7   S    
C89   C94   A    
C32   H96   S    
C149  C153  A    
C34   O62   S    
C118  O8    S    
C160  O34   A    
C91   C96   A    
C25   O61   S    
C152  C156  A    
C131  C166  S    
C26   O58   S    
C52   O89   S    
O22   Zn4   S    
H139  O83   S    
C151  C155  A    
C5    C13   S    
C93   C110  S    
C15   C85   S    
C153  O80   S    
C11   O57   A    
C59   C60   S    
C167  O37   A    
O29   Zn10  S    
C130  C134  A    
C41   H117  S    
C64   H39   S    
H135  O80   S    
C45   C47   S    
C11   C20   S    
C150  C159  S    
C140  O75   S    
C69   H50   S    
C90   C117  A    
H74   O8    S    
C8    O45   A    
C140  C141  S    
O21   Zn2   S    
C74   C75   S    
C121  O66   S    
C144  C145  A    
C132  C137  A    
C98   C102  A    
C152  C161  S    
C45   O85   S    
C102  H57   S    
C17   C21   A    
C56   H6    S    
C76   H69   S    
C114  O89   S    
C19   C23   A    
C43   C44   S    
C62   H33   S    
O65   Zn9   S    
C37   C38   S    
C73   H60   S    
H122  O67   S    
C54   O90   S    
C16   C20   A    
C90   C126  S    
C112  O22   A    
C25   C147  A    
O39   Zn4   S    
C129  C133  A    
C92   C106  S    
C50   H157  S    
C110  O28   A    
C48   H152  S    
C66   H44   S    
C55   H4    S    
C39   C40   S    
C141  O77   S    
C135  C137  A    
C164  C165  S    
O76   Zn10  S    
C140  H114  S    
C1    O14   A    
C87   C122  S    
C83   O106  S    
C119  C123  S    
C106  C115  A    
C35   C78   S    
C8    C17   S    
C33   H98   S    
C31   H93   S    
C66   H45   S    
C65   O108  S    
C43   O84   S    
C79   O94   S    
C111  O29   A    
C21   O58   S    
O40   Zn12  S    
C54   H168  S    
C29   H87   S    
C127  C131  A    
C87   C113  A    
C155  C156  A    
C36   H102  S    
O21   Zn13  S    
O23   Zn5   S    
H126  O70   S    
C26   H78   S    
O32   Zn14  S    
O12   Zn7   S    
C61   H31   S    
C73   H61   S    
C94   C98   A    
C122  O67   S    
C32   O61   S    
C23   C136  A    
C77   H73   S    
C105  C113  A    
C59   H12   S    
C142  O78   S    
C165  O88   S    
C79   C84   S    
C100  H35   S    
H124  O69   S    
C13   C57   A    
C10   O47   A    
H22   O99   S    
C70   H53   S    
C86   O3    S    
C127  C141  S    
C163  H2    S    
C27   H83   S    
C164  H13   S    
C37   O63   S    
C8    O53   A    
O49   Zn16  S    
C39   H112  S    
C84   O103  S    
C62   H34   S    
C51   H161  S    
C6    O51   A    
C118  O62   S    
C72   H59   S    
O35   Zn15  S    
C47   H149  S    
C77   H72   S    
C143  O79   S    
C4    O49   A    
C96   O4    S    
O33   Zn13  S    
O14   Zn12  S    
C145  C150  A    
C164  O86   S    
C11   O48   A    
C57   C80   S    
C67   H48   S    
C135  O71   S    
O32   Zn10  S    
C61   O106  S    
O36   Zn16  S    
C103  O26   A    
C110  O19   A    
O98   Zn5   S    
C148  C164  S    
C48   O86   S    
C28   H85   S    
C80   O95   S    
C58   H10   S    
C133  C168  S    
C134  C139  A    
C22   C125  A    
O26   Zn8   S    
C116  C120  S    
O32   Zn7   S    
C37   H106  S    
C103  O17   A    
C119  O63   S    
C38   H109  S    
C120  O64   S    
C7    O44   A    
C52   H163  S    
C45   H145  S    
C36   H104  S    
C102  C107  A    
C103  C105  S    
C97   O5    S    
C12   C35   A    
C121  O11   S    
O1    Zn1   S    
C65   H42   S    
C49   H153  S    
C80   O100  S    
C163  O85   S    
C146  C165  S    
C115  C119  S    
O43   Zn8   S    
O20   Zn3   S    
C5    O41   A    
C52   C53   S    
C129  C130  A    
C101  C106  A    
C54   C55   S    
C40   H116  S    
C142  H136  S    
C71   H56   S    
H19   O95   S    
C47   H148  S    
C18   C22   A    
H137  O81   S    
C108  C117  A    
H133  O78   S    
C148  C152  A    
C24   C147  A    
O55   Zn9   S    
O16   Zn14  S    
C89   C124  S    
O51   Zn3   S    
C70   O4    S    
O43   Zn15  S    
C3    C134  S    
C68   C82   S    
C85   O108  S    
C128  C140  S    
O41   Zn13  S    
H25   O101  S    
O32   Zn3   S    
C51   H159  S    
C96   C100  A    
C56   C58   S    
C99   C104  A    
C34   C36   S    
C155  O82   S    
O24   Zn6   S    
C61   C62   S    
C130  C142  S    
C107  C116  A    
C30   O60   S    
O37   Zn2   S    
O1    Zn5   S    
C146  C151  A    
C2    C125  A    
C9    C18   S    
C104  H68   S    
C72   H58   S    
C139  O74   S    
O43   Zn4   S    
C83   O102  S    
C81   C107  S    
C93   C97   A    
C41   C42   S    
C132  C167  S    
C14   C84   S    
O1    Zn12  S    
C98   O6    S    
O53   Zn1   S    
C14   C46   A    
C74   O6    S    
C15   C19   A    
C26   C27   S    
H18   O94   S    
C69   H49   S    
O43   Zn11  S    
C28   C29   S    
C82   O96   S    
C85   O104  S    
C95   C112  S    
C30   C31   S    
C4    C24   S    
H131  O75   S    
C20   C25   A    
C6    O42   A    
H127  O71   S    
H128  O72   S    
C75   H66   S    
C76   H70   S    
O28   Zn9   S    
C114  C158  A    
C49   H155  S    
C78   C83   S    
C159  O33   A    
H23   O100  S    
O57   Zn11  S    
C12   C17   A    
C168  O38   A    
C70   C71   S    
C146  C148  A    
C42   H119  S    
C60   H15   S    
C53   H166  S    
O30   Zn11  S    
C42   H121  S    
C133  C138  A    
C71   H54   S    
C30   H90   S    
C16   C86   S    
H132  O77   S    
C44   H143  S    
C55   H3    S    
O1    Zn16  S    
H129  O73   S    
H20   O96   S    
O44   Zn15  S    
H29   O105  S    
C126  H103  S    
C86   O105  S    
C74   H64   S    
H28   O104  S    
C84   O107  S    
C82   C86   S    
C64   H38   S    
C12   C83   S    
C33   H97   S    
C81   O24   A    
C32   H95   S    
C28   H84   S    
C67   O3    S    
C80   C85   S    
O47   Zn7   S    
C78   O97   S    
O38   Zn3   S    
C162  H158  S    
C154  O81   S    
C141  H125  S    
O45   Zn5   S    
C10   C19   S    
C99   O7    S    
C122  H1    S    
C92   O25   A    
C50   C51   S    
C100  C105  A    
C29   H86   S    
C39   O64   S    
H21   O97   S    
C82   O101  S    
C48   C49   S    
C52   H162  S    
C144  C163  S    
C81   O15   A    
C43   H140  S    
C161  O35   A    
C127  C128  A    
C36   H105  S    
C92   O16   A    
O21   Zn6   S    
C120  O10   S    
C162  C163  S    
C69   H51   S    
C4    O40   A    
C61   H30   S    
O19   Zn2   S    
O48   Zn8   S    
C129  C143  S    
C166  O36   A    
C1    O23   A    
C32   C33   S    
C59   H11   S    
C35   C158  A    
C62   H32   S    
C119  O9    S    
C27   H80   S    
C50   O88   S    
C91   C109  S    
C28   O59   S    
C50   H156  S    
C88   C115  A    
C111  O20   A    
C162  O84   S    
C137  O72   S    
C138  C139  A    
C24   C68   A    
C39   H111  S    
C124  H92   S    
C63   H37   S    
C77   H71   S    
O87   Zn11  S    
C142  C143  S    
C48   H151  S    
C31   H91   S    
C66   H43   S    
C143  H147  S    
C22   O59   S    
C168  O12   A    
O50   Zn2   S    
H138  O82   S    
C14   C18   A    
C67   H47   S    
C136  O91   S    
C55   H5    S    
C165  H24   S    
C157  O54   A    
H26   O102  S    
C3    O13   A    
C7    C158  S    
C2    C46   A    
C64   H40   S    
C76   O7    S    
C7    O52   A    
C3    O39   A    
C33   H99   S    
C31   H94   S    
C9    O55   A    
O54   Zn1   S    
C34   H100  S    
C5    O50   A    
H130  O74   S    
C27   H82   S    
C131  C135  A    
C56   O91   S    
C118  C122  S    
O21   Zn9   S    
C145  C162  S    
C147  O92   S    
C54   H167  S    
C29   H88   S    
O46   Zn6   S    
C117  C121  S    
C38   H110  S    
O34   Zn14  S    
C34   H101  S    
H77   O11   S    
C16   C68   A    
C101  H46   S    
C65   H41   S    
C79   O99   S    
C89   C116  A    
C15   C57   A    
C2    C6    S    
H27   O103  S    
O17   Zn15  S    
C88   C123  S    
H17   O93   S    
C128  C132  A    
C73   H62   S    
C60   H14   S    
C40   H113  S    
C71   H55   S    
C63   H36   S    
C56   H7    S    
C44   H142  S    
C76   C77   S    
C72   C73   S    
H75   O9    S    
C70   H52   S    
C63   C64   S    
C67   C69   S    
C124  O69   S    
C144  C149  A    
O31   Zn12  S    
C123  O68   S    
O27   Zn1   S    
C47   H150  S    
C72   O5    S    
C75   H67   S    
C13   C136  A    
O13   Zn8   S    
C159  O65   A    
O52   Zn4   S    
C88   C93   A    
O56   Zn10  S    
C43   H141  S    
C58   H8    S    
C41   O66   S    
C9    O46   A    
C156  O83   S    
C10   O56   A    
C21   C114  A    
C78   O93   S    
C166  O98   A    
O15   Zn13  S    
C74   H63   S    
C151  C160  S    
O42   Zn14  S    
C121  C126  S    
C37   H107  S    
C38   H108  S    
H134  O79   S    
C109  O27   A    
C75   H65   S    
C58   H9    S    
C112  O30   A    
H123  O68   S    
C42   H120  S    
C45   H146  S    
O2    Zn6   S    
C49   H154  S    
C1    C108  S    
C113  C118  S    
C120  C124  S    
C23   O60   S    
C167  O2    A    
C65   C66   S    
C150  C154  A    
C149  C157  S    
C153  C154  A    
C160  O76   A    
C157  O31   A    
C97   C101  A    
C41   H118  S    
