data_mof_unit_21486.cif
_audit_creation_date              2012-12-10T16:49:22-0500
_audit_creation_method            fapswitch 2.2
_symmetry_space_group_name_H-M    P1
_symmetry_Int_Tables_number       1
_space_group_crystal_system       triclinic
_cell_length_a                    19.317349
_cell_length_b                    8.748456
_cell_length_c                    7.422539
_cell_angle_alpha                 102.694661
_cell_angle_beta                  94.717481
_cell_angle_gamma                 92.614498
_cell_volume                      1216.95814796

loop_
_atom_site_label
_atom_site_type_symbol
_atom_type_description
_atom_site_fract_x
_atom_site_fract_y
_atom_site_fract_z
_atom_type_partial_charge
C1    C     C_R   0.498731 0.200624 0.454050 0.920522
C2    C     C_R   0.501151 0.799567 0.545527 0.803962
C3    C     C_2   0.505696 0.036313 0.428895 -0.045665
C4    C     C_2   0.493442 0.964350 0.567914 -0.087657
C5    C     C_R   0.367697 0.503648 0.501978 0.794949
C6    C     C_R   0.632754 0.502813 0.499041 0.795688
C7    C     C_R   0.258870 0.465817 0.645580 -0.240902
C8    C     C_R   0.738656 0.468766 0.327983 -0.258625
C9    C     C_R   0.186798 0.465381 0.643977 -0.146944
C10   C     C_R   0.810701 0.468313 0.324269 -0.165113
C11   C     C_R   0.147009 0.512423 0.501158 -0.020390
C12   C     C_R   0.854360 0.503686 0.490458 -0.008074
C13   C     C_R   0.180551 0.565476 0.363699 -0.231743
C14   C     C_R   0.825183 0.543328 0.659696 -0.239241
C15   C     C_R   0.252945 0.571929 0.367861 0.453860
C16   C     C_R   0.753398 0.550085 0.664941 0.435955
C17   C     C_R   0.292353 0.514752 0.505542 -0.148655
C18   C     C_R   0.709080 0.507350 0.497732 -0.138108
C19   C     C_R   0.930297 0.501336 0.490000 0.428933
C20   C     C_R   0.070764 0.507127 0.496257 0.431387
Cu1   Cu    Cu3+1 0.507710 0.517380 0.684380 0.964163
Cu2   Cu    Cu3+1 0.492290 0.482620 0.315620 0.950890
H1    H     H_    0.288278 0.423970 0.753714 0.184112
H2    H     H_    0.706117 0.437702 0.197673 0.201212
H3    H     H_    0.162159 0.424594 0.752228 0.172575
H4    H     H_    0.832102 0.437651 0.191633 0.174048
H5    H     H_    0.150804 0.604734 0.254112 0.170863
H6    H     H_    0.858061 0.572769 0.789567 0.169939
H7    H     H_    0.445024 0.379585 0.948267 0.240321
H8    H     H_    0.554786 0.620495 0.051880 0.217411
N1    N     N_R   0.030897 0.514278 0.339194 -0.232035
N2    N     N_R   0.970194 0.493502 0.646532 -0.232297
N3    N     N_R   0.961874 0.511118 0.335934 -0.235389
N4    N     N_R   0.039073 0.495886 0.649517 -0.234589
N5    N     N_2   0.480680 0.456420 0.038530 -0.207574
N6    N     N_2   0.519320 0.543580 0.961470 -0.213284
O1    O     O_R   0.505010 0.286130 0.619770 -0.565239
O2    O     O_R   0.494990 0.713870 0.380230 -0.613429
O3    O     O_R   0.491990 0.256780 0.308370 -0.576480
O4    O     O_R   0.508010 0.743220 0.691630 -0.588113
O5    O     O_R   0.406650 0.514660 0.655750 -0.593842
O6    O     O_R   0.593350 0.485340 0.344250 -0.597374
O7    O     O_R   0.393640 0.485310 0.344340 -0.547754
O8    O     O_R   0.606360 0.514690 0.655660 -0.534222
O9    O     O_3   0.283736 0.626104 0.229588 -0.607828
C21   C     C_3   0.315948 0.778717 0.301438 0.095078
H9    H     H_    0.361785 0.790665 0.223278 0.179557
H10   H     H_    0.336225 0.800549 0.450690 0.101115
C22   C     C_3   0.266012 0.904012 0.272399 -0.378507
H11   H     H_    0.246612 0.882397 0.123210 0.235639
H12   H     H_    0.220752 0.896933 0.354076 0.218766
C23   C     C_3   0.301989 0.068685 0.333317 -0.889927
H13   H     H_    0.321261 0.093616 0.482738 0.249640
H14   H     H_    0.264441 0.156878 0.311802 0.266213
H15   H     H_    0.346491 0.080030 0.250360 0.254254
O10   O     O_3   0.727462 0.592473 0.835887 -0.601720
C24   C     C_3   0.728971 0.758156 0.888514 0.060743
H16   H     H_    0.686725 0.801330 0.804948 0.146431
H17   H     H_    0.779991 0.814462 0.868673 0.131679
C25   C     C_3   0.717556 0.807304 0.094043 -0.325921
H18   H     H_    0.668523 0.748016 0.119860 0.211229
H19   H     H_    0.761238 0.769965 0.178113 0.228185
C26   C     C_3   0.713606 0.984883 0.155639 -0.908085
H20   H     H_    0.762642 0.046672 0.133490 0.263238
H21   H     H_    0.705885 0.016658 0.305580 0.255429
H22   H     H_    0.669151 0.024376 0.076535 0.267164
N7    N     N_3   0.530550 0.959693 0.256060 -0.609021
H23   H     H_    0.574621 0.899839 0.281473 0.225036
H24   H     H_    0.490944 0.884593 0.173582 0.244266
N8    N     N_3   0.468244 0.047030 0.737500 -0.580462
H25   H     H_    0.503829 0.039276 0.848679 0.254212
H26   H     H_    0.420778 0.991359 0.753331 0.205547

loop_
_geom_bond_atom_site_label_1
_geom_bond_atom_site_label_2
_ccdc_geom_bond_type
C2    C4    S    
N1    N3    A    
C15   C17   A    
N8    H25   S    
C14   C16   A    
C1    O1    A    
C8    C18   A    
Cu1   O8    S    
C11   C13   A    
H7    N5    S    
C1    O3    A    
N5    N6    D    
C23   H15   S    
H8    N6    S    
C22   C23   S    
C20   N4    A    
C26   H21   S    
C10   H4    S    
C22   H12   S    
C4    N8    S    
C5    O7    A    
C26   H22   S    
C9    H3    S    
Cu1   N6    S    
C6    O8    A    
O9    C21   S    
C23   H13   S    
Cu2   N5    S    
C9    C11   A    
C21   C22   S    
C24   H16   S    
Cu2   O6    S    
Cu1   O4    S    
C10   C12   A    
C16   O10   S    
C25   C26   S    
C7    H1    S    
Cu2   O3    S    
C12   C19   S    
C16   C18   A    
C8    H2    S    
C12   C14   A    
Cu2   O7    S    
C1    C3    S    
C13   C15   A    
C6    O6    A    
C6    C18   S    
Cu1   O5    S    
C11   C20   S    
C24   H17   S    
C5    C17   S    
C15   O9    S    
C5    O5    A    
N7    H23   S    
Cu2   O2    S    
C21   H10   S    
C2    O4    A    
Cu1   O1    S    
O10   C24   S    
C25   H19   S    
C22   H11   S    
C19   N3    A    
N7    H24   S    
C7    C9    A    
C2    O2    A    
C21   H9    S    
C13   H5    S    
C24   C25   S    
N8    H26   S    
C14   H6    S    
Cu1   Cu2   S    
C19   N2    A    
C8    C10   A    
C3    N7    S    
C3    C4    D    
C26   H20   S    
C23   H14   S    
C25   H18   S    
C7    C17   A    
C20   N1    A    
N2    N4    A    
