data_mof_unit_14090.cif
_audit_creation_date              2012-12-10T19:01:19-0500
_audit_creation_method            fapswitch 2.2
_symmetry_space_group_name_H-M    P1
_symmetry_Int_Tables_number       1
_space_group_crystal_system       triclinic
_cell_length_a                    9.562525
_cell_length_b                    10.870262
_cell_length_c                    15.481988
_cell_angle_alpha                 89.10049
_cell_angle_beta                  74.30307
_cell_angle_gamma                 89.628003
_cell_volume                      1549.09626331

loop_
_atom_site_label
_atom_site_type_symbol
_atom_type_description
_atom_site_fract_x
_atom_site_fract_y
_atom_site_fract_z
_atom_type_partial_charge
C1    C     C_R   0.000018 0.262486 0.500064 0.884336
C2    C     C_R   0.678123 0.508373 0.909778 -0.015644
C3    C     C_R   0.779386 0.476095 0.958341 -0.058979
C4    C     C_R   0.530740 0.532568 0.956478 -0.002603
C5    C     C_R   0.481928 0.508454 0.050573 -0.107601
C6    C     C_R   0.587954 0.481069 0.097170 0.622296
C7    C     C_R   0.733073 0.463896 0.051455 0.522976
C8    C     C_R   0.432756 0.586230 0.912692 -0.124822
C9    C     C_R   0.290700 0.612924 0.958858 -0.120396
C10   C     C_R   0.238206 0.581880 0.049356 -0.084498
C11   C     C_R   0.330766 0.522081 0.094977 -0.042959
C12   C     C_R   0.918242 0.498615 0.672162 0.806434
C13   C     C_R   0.093803 0.610345 0.095068 0.654611
C14   C     C_R   0.040841 0.581023 0.185747 -0.243554
C15   C     C_R   0.266882 0.477329 0.182792 0.688872
C16   C     C_R   0.127761 0.063492 0.493174 -0.044199
C17   C     C_R   0.000645 0.129364 0.496267 -0.179548
C18   C     C_R   0.874430 0.064358 0.494567 0.621156
C19   C     C_R   0.874594 0.936729 0.497557 -0.224460
C20   C     C_R   0.000459 0.871132 0.499203 -0.153606
C21   C     C_R   0.128170 0.936200 0.494190 0.022363
C22   C     C_3   0.223681 0.930445 0.556519 -0.450391
C23   C     C_R   0.999300 0.737612 0.501429 0.827727
C24   C     C_3   0.223876 0.069806 0.554621 0.508567
C25   C     C_R   0.604829 0.541406 0.426493 0.034710
C26   C     C_R   0.544798 0.443526 0.567028 0.724254
C27   C     C_R   0.396081 0.444731 0.567349 -0.159461
C28   C     C_R   0.457656 0.540450 0.426367 0.199412
C29   C     C_3   0.465935 0.664385 0.383606 0.404520
C30   C     C_3   0.624146 0.666865 0.383979 0.324871
C31   C     C_R   0.081851 0.500610 0.327947 0.891461
C32   C     C_R   0.873602 0.494596 0.770693 -0.049446
C33   C     C_R   0.127609 0.515677 0.230137 -0.279035
C34   C     C_R   0.926608 0.458465 0.913072 -0.019655
C35   C     C_R   0.973648 0.469114 0.819958 -0.189040
C36   C     C_R   0.727358 0.513132 0.815614 -0.126229
Cu1   Cu    Cu3+1 0.140670 0.499980 0.500000 1.023803
Cu2   Cu    Cu3+1 0.859330 0.500020 0.500000 1.084948
H1    H     H_    0.332589 0.891422 0.524794 0.180841
H2    H     H_    0.331554 0.111638 0.522570 0.129356
H3    H     H_    0.702275 0.669887 0.316342 0.153422
H4    H     H_    0.932733 0.610650 0.221395 0.209666
H5    H     H_    0.087425 0.454319 0.786506 0.162691
H6    H     H_    0.652738 0.527406 0.775356 0.175066
H7    H     H_    0.464664 0.615886 0.843424 0.136577
N1    N     N_R   0.648210 0.500930 0.499430 -0.220952
N2    N     N_R   0.352300 0.500890 0.499430 -0.261553
O1    O     O_R   0.118810 0.319640 0.500000 -0.569752
O2    O     O_R   0.881230 0.319680 0.499990 -0.494711
O3    O     O_R   0.055580 0.499970 0.629840 -0.599717
O4    O     O_R   0.818000 0.500010 0.629830 -0.536251
O5    O     O_R   0.118770 0.680320 0.500010 -0.601139
O6    O     O_R   0.881190 0.680360 0.500000 -0.541528
O7    O     O_R   0.182000 0.499990 0.370170 -0.499458
O8    O     O_R   0.944420 0.500030 0.370160 -0.594169
F1    F     F_    0.829238 0.435872 0.099319 -0.621836
F2    F     F_    0.005808 0.671320 0.053058 -0.642245
F3    F     F_    0.748149 0.122704 0.495143 -0.614102
H8    H     H_    0.773735 0.890365 0.502968 0.263734
H9    H     H_    0.167999 0.889509 0.623170 0.224526
F4    F     F_    0.153434 0.118925 0.637070 -0.635081
F5    F     F_    0.582999 0.384372 0.634859 -0.635250
H10   H     H_    0.316339 0.401599 0.622489 0.190061
F6    F     F_    0.448272 0.660223 0.298043 -0.601711
F7    F     F_    0.330867 0.386726 0.220145 -0.588438
H11   H     H_    0.396149 0.733847 0.426464 0.106730
F8    F     F_    0.647180 0.754714 0.441522 -0.693319
H12   H     H_    0.221333 0.657652 0.922827 0.192492
H13   H     H_    0.005736 0.436021 0.949490 0.191653
F9    F     F_    0.558148 0.484163 0.187667 -0.536799

loop_
_geom_bond_atom_site_label_1
_geom_bond_atom_site_label_2
_ccdc_geom_bond_type
C8    C9    A    
C12   O3    A    
C31   C33   S    
C28   N2    A    
C5    C11   A    
C24   F4    S    
Cu1   N2    S    
C35   H5    S    
C9    C10   A    
C1    C17   S    
C19   C20   A    
C20   C23   S    
C4    C8    A    
C14   H4    S    
C31   O8    A    
C20   C21   A    
C14   C33   A    
C2    C3    A    
C23   O5    A    
C29   F6    S    
C16   C24   S    
Cu2   O2    S    
C21   C22   S    
C12   C32   S    
C25   C28   A    
Cu1   O3    S    
C34   H13   S    
C26   C27   A    
C29   C30   S    
Cu2   O6    S    
C27   H10   S    
C7    F1    S    
Cu1   O7    S    
C32   C36   A    
C16   C21   A    
C28   C29   S    
C24   H2    S    
Cu1   Cu2   S    
C9    H12   S    
C23   O6    A    
C6    C7    A    
C3    C7    A    
C31   O7    A    
C22   H9    S    
C5    C6    A    
C2    C4    A    
C22   C24   S    
Cu2   N1    S    
C30   H3    S    
C36   H6    S    
C10   C11   A    
C22   H1    S    
C2    C36   A    
C29   H11   S    
C15   F7    S    
C32   C35   A    
C12   O4    A    
C13   F2    S    
C26   F5    S    
C17   C18   A    
C34   C35   A    
C27   N2    A    
C25   C30   S    
C6    F9    S    
Cu1   O5    S    
C26   N1    A    
C8    H7    S    
C18   C19   A    
C1    O1    A    
Cu2   O4    S    
C3    C34   A    
C19   H8    S    
C13   C14   A    
C11   C15   A    
C25   N1    A    
C18   F3    S    
Cu2   O8    S    
C30   F8    S    
C16   C17   A    
C15   C33   A    
C4    C5    A    
Cu1   O1    S    
C10   C13   A    
C1    O2    A    
