data_mof_unit_31592.cif
_audit_creation_date              2013-03-05T15:45:10-0500
_audit_creation_method            fapswitch 2.2
_symmetry_space_group_name_H-M    P1
_symmetry_Int_Tables_number       1
_space_group_crystal_system       triclinic
_cell_length_a                    10.851847
_cell_length_b                    11.059785
_cell_length_c                    9.868883
_cell_angle_alpha                 111.900225
_cell_angle_beta                  98.06445
_cell_angle_gamma                 90.403874
_cell_volume                      1085.83503879

loop_
_atom_site_label
_atom_site_type_symbol
_atom_site_description
_atom_site_fract_x
_atom_site_fract_y
_atom_site_fract_z
_atom_type_partial_charge
O1    O     O_R   0.511700 0.332330 0.577400 -0.588183
O2    O     O_R   0.474680 0.295500 0.332650 -0.531474
C1    C     C_R   0.488457 0.253681 0.439698 0.827479
O3    O     O_R   0.338160 0.518420 0.622400 -0.577645
O4    O     O_R   0.301140 0.481590 0.377650 -0.581454
C2    C     C_R   0.262940 0.508382 0.503719 0.837048
Cu1   Cu    Cu3+1 0.521920 0.521810 0.644910 0.999794
Cu2   Cu    Cu3+1 0.478080 0.478190 0.355090 1.014895
O5    O     O_R   0.525320 0.704500 0.667350 -0.576365
O6    O     O_R   0.488300 0.667670 0.422600 -0.581030
O7    O     O_R   0.698860 0.518410 0.622350 -0.549602
O8    O     O_R   0.661840 0.481580 0.377600 -0.556419
C3    C     C_R   0.515401 0.746030 0.560137 0.739443
C4    C     C_R   0.736601 0.495612 0.497192 0.880304
C5    C     C_R   0.122683 0.758846 0.572498 0.095457
C6    C     C_R   0.052845 0.867389 0.590885 -0.122055
H1    H     H_    0.100289 0.961936 0.617842 0.185809
C7    C     C_R   0.923916 0.855239 0.567653 0.319907
C8    C     C_R   0.863857 0.733615 0.533453 -0.232936
H2    H     H_    0.763195 0.727918 0.517870 0.153114
C9    C     C_R   0.932074 0.622024 0.520799 -0.020325
C10   C     C_R   0.063949 0.631488 0.533828 0.003856
C11   C     C_R   0.128742 0.514021 0.508303 -0.114660
C12   C     C_R   0.063570 0.393961 0.477629 0.052826
C13   C     C_R   0.933963 0.387669 0.472484 0.273389
C14   C     C_R   0.869674 0.501571 0.495252 -0.197031
H3    H     H_    0.441513 0.863166 0.380225 0.175584
H4    H     H_    0.512014 0.138764 0.628809 0.195698
C15   C     C_2   0.479903 0.112852 0.403701 0.192866
C16   C     C_2   0.493023 0.069698 0.514979 -0.164759
C17   C     C_2   0.522012 0.886854 0.596019 0.015403
C18   C     C_2   0.481815 0.931180 0.489572 -0.023838
H5    H     H_    0.416230 0.419643 0.843010 0.185690
N1    N     N_2   0.445130 0.445430 0.137370 -0.124967
C19   C     C_2   0.511255 0.508447 0.080177 0.348993
H6    H     H_    0.625274 0.620719 0.931723 0.214662
N2    N     N_2   0.554930 0.554500 0.862630 -0.290592
C20   C     C_2   0.489438 0.489799 0.917534 -0.065703
N3    N     N_3   0.131795 0.278959 0.456436 -0.580525
H7    H     H_    0.109791 0.236881 0.529664 0.259714
H8    H     H_    0.105343 0.212396 0.348106 0.275317
N4    N     N_R   0.459919 0.024631 0.251210 0.123410
O9    O     O_R   0.374827 0.045350 0.156889 -0.365445
O10   O     O_R   0.538469 0.936039 0.202605 -0.336863
N5    N     N_3   0.609506 0.599951 0.177249 -0.517325
H9    H     H_    0.592165 0.692174 0.175547 0.243538
H10   H     H_    0.693788 0.571671 0.138622 0.206713
N6    N     N_3   0.350953 0.355342 0.043152 -0.527841
H11   H     H_    0.368807 0.265974 0.052731 0.279149
H12   H     H_    0.267703 0.384283 0.083925 0.253908
N7    N     N_3   0.253076 0.784107 0.591234 -0.604713
H13   H     H_    0.280105 0.734173 0.488743 0.222359
H14   H     H_    0.295313 0.754765 0.674604 0.251688
N8    N     N_R   0.853999 0.966361 0.575955 0.133970
O11   O     O_R   0.897243 0.082612 0.667140 -0.314908
O12   O     O_R   0.754788 0.953706 0.479990 -0.303657
N9    N     N_R   0.867626 0.265515 0.444346 0.123225
O13   O     O_R   0.876368 0.164051 0.325678 -0.317406
O14   O     O_R   0.793660 0.256895 0.533725 -0.300755
N10   N     N_3   0.572180 0.974996 0.742879 -0.536381
H15   H     H_    0.517627 0.961442 0.815999 0.261937
H16   H     H_    0.662243 0.948982 0.769002 0.257709

loop_
_geom_bond_atom_site_label_1
_geom_bond_atom_site_label_2
_geom_bond_distance
_ccdc_geom_bond_type
C17   N10   1.436813 S    
O4    Cu2   1.962799 S    
C16   C18   1.458380 S    
C9    C14   1.409131 A    
N2    C20   1.304181 D    
C5    N7    1.413144 S    
C15   N4    1.440096 S    
C17   C18   1.338955 D    
Cu2   O8    1.973772 S    
C11   C12   1.407774 A    
C19   C20   1.523379 S    
N6    H12   1.044284 S    
O2    C1    1.293639 A    
Cu1   N2    2.019520 S    
Cu1   Cu2   2.688021 S    
N3    H8    1.044561 S    
C13   C14   1.403334 A    
Cu2   N1    2.019333 S    
N5    H9    1.044333 S    
C4    C14   1.448269 S    
Cu1   O7    1.962799 S    
N9    O13   1.300809 A    
C15   C16   1.342453 D    
N4    O10   1.301001 A    
O3    Cu1   1.973772 S    
C2    C11   1.464375 S    
N10   H16   1.045495 S    
H6    N2    1.028381 S    
C8    C9    1.417967 A    
H4    C16   1.086568 S    
C7    C8    1.391161 A    
C10   C11   1.436692 A    
N5    H10   1.045262 S    
O4    C2    1.295762 A    
O7    C4    1.291517 A    
N8    O12   1.299444 A    
N9    O14   1.300655 A    
O3    C2    1.297665 A    
N1    N6    1.389127 S    
N4    O9    1.301003 A    
C7    N8    1.431173 S    
N7    H14   1.042987 S    
C5    C6    1.391880 A    
C19   N5    1.433069 S    
Cu1   O5    1.948264 S    
C13   N9    1.439044 S    
C12   N3    1.438018 S    
N7    H13   1.040631 S    
C12   C13   1.400548 A    
C6    C7    1.382933 A    
N1    C19   1.311220 D    
C5    C10   1.433178 A    
N3    H7    1.045746 S    
C1    C15   1.461738 S    
O5    C3    1.293577 A    
N8    O11   1.301145 A    
N6    H11   1.044343 S    
H5    C20   1.084321 S    
O1    Cu1   1.944791 S    
H3    C18   1.085834 S    
C9    C10   1.418359 A    
C3    C17   1.461572 S    
Cu2   O6    1.944791 S    
O2    Cu2   1.948264 S    
C8    H2    1.079606 S    
C6    H1    1.084313 S    
O8    C4    1.291578 A    
N10   H15   1.045449 S    
O1    C1    1.298440 A    
O6    C3    1.298773 A    
