data_mof_unit_44101.cif
_audit_creation_date              2012-12-11T16:26:33-0500
_audit_creation_method            fapswitch 2.2
_symmetry_space_group_name_H-M    P1
_symmetry_Int_Tables_number       1
_space_group_crystal_system       triclinic
_cell_length_a                    6.944515
_cell_length_b                    17.586981
_cell_length_c                    19.522581
_cell_angle_alpha                 108.452952
_cell_angle_beta                  89.085195
_cell_angle_gamma                 90.716993
_cell_volume                      2261.40005935

loop_
_atom_site_label
_atom_site_type_symbol
_atom_type_description
_atom_site_fract_x
_atom_site_fract_y
_atom_site_fract_z
_atom_type_partial_charge
O1    O     O_R   0.494330 0.415720 0.413720 -0.546759
O2    O     O_R   0.819330 0.430070 0.560210 -0.518771
O3    O     O_R   0.994320 0.584280 0.586280 -0.531612
C1    C     C_R   0.649324 0.416823 0.583157 0.767313
O4    O     O_R   0.823730 0.406300 0.412670 -0.547806
O5    O     O_R   0.998760 0.560340 0.437690 -0.536302
C2    C     C_R   0.655272 0.382324 0.385704 0.660672
O6    O     O_R   0.489890 0.439660 0.562310 -0.533010
O7    O     O_3   0.662340 0.550560 0.508380 -0.371784
V1    V     V_3+5 0.935370 0.490620 0.498450 1.547289
O8    O     O_R   0.328750 0.569930 0.439790 -0.535525
C3    C     C_R   0.161635 0.585455 0.418480 0.804134
O9    O     O_R   0.324340 0.593700 0.587330 -0.533721
C4    C     C_R   0.152207 0.617444 0.614845 0.883082
V2    V     V_3+5 0.435940 0.509380 0.501550 1.535087
O10   O     O_3   0.159100 0.449440 0.491620 -0.372414
H1    H     H_    0.575859 0.790676 0.621684 0.182551
C5    C     C_R   0.362946 0.621226 0.753362 -0.014473
C6    C     C_R   0.516967 0.638611 0.801900 -0.126466
C7    C     C_R   0.575661 0.716376 0.836040 -0.159602
C8    C     C_R   0.458584 0.778631 0.834754 -0.073947
C9    C     C_R   0.283074 0.763686 0.796878 0.091049
C10   C     C_R   0.258723 0.687471 0.743400 -0.016589
C11   C     C_R   0.132159 0.821109 0.811291 -0.191785
C12   C     C_R   0.990080 0.812770 0.758621 0.043183
C13   C     C_R   0.983941 0.742972 0.696693 0.056881
C14   C     C_R   0.129207 0.682116 0.686124 -0.218107
C15   C     C_R   0.859970 0.876010 0.764437 -0.149177
C16   C     C_R   0.711877 0.867548 0.715984 -0.126185
C17   C     C_R   0.693155 0.797417 0.659105 -0.065527
C18   C     C_R   0.828634 0.736903 0.648355 -0.031138
H2    H     H_    0.594060 0.591836 0.814060 0.186319
H3    H     H_    0.705833 0.728319 0.867632 0.136087
H4    H     H_    0.513501 0.837645 0.861967 0.147379
H5    H     H_    0.873531 0.933896 0.805233 0.140377
H6    H     H_    0.612540 0.916036 0.722638 0.184573
H7    H     H_    0.803977 0.686853 0.601180 0.186618
C19   C     C_R   0.239990 0.607597 0.301406 -0.286342
C20   C     C_R   0.157249 0.637076 0.370832 -0.182437
C21   C     C_R   0.073019 0.714530 0.393120 0.428708
C22   C     C_R   0.052255 0.756512 0.342190 -0.040859
C23   C     C_R   0.139673 0.726338 0.272914 0.006555
C24   C     C_R   0.235367 0.652236 0.253137 0.110431
C25   C     C_R   0.945843 0.827936 0.358223 -0.027056
C26   C     C_R   0.937356 0.870787 0.309430 -0.133355
C27   C     C_R   0.028335 0.842829 0.242026 0.088100
C28   C     C_R   0.131284 0.770471 0.223228 0.055446
C29   C     C_R   0.226023 0.742429 0.155178 0.023856
C30   C     C_R   0.318590 0.667451 0.136540 -0.126277
C31   C     C_R   0.321740 0.623020 0.184584 -0.152485
C32   C     C_R   0.015854 0.886267 0.193314 -0.168132
C33   C     C_R   0.112129 0.860903 0.126552 -0.126832
C34   C     C_R   0.221623 0.789234 0.107367 -0.043813
H8    H     H_    0.308455 0.549370 0.284949 0.132186
H9    H     H_    0.863513 0.850929 0.407682 0.220173
H10   H     H_    0.859633 0.926432 0.324685 0.175899
H11   H     H_    0.935286 0.941725 0.208267 0.134976
H12   H     H_    0.386170 0.641410 0.084184 0.168447
H13   H     H_    0.391888 0.565361 0.167830 0.144193
C35   C     C_R   0.778492 0.191546 0.873881 0.014490
C36   C     C_R   0.628385 0.135080 0.869302 -0.162367
C37   C     C_R   0.487873 0.124096 0.815928 -0.065882
C38   C     C_R   0.490859 0.167743 0.766341 -0.069867
C39   C     C_R   0.631085 0.229028 0.775175 0.036414
C40   C     C_R   0.776647 0.239910 0.827938 0.138159
C41   C     C_R   0.353553 0.153442 0.709982 0.365386
C42   C     C_R   0.342933 0.207877 0.669428 0.339952
C43   C     C_R   0.490470 0.266054 0.675832 -0.079745
C44   C     C_R   0.628355 0.279106 0.730702 0.022578
C45   C     C_R   0.763200 0.343098 0.741752 0.147362
C46   C     C_R   0.911390 0.349460 0.791465 -0.088109
C47   C     C_R   0.916877 0.299853 0.834036 -0.173713
C48   C     C_R   0.508470 0.309736 0.626545 -0.013306
C49   C     C_R   0.637578 0.374139 0.637787 -0.163517
C50   C     C_R   0.749544 0.397532 0.701370 -0.025009
H14   H     H_    0.373253 0.081761 0.814897 0.195957
H15   H     H_    0.425032 0.293045 0.577638 0.177555
H16   H     H_    0.030449 0.390625 0.796464 0.170607
H17   H     H_    0.032604 0.310124 0.872337 0.154479
C51   C     C_R   0.654594 0.409475 0.247194 -0.179247
C52   C     C_R   0.642927 0.425747 0.182072 -0.189567
C53   C     C_R   0.611601 0.363944 0.117447 0.045064
C54   C     C_R   0.601021 0.284561 0.118573 -0.132417
C55   C     C_R   0.619854 0.266189 0.183585 0.037958
C56   C     C_R   0.640330 0.330185 0.249613 0.075361
C57   C     C_R   0.614083 0.185584 0.183714 -0.142543
C58   C     C_R   0.611124 0.169886 0.250640 0.059214
C59   C     C_R   0.632282 0.233534 0.316584 0.009180
C60   C     C_R   0.646231 0.314236 0.316428 -0.133164
C61   C     C_R   0.580275 0.091295 0.252938 -0.278972
C62   C     C_R   0.577456 0.073508 0.318061 -0.112276
C63   C     C_R   0.621792 0.135442 0.382715 0.458308
C64   C     C_R   0.641481 0.214640 0.381499 -0.235221
H18   H     H_    0.674931 0.459941 0.295628 0.113957
H19   H     H_    0.655916 0.487339 0.182718 0.153972
H20   H     H_    0.575632 0.237230 0.068356 0.144378
H21   H     H_    0.551994 0.043106 0.203567 0.164600
H22   H     H_    0.668153 0.261625 0.431798 0.134934
O11   O     O_R   0.775200 0.060470 0.937800 -0.532949
O12   O     O_R   0.441110 0.093720 0.087350 -0.544701
O13   O     O_R   0.266330 0.939630 0.062280 -0.534976
C65   C     C_R   0.608923 0.117607 0.114384 0.703048
O14   O     O_R   0.445750 0.069950 0.939820 -0.547357
O15   O     O_R   0.271000 0.915700 0.913700 -0.548945
C66   C     C_R   0.615994 0.085349 0.918488 0.698830
O16   O     O_R   0.770530 0.084400 0.086380 -0.525657
O17   O     O_3   0.602830 0.949510 0.991680 -0.378077
V3    V     V_3+5 0.329710 0.009370 0.001550 1.474102
O18   O     O_R   0.940990 0.906170 0.912570 -0.551686
C67   C     C_R   0.112718 0.885305 0.883325 0.733918
O19   O     O_R   0.936350 0.929940 0.060100 -0.533519
C68   C     C_R   0.104366 0.913023 0.079861 0.755614
V4    V     V_3+5 0.829160 0.990450 0.998310 1.486430
O20   O     O_3   0.105910 0.050480 0.008320 -0.362050
S1    S     S_3+6 0.010980 0.761865 0.485388 -0.033128
O21   O     O_2   0.799419 0.748720 0.494813 -0.366466
O22   O     O_2   0.124800 0.727508 0.533025 -0.388302
O23   O     O_3   0.058763 0.860834 0.510578 -0.460773
H23   H     H_    0.006072 0.882279 0.560403 0.399161
C69   C     C_2   0.332132 0.764351 0.038267 0.751467
O24   O     O_2   0.252240 0.759239 0.981600 -0.565988
O25   O     O_R   0.528604 0.748029 0.038508 -0.655174
H24   H     H_    0.588703 0.731516 0.988417 0.298387
C70   C     C_2   0.932980 0.202303 0.928123 0.763115
O26   O     O_2   0.892272 0.221339 0.992397 -0.565259
O27   O     O_R   0.125097 0.190664 0.905379 -0.660052
H25   H     H_    0.216958 0.201126 0.947260 0.310679
S2    S     S_3+6 0.209142 0.063839 0.685890 0.084123
O28   O     O_2   0.032637 0.077802 0.733682 -0.335624
O29   O     O_2   0.149749 0.040118 0.608249 -0.225858
O30   O     O_3   0.332098 0.986683 0.696296 -0.531692
H26   H     H_    0.235584 0.943177 0.690333 0.353249
C71   C     C_2   0.302043 0.534800 0.728052 0.765675
O31   O     O_2   0.203636 0.506431 0.674891 -0.552866
O32   O     O_R   0.358016 0.484757 0.767356 -0.667165
H27   H     H_    0.310965 0.427549 0.745426 0.301011
S3    S     S_3+6 0.132830 0.212840 0.619275 0.098705
O33   O     O_2   0.162866 0.163762 0.541576 -0.240677
O34   O     O_2   0.957930 0.182011 0.648508 -0.253928
O35   O     O_3   0.092020 0.308498 0.624017 -0.541827
H28   H     H_    0.041690 0.305881 0.576154 0.368299
C72   C     C_2   0.825273 0.481996 0.730740 0.764714
O36   O     O_2   0.894104 0.506751 0.791093 -0.569755
O37   O     O_R   0.801063 0.536457 0.692887 -0.661637
H29   H     H_    0.849138 0.592154 0.720468 0.285774
S4    S     S_3+6 0.676685 0.116027 0.464053 0.095208
O38   O     O_2   0.757845 0.190091 0.517832 -0.317297
O39   O     O_2   0.499000 0.090321 0.495831 -0.239268
O40   O     O_3   0.840670 0.042652 0.446712 -0.475547
H30   H     H_    0.856228 0.031814 0.493112 0.426588
C73   C     C_2   0.588558 0.382673 0.049017 0.764579
O41   O     O_2   0.541357 0.330073 0.993846 -0.569624
O42   O     O_R   0.619237 0.460903 0.047526 -0.670941
H31   H     H_    0.598594 0.466110 0.997906 0.309640
C74   C     C_2   0.522935 0.990166 0.315111 0.803323
O43   O     O_2   0.464426 0.975498 0.368930 -0.472202
O44   O     O_R   0.532185 0.928051 0.249265 -0.684195
H32   H     H_    0.492097 0.874261 0.253927 0.301312

loop_
_geom_bond_atom_site_label_1
_geom_bond_atom_site_label_2
_ccdc_geom_bond_type
C58   C59   A    
O27   H25   S    
C74   O44   S    
C48   C49   A    
O19   C68   A    
C1    O6    A    
S2    O28   D    
C51   C56   A    
C52   C53   A    
C34   C69   S    
O32   H27   S    
C26   C27   A    
C69   O24   D    
O13   C68   A    
S3    O34   D    
C16   H6    S    
C13   C14   A    
O44   H32   S    
C31   H13   S    
C15   C16   A    
C55   C57   A    
V4    O20   S    
C47   H17   S    
O5    C3    A    
C17   C18   A    
C52   H19   S    
C21   S1    S    
C33   C68   S    
S1    O21   D    
C2    C60   S    
C5    C71   S    
C5    C6    A    
C22   C23   A    
V3    O20   S    
C35   C70   S    
O23   H23   S    
O17   V4    S    
O9    C4    A    
C59   C64   A    
O8    V2    S    
C55   C56   A    
C28   C29   A    
C15   H5    S    
C43   C44   A    
S1    O22   D    
C73   O41   D    
C45   C46   A    
C32   H11   S    
C10   C14   A    
C4    C14   S    
C36   C66   S    
O7    V1    S    
C61   H21   S    
C1    C49   S    
C53   C73   S    
O18   V4    S    
O13   V3    S    
C41   C42   A    
C38   C41   A    
C13   C18   A    
O42   H31   S    
C8    C9    A    
H1    C17   S    
C37   H14   S    
C36   C37   A    
C6    H2    S    
C69   O25   S    
C74   O43   D    
S4    O39   D    
C29   C34   A    
O11   C66   A    
S3    O35   S    
O12   V3    S    
C72   O36   D    
C49   C50   A    
O16   V4    S    
C63   S4    S    
C42   C43   A    
C11   C67   S    
C11   C12   A    
C26   H10   S    
O14   C66   A    
C62   C63   A    
O4    C2    A    
C56   C60   A    
C57   C58   A    
C51   C52   A    
C8    H4    S    
C12   C13   A    
C27   C32   A    
C30   H12   S    
C32   C33   A    
C35   C36   A    
C12   C15   A    
O2    C1    A    
C62   C74   S    
C16   C17   A    
C50   C72   S    
S4    O40   S    
C54   C55   A    
C19   H8    S    
O17   V3    S    
S1    O23   S    
C7    C8    A    
C37   C38   A    
O12   C65   A    
O19   V4    S    
C39   C44   A    
O35   H28   S    
O14   V3    S    
O3    C4    A    
O1    V2    S    
C7    H3    S    
C21   C22   A    
C35   C40   A    
C53   C54   A    
O6    V2    S    
O9    V2    S    
C71   O31   D    
C22   C25   A    
C72   O37   S    
C23   C24   A    
C51   H18   S    
O30   H26   S    
O2    V1    S    
S2    O30   S    
O15   V3    S    
C33   C34   A    
C70   O27   S    
S4    O38   D    
C27   C28   A    
C29   C30   A    
O1    C2    A    
C25   C26   A    
O37   H29   S    
S2    O29   D    
O5    V1    S    
O8    C3    A    
C24   C31   A    
C40   C47   A    
S3    O33   D    
C39   C40   A    
C6    C7    A    
C43   C48   A    
O4    V1    S    
O3    V1    S    
V1    O10   S    
O40   H30   S    
O15   C67   A    
C25   H9    S    
C61   C62   A    
C19   C20   A    
C3    C20   S    
C5    C10   A    
C54   H20   S    
C63   C64   A    
C41   S2    S    
C65   O16   A    
C9    C11   A    
C23   C28   A    
C73   O42   S    
O7    V2    S    
C44   C45   A    
C42   S3    S    
C38   C39   A    
C20   C21   A    
C18   H7    S    
C19   C24   A    
C46   C47   A    
C59   C60   A    
C30   C31   A    
C58   C61   A    
C45   C50   A    
C71   O32   S    
C48   H15   S    
C9    C10   A    
O25   H24   S    
O18   C67   A    
C64   H22   S    
C46   H16   S    
V2    O10   S    
C70   O26   D    
O11   V4    S    
C57   C65   S    
