data_mof_unit_53985.cif
_audit_creation_date              2012-10-26T19:11:33-0400
_audit_creation_method            fapswitch 2.2
_symmetry_space_group_name_H-M    P1
_symmetry_Int_Tables_number       1
_space_group_crystal_system       triclinic
_cell_length_a                    15.874328
_cell_length_b                    15.879049
_cell_length_c                    14.648965
_cell_angle_alpha                 90.497802
_cell_angle_beta                  90.41642
_cell_angle_gamma                 90.065902
_cell_volume                      3692.31375282

loop_
_atom_site_label
_atom_site_type_symbol
_atom_type_description
_atom_site_fract_x
_atom_site_fract_y
_atom_site_fract_z
_atom_type_partial_charge
C1    C     C_R   0.499904 0.339878 0.499700 0.545960
C2    C     C_3   0.482274 0.046414 0.405874 0.017704
C3    C     C_3   0.488597 0.948514 0.413829 -0.236065
C4    C     C_R   0.339460 0.499952 0.499649 0.548068
C5    C     C_1   0.500423 0.749591 0.502354 -0.057893
C6    C     C_3   0.496637 0.082991 0.507528 0.041282
C7    C     C_3   0.589187 0.951642 0.551246 0.333332
C8    C     C_3   0.499722 0.917135 0.515522 0.069623
C9    C     C_3   0.422984 0.949762 0.577976 0.292731
C10   C     C_3   0.422955 0.050749 0.572154 0.011603
C11   C     C_1   0.500458 0.824966 0.508146 -0.038460
C12   C     C_3   0.083083 0.499304 0.498847 0.085659
C13   C     C_1   0.497907 0.175233 0.502329 -0.068630
C14   C     C_1   0.498942 0.250557 0.499614 -0.064209
C15   C     C_3   0.540727 0.585441 0.056817 0.286036
C16   C     C_R   0.500185 0.660170 0.500406 0.547583
C17   C     C_3   0.402798 0.488930 0.053970 0.288351
C18   C     C_3   0.403395 0.500588 0.943528 0.479118
C19   C     C_3   0.499574 0.497607 0.091423 -0.031342
C20   C     C_3   0.548954 0.580665 0.945460 0.499997
C21   C     C_3   0.500467 0.497253 0.908230 0.037169
C22   C     C_3   0.548257 0.414063 0.944907 0.506462
C23   C     C_3   0.972346 0.569999 0.545164 -0.141715
C24   C     C_3   0.557125 0.418378 0.056043 0.274097
C25   C     C_1   0.501293 0.499889 0.804897 0.171952
C26   C     C_1   0.498746 0.497990 0.195117 0.196794
C27   C     C_R   0.660532 0.500053 0.500356 0.547112
C28   C     C_3   0.972627 0.429683 0.542703 0.025890
C29   C     C_3   0.026593 0.430859 0.455337 0.264392
C30   C     C_1   0.249976 0.499750 0.498943 -0.011536
C31   C     C_1   0.749994 0.500116 0.501022 -0.047084
C32   C     C_3   0.028521 0.499395 0.585167 0.254013
C33   C     C_3   0.001178 0.302401 0.382847 -0.134315
C34   C     C_3   0.916858 0.499843 0.500486 -0.073476
C35   C     C_3   0.543709 0.082704 0.330082 -0.246010
C36   C     C_3   0.638900 0.087772 0.342660 -0.473290
C37   C     C_3   0.405631 0.105720 0.661739 -0.182679
C38   C     C_3   0.428577 0.074135 0.757440 -0.347890
C39   C     C_3   0.409490 0.848619 0.702223 -0.150100
C40   C     C_3   0.654598 0.144191 0.651894 -0.176553
C41   C     C_3   0.617852 0.918557 0.648929 -0.156610
C42   C     C_3   0.632806 0.823438 0.656875 -0.438087
C43   C     C_3   0.334868 0.913628 0.543424 -0.243027
C44   C     C_3   0.258004 0.951007 0.592438 -0.442665
C45   C     C_3   0.027006 0.568339 0.457915 0.253232
C46   C     C_3   0.552035 0.729341 0.899907 -0.134002
C47   C     C_3   0.937086 0.353084 0.592306 -0.258881
C48   C     C_3   0.006679 0.299877 0.635111 -0.424198
C49   C     C_3   0.488428 0.666528 0.087923 -0.179366
C50   C     C_3   0.477345 0.682052 0.190929 -0.399661
C51   C     C_3   0.363406 0.400657 0.083977 -0.147112
C52   C     C_3   0.267606 0.388171 0.088094 -0.427811
C53   C     C_3   0.274544 0.574284 0.072925 -0.082186
C54   C     C_3   0.322789 0.596970 0.848620 -0.084736
C55   C     C_3   0.348787 0.408092 0.816929 -0.100081
C56   C     C_3   0.971096 0.500228 0.412709 0.029020
C57   C     C_3   0.653521 0.417477 0.093893 -0.140590
C58   C     C_3   0.733116 0.449190 0.045044 -0.350162
C59   C     C_3   0.538282 0.310626 0.177219 -0.174369
C60   C     C_3   0.636114 0.372826 0.815960 -0.102951
C61   C     C_3   0.671470 0.661213 0.097823 -0.125232
C62   C     C_3   0.662951 0.598307 0.835186 -0.093976
C63   C     C_3   0.934481 0.503279 0.315708 -0.249644
C64   C     C_3   0.003366 0.501371 0.243651 -0.423356
C65   C     C_3   0.537398 0.262495 0.930427 -0.071779
C66   C     C_3   0.005718 0.705114 0.411324 -0.132225
C67   C     C_1   0.174580 0.499546 0.498701 0.042221
C68   C     C_3   0.008753 0.525438 0.738657 -0.138461
C69   C     C_3   0.735433 0.941612 0.505524 -0.168806
C70   C     C_3   0.391089 0.070460 0.367337 -0.277372
C71   C     C_3   0.373199 0.050259 0.265978 -0.459935
C72   C     C_1   0.825373 0.500105 0.501044 -0.080680
C73   C     C_3   0.582077 0.051752 0.551531 0.192014
Cu1   Cu    Cu3+1 0.499890 0.499910 0.589920 0.917663
Cu2   Cu    Cu3+1 0.500110 0.500090 0.410080 0.961358
H1    H     H_    0.541525 0.925308 0.371221 0.173786
H2    H     H_    0.665104 0.027003 0.364307 0.194605
H3    H     H_    0.379632 0.138908 0.377567 0.147671
H4    H     H_    0.667795 0.102011 0.275661 0.114214
H5    H     H_    0.535235 0.044130 0.267010 0.142930
H6    H     H_    0.523558 0.147788 0.312688 0.147201
H7    H     H_    0.382727 0.026002 0.780238 0.162162
H8    H     H_    0.493472 0.049547 0.762123 0.218150
H9    H     H_    0.423921 0.127433 0.806770 0.087143
H10   H     H_    0.435319 0.168537 0.656199 0.160162
H11   H     H_    0.336969 0.119976 0.664810 0.091326
H12   H     H_    0.442596 0.834705 0.767209 0.127650
H13   H     H_    0.433484 0.917069 0.381330 0.093396
H14   H     H_    0.422703 0.795601 0.655487 0.126410
H15   H     H_    0.341480 0.850827 0.718336 0.122125
H16   H     H_    0.651983 0.171601 0.721708 0.128502
H17   H     H_    0.647783 0.196718 0.602754 0.121821
H18   H     H_    0.716886 0.113384 0.643999 0.095644
H19   H     H_    0.573135 0.790044 0.670460 0.152713
H20   H     H_    0.661731 0.796405 0.594552 0.182157
H21   H     H_    0.675673 0.811063 0.715488 0.089537
H22   H     H_    0.678108 0.949632 0.668359 0.120451
H23   H     H_    0.576747 0.938935 0.705035 0.193634
H24   H     H_    0.365686 0.068326 0.535071 0.071354
H25   H     H_    0.271376 0.964781 0.665404 0.166365
H26   H     H_    0.237554 0.010231 0.559303 0.121504
H27   H     H_    0.204521 0.905980 0.587970 0.128395
H28   H     H_    0.324772 0.922484 0.469879 0.101369
H29   H     H_    0.332479 0.844151 0.549640 0.133695
H30   H     H_    0.569588 0.744053 0.828830 0.111484
H31   H     H_    0.608625 0.732581 0.943498 0.111166
H32   H     H_    0.508287 0.779986 0.921650 0.106955
H33   H     H_    0.054705 0.282376 0.583685 0.175285
H34   H     H_    0.037843 0.334938 0.691847 0.188648
H35   H     H_    0.947613 0.626240 0.581555 0.087283
H36   H     H_    0.978988 0.241383 0.663110 0.107771
H37   H     H_    0.893560 0.374700 0.646624 0.130612
H38   H     H_    0.899982 0.313991 0.543389 0.121324
H39   H     H_    0.535936 0.668023 0.229574 0.188218
H40   H     H_    0.461628 0.749353 0.203287 0.096105
H41   H     H_    0.424374 0.645039 0.218629 0.205239
H42   H     H_    0.519747 0.724057 0.064747 0.105527
H43   H     H_    0.426904 0.671271 0.053132 0.216440
H44   H     H_    0.239369 0.426495 0.143481 0.155619
H45   H     H_    0.236164 0.399534 0.021617 0.175741
H46   H     H_    0.633592 0.075704 0.509994 0.123986
H47   H     H_    0.254549 0.321450 0.105440 0.112405
H48   H     H_    0.384441 0.349648 0.037627 0.231315
H49   H     H_    0.384747 0.386452 0.154263 0.154364
H50   H     H_    0.250144 0.536651 0.014709 0.160340
H51   H     H_    0.273919 0.641508 0.052909 0.137252
H52   H     H_    0.230439 0.568864 0.130937 0.110133
H53   H     H_    0.266197 0.555866 0.845920 0.138199
H54   H     H_    0.361758 0.593450 0.786319 0.147937
H55   H     H_    0.298626 0.662426 0.851624 0.109535
H56   H     H_    0.292733 0.367617 0.805079 0.126263
H57   H     H_    0.936317 0.328254 0.376683 0.097081
H58   H     H_    0.403344 0.367333 0.802571 0.170297
H59   H     H_    0.343970 0.458110 0.765648 0.123324
H60   H     H_    0.753632 0.405741 0.989871 0.168083
H61   H     H_    0.730241 0.513839 0.020570 0.245537
H62   H     H_    0.785950 0.448927 0.095270 0.070925
H63   H     H_    0.655219 0.446491 0.163066 0.146232
H64   H     H_    0.671539 0.350752 0.104308 0.116827
H65   H     H_    0.566046 0.356557 0.225719 0.128302
H66   H     H_    0.581627 0.256152 0.170601 0.111319
H67   H     H_    0.479764 0.286154 0.208278 0.132478
H68   H     H_    0.001102 0.250125 0.432536 0.120084
H69   H     H_    0.575274 0.357339 0.782098 0.153652
H70   H     H_    0.674017 0.314360 0.820709 0.087380
H71   H     H_    0.670643 0.415667 0.770274 0.125047
H72   H     H_    0.698551 0.671497 0.029733 0.143724
H73   H     H_    0.726835 0.651103 0.142998 0.121583
H74   H     H_    0.640812 0.718103 0.125973 0.096021
H75   H     H_    0.612065 0.610064 0.785093 0.159224
H76   H     H_    0.704830 0.548954 0.807346 0.131108
H77   H     H_    0.702068 0.656069 0.840965 0.082411
H78   H     H_    0.046034 0.556352 0.252067 0.189085
H79   H     H_    0.018074 0.275427 0.315338 0.127166
H80   H     H_    0.040698 0.442532 0.248625 0.182324
H81   H     H_    0.974133 0.503879 0.174644 0.107753
H82   H     H_    0.891279 0.449163 0.304455 0.127658
H83   H     H_    0.896866 0.561666 0.307888 0.137224
H84   H     H_    0.495980 0.221886 0.972040 0.145931
H85   H     H_    0.600452 0.265378 0.964034 0.154579
H86   H     H_    0.543499 0.230969 0.862921 0.086370
H87   H     H_    0.002179 0.734853 0.480136 0.112108
H88   H     H_    0.941873 0.685742 0.387341 0.107032
H89   H     H_    0.029227 0.753402 0.363517 0.130919
H90   H     H_    0.656923 0.141082 0.388205 0.129952
H91   H     H_    0.946695 0.493198 0.732594 0.109055
H92   H     H_    0.000708 0.594793 0.734307 0.111491
H93   H     H_    0.034770 0.511412 0.807332 0.127517
H94   H     H_    0.763313 0.890149 0.546455 0.125407
H95   H     H_    0.745971 0.002607 0.540933 0.086810
H96   H     H_    0.771051 0.943541 0.440740 0.122824
H97   H     H_    0.405055 0.095999 0.220855 0.136065
H98   H     H_    0.393070 0.985298 0.247906 0.141726
H99   H     H_    0.304509 0.055588 0.252123 0.135869
H100  H     H_    0.339949 0.037927 0.402580 0.129348
N1    N     N_1   0.501700 0.501390 0.724970 -0.246300
N2    N     N_1   0.498280 0.498620 0.275030 -0.212975
O1    O     O_R   0.499910 0.379360 0.575970 -0.501765
O2    O     O_3   0.438732 0.927586 0.670830 -0.592534
O3    O     O_3   0.588784 0.084775 0.642071 -0.608587
O4    O     O_3   0.508665 0.651339 0.901681 -0.562516
O5    O     O_3   0.356897 0.552779 0.102934 -0.586910
O6    O     O_3   0.371670 0.583722 0.927842 -0.554869
O7    O     O_3   0.345916 0.436793 0.908834 -0.598165
O8    O     O_3   0.518895 0.341964 0.088683 -0.621952
O9    O     O_3   0.630152 0.410073 0.904399 -0.573443
O10   O     O_3   0.621598 0.587218 0.101561 -0.582754
O11   O     O_3   0.636612 0.574580 0.923695 -0.563482
O12   O     O_R   0.500090 0.379510 0.424100 -0.500344
O13   O     O_3   0.497989 0.342278 0.919196 -0.580274
O14   O     O_3   0.062829 0.637350 0.412008 -0.568175
O15   O     O_3   0.066292 0.496802 0.672647 -0.573356
O16   O     O_3   0.649581 0.924220 0.484643 -0.609650
O17   O     O_R   0.378990 0.499920 0.575920 -0.505944
O18   O     O_R   0.379170 0.500070 0.424050 -0.477754
O19   O     O_R   0.499910 0.620490 0.575900 -0.497132
O20   O     O_R   0.500090 0.620640 0.424030 -0.490743
O21   O     O_R   0.620830 0.499930 0.575950 -0.504517
O22   O     O_R   0.621010 0.500080 0.424080 -0.490447
O23   O     O_3   0.063077 0.362143 0.408305 -0.572718

loop_
_geom_bond_atom_site_label_1
_geom_bond_atom_site_label_2
_ccdc_geom_bond_type
C2    C35   S    
C4    O18   A    
Cu1   O17   S    
C28   C47   S    
C34   C56   S    
C23   C45   S    
C34   C72   S    
C38   H8    S    
C70   H3    S    
C18   C21   S    
C51   H48   S    
C41   C42   S    
C35   C36   S    
C39   H12   S    
C40   H18   S    
C65   H84   S    
C17   C51   S    
C35   H6    S    
C7    C8    S    
C7    C73   S    
C33   H68   S    
C4    O17   A    
C64   H80   S    
C57   H64   S    
C62   H77   S    
C10   C37   S    
C42   H21   S    
C18   O6    S    
C46   O4    S    
C37   H10   S    
C28   C29   S    
Cu2   O12   S    
C61   H73   S    
C5    C11   T    
C36   H2    S    
C12   C29   S    
C68   O15   S    
C47   H37   S    
C46   H30   S    
C35   H5    S    
C61   O10   S    
C66   H87   S    
C50   H40   S    
C69   H96   S    
C23   H35   S    
C19   C26   S    
C43   H29   S    
C5    C16   S    
C53   H52   S    
C40   O3    S    
C73   O3    S    
C52   H47   S    
C17   O5    S    
C45   O14   S    
C49   H42   S    
Cu1   O21   S    
C59   H67   S    
C8    C9    S    
C66   H88   S    
C55   O7    S    
C59   O8    S    
C70   C71   S    
C7    O16   S    
C9    C10   S    
C39   H15   S    
C50   H41   S    
C30   C67   T    
C9    O2    S    
C29   O23   S    
C7    C41   S    
C48   H34   S    
C28   C34   S    
C21   C22   S    
C38   H7    S    
C51   H49   S    
C2    C6    S    
C27   O21   A    
C60   H71   S    
C65   H85   S    
C68   H91   S    
C65   O13   S    
Cu2   O20   S    
C15   C20   S    
C54   H55   S    
C12   C67   S    
Cu1   O19   S    
C9    C43   S    
C62   H76   S    
C27   C31   S    
C51   C52   S    
C47   C48   S    
C37   H11   S    
C28   C32   S    
C27   O22   A    
C45   C56   S    
C3    C8    S    
Cu1   Cu2   S    
C44   H27   S    
C33   H79   S    
C24   C57   S    
C33   O23   S    
C58   H61   S    
C55   H58   S    
C15   O10   S    
C64   H78   S    
C41   H23   S    
C4    C30   S    
C42   H20   S    
C24   O8    S    
C50   H39   S    
C22   O9    S    
C15   C19   S    
C43   C44   S    
C68   H92   S    
Cu1   N1    S    
C37   C38   S    
C16   O19   A    
C20   O11   S    
C1    O1    A    
C49   H43   S    
Cu1   O1    S    
C18   O7    S    
C23   C34   S    
C66   O14   S    
C69   O16   S    
C17   C18   S    
C56   C63   S    
C66   H89   S    
C69   H94   S    
C40   H17   S    
C3    H1    S    
C53   H50   S    
C52   H45   S    
C58   H62   S    
C31   C72   T    
C55   H56   S    
C46   H32   S    
C41   H22   S    
C22   O13   S    
C60   H70   S    
C63   H82   S    
C55   H59   S    
C68   H93   S    
C33   H57   S    
C6    C73   S    
C62   O11   S    
C70   H100  S    
C26   N2    T    
C47   H38   S    
C54   H54   S    
C21   C25   S    
C60   O9    S    
C62   H75   S    
C38   H9    S    
C3    H13   S    
C42   H19   S    
C12   C45   S    
C36   H4    S    
C6    C10   S    
C39   O2    S    
C44   H26   S    
C54   O6    S    
C29   C56   S    
Cu2   O22   S    
C58   H60   S    
C32   O15   S    
C64   H81   S    
C73   H46   S    
C71   H99   S    
C23   C32   S    
C19   C24   S    
C61   H72   S    
C2    C70   S    
C53   O5    S    
C60   H69   S    
C6    C13   S    
C44   H25   S    
C25   N1    T    
C57   C58   S    
C48   H33   S    
C54   H53   S    
C59   H65   S    
C8    C11   S    
C46   H31   S    
C36   H90   S    
C17   C19   S    
C57   H63   S    
C2    C3    S    
C22   C24   S    
C69   H95   S    
C15   C49   S    
C40   H16   S    
C10   H24   S    
Cu2   N2    S    
C43   H28   S    
C53   H51   S    
C63   C64   S    
C52   H44   S    
C71   H98   S    
C48   H36   S    
C20   C21   S    
C59   H66   S    
C49   C50   S    
C65   H86   S    
C71   H97   S    
C1    C14   S    
C63   H83   S    
C13   C14   T    
C61   H74   S    
C39   H14   S    
C12   C32   S    
C16   O20   A    
C1    O12   A    
C20   O4    S    
Cu2   O18   S    
