data_mof_unit_60761.cif
_audit_creation_date              2013-03-05T16:12:52-0500
_audit_creation_method            fapswitch 2.2
_symmetry_space_group_name_H-M    P1
_symmetry_Int_Tables_number       1
_space_group_crystal_system       monoclinic
_cell_length_a                    37.088253
_cell_length_b                    30.248137
_cell_length_c                    21.488555
_cell_angle_alpha                 90.0
_cell_angle_beta                  54.85064
_cell_angle_gamma                 90.0
_cell_volume                      19711.1431863

loop_
_atom_site_label
_atom_site_type_symbol
_atom_site_description
_atom_site_fract_x
_atom_site_fract_y
_atom_site_fract_z
_atom_type_partial_charge
O1    O     O_R   0.934520 0.536930 0.565470 -0.570421
O2    O     O_R   0.065480 0.536930 0.434530 -0.570420
O3    O     O_R   0.434520 0.036930 0.565470 -0.570364
O4    O     O_R   0.565480 0.036930 0.434530 -0.570363
O5    O     O_R   0.934480 0.463010 0.565510 -0.593101
O6    O     O_R   0.065520 0.463010 0.434490 -0.593100
O7    O     O_R   0.434480 0.963010 0.565510 -0.592962
O8    O     O_R   0.565520 0.963010 0.434490 -0.592962
C1    C     C_R   0.913636 0.499924 0.586209 0.979339
C2    C     C_R   0.086364 0.499924 0.413791 0.979338
C3    C     C_R   0.413636 0.999925 0.586208 0.979354
C4    C     C_R   0.586364 0.999925 0.413792 0.979352
O9    O     O_R   0.999990 0.536930 0.407410 -0.595843
O10   O     O_R   0.000010 0.536930 0.592590 -0.595844
O11   O     O_R   0.499990 0.036930 0.407410 -0.595872
O12   O     O_R   0.500010 0.036930 0.592590 -0.595872
O13   O     O_R   0.999940 0.463010 0.407450 -0.626410
O14   O     O_R   0.000060 0.463010 0.592550 -0.626409
O15   O     O_R   0.499940 0.963010 0.407450 -0.626397
O16   O     O_R   0.500060 0.963010 0.592550 -0.626397
C5    C     C_R   0.998688 0.500053 0.379855 0.898630
C6    C     C_R   0.001312 0.500053 0.620145 0.898629
C7    C     C_R   0.498688 0.000053 0.379855 0.898513
C8    C     C_R   0.501312 0.000053 0.620145 0.898512
Zn1   Zn    Zn3+2 1.000000 0.549330 0.500000 1.113750
Zn2   Zn    Zn3+2 0.500000 0.049330 0.500000 1.113989
Zn3   Zn    Zn3+2 1.000000 0.450610 0.500000 1.070680
Zn4   Zn    Zn3+2 0.500000 0.950610 0.500000 1.070926
C9    C     C_3   0.984375 0.545792 0.299414 -0.326448
C10   C     C_3   0.015625 0.545792 0.700586 -0.326448
C11   C     C_3   0.484378 0.045794 0.299411 -0.326231
C12   C     C_3   0.515622 0.045794 0.700589 -0.326231
H1    H     H_    0.006358 0.572783 0.294078 0.222438
H2    H     H_    0.993641 0.572783 0.705922 0.222438
H3    H     H_    0.506366 0.072783 0.294069 0.222745
H4    H     H_    0.493634 0.072783 0.705931 0.222745
H5    H     H_    0.950519 0.553658 0.349457 0.221574
H6    H     H_    0.049481 0.553658 0.650543 0.221574
H7    H     H_    0.450524 0.053664 0.349456 0.221086
H8    H     H_    0.549476 0.053664 0.650544 0.221086
C13   C     C_3   0.984769 0.544926 0.227642 -0.417662
C14   C     C_3   0.015231 0.544926 0.772358 -0.417661
C15   C     C_3   0.484769 0.044928 0.227642 -0.419723
C16   C     C_3   0.515231 0.044928 0.772358 -0.419723
H9    H     H_    0.951072 0.552304 0.243350 0.192348
H10   H     H_    0.048928 0.552304 0.756650 0.192348
H11   H     H_    0.451072 0.052307 0.243350 0.189869
H12   H     H_    0.548928 0.052307 0.756650 0.189869
H13   H     H_    0.007210 0.571181 0.187538 0.176852
H14   H     H_    0.992790 0.571181 0.812461 0.176852
H15   H     H_    0.507209 0.071183 0.187538 0.178609
H16   H     H_    0.492791 0.071183 0.812462 0.178609
H17   H     H_    0.070563 0.515513 0.128162 0.222854
H18   H     H_    0.929437 0.515513 0.871838 0.222855
H19   H     H_    0.570564 0.015508 0.128163 0.224265
H20   H     H_    0.429436 0.015508 0.871837 0.224265
C17   C     C_3   0.046589 0.489397 0.240646 0.109283
C18   C     C_3   0.953411 0.489397 0.759354 0.109283
C19   C     C_3   0.546587 0.989392 0.240648 0.109354
C20   C     C_3   0.453413 0.989392 0.759352 0.109353
C21   C     C_3   0.967117 0.464328 0.318222 -0.452646
C22   C     C_3   0.032883 0.464328 0.681778 -0.452647
C23   C     C_3   0.467113 0.964333 0.318228 -0.453006
C24   C     C_3   0.532887 0.964333 0.681772 -0.453006
C25   C     C_3   0.999318 0.500207 0.310982 0.064448
C26   C     C_3   0.000682 0.500207 0.689018 0.064449
C27   C     C_3   0.499318 0.000208 0.310982 0.064377
C28   C     C_3   0.500682 0.000208 0.689017 0.064377
H21   H     H_    0.976245 0.431080 0.327240 0.199192
H22   H     H_    0.023755 0.431080 0.672760 0.199192
H23   H     H_    0.476236 0.931085 0.327253 0.199377
H24   H     H_    0.523764 0.931085 0.672747 0.199377
H25   H     H_    0.932956 0.471509 0.368268 0.198180
H26   H     H_    0.067044 0.471509 0.631732 0.198180
H27   H     H_    0.432953 0.971519 0.368271 0.198490
H28   H     H_    0.567047 0.971519 0.631729 0.198490
C29   C     C_3   0.000250 0.499096 0.189205 0.112748
C30   C     C_3   0.999750 0.499096 0.810795 0.112748
C31   C     C_3   0.500249 0.999097 0.189206 0.112757
C32   C     C_3   0.499751 0.999097 0.810794 0.112757
C33   C     C_3   0.047257 0.489843 0.168448 -0.396093
C34   C     C_3   0.952743 0.489843 0.831552 -0.396093
C35   C     C_3   0.547255 0.989840 0.168449 -0.396414
C36   C     C_3   0.452745 0.989840 0.831551 -0.396414
C37   C     C_3   0.968345 0.463107 0.245583 -0.406870
C38   C     C_3   0.031655 0.463107 0.754417 -0.406871
C39   C     C_3   0.468344 0.963110 0.245587 -0.404359
C40   C     C_3   0.531656 0.963110 0.754413 -0.404359
H29   H     H_    0.934395 0.468537 0.261171 0.202361
H30   H     H_    0.065605 0.468537 0.738829 0.202361
H31   H     H_    0.434394 0.968541 0.261173 0.203365
H32   H     H_    0.565606 0.968541 0.738827 0.203365
H33   H     H_    0.979309 0.429885 0.218611 0.166001
H34   H     H_    0.020691 0.429885 0.781389 0.166001
H35   H     H_    0.479309 0.929888 0.218618 0.166735
H36   H     H_    0.520691 0.929888 0.781382 0.166736
H37   H     H_    0.055820 0.455685 0.247481 0.184148
H38   H     H_    0.944179 0.455685 0.752519 0.184148
H39   H     H_    0.555815 0.955679 0.247486 0.183459
H40   H     H_    0.444185 0.955679 0.752514 0.183459
H41   H     H_    0.059394 0.457348 0.139070 0.164010
H42   H     H_    0.940606 0.457348 0.860930 0.164010
H43   H     H_    0.559390 0.957344 0.139072 0.161173
H44   H     H_    0.440610 0.957344 0.860928 0.161173
C41   C     C_R   0.795919 0.466707 0.732940 -0.219836
C42   C     C_R   0.204081 0.466707 0.267060 -0.219836
C43   C     C_R   0.295920 0.966698 0.732919 -0.219821
C44   C     C_R   0.704080 0.966698 0.267081 -0.219821
H45   H     H_    0.777605 0.440474 0.773806 0.180926
H46   H     H_    0.222395 0.440474 0.226194 0.180926
H47   H     H_    0.277608 0.940458 0.773769 0.180438
H48   H     H_    0.722392 0.940458 0.226231 0.180438
C45   C     C_R   0.841726 0.465532 0.687458 0.307357
C46   C     C_R   0.158274 0.465532 0.312542 0.307357
C47   C     C_R   0.341727 0.965526 0.687442 0.307771
C48   C     C_R   0.658273 0.965526 0.312558 0.307771
C49   C     C_R   0.865460 0.499871 0.633746 -0.285678
C50   C     C_R   0.134540 0.499871 0.366253 -0.285679
C51   C     C_R   0.365460 0.999872 0.633745 -0.285587
C52   C     C_R   0.634540 0.999872 0.366255 -0.285588
C53   C     C_R   0.842344 0.534359 0.626097 0.294166
C54   C     C_R   0.157656 0.534359 0.373903 0.294166
C55   C     C_R   0.342345 0.034365 0.626109 0.294646
C56   C     C_R   0.657655 0.034365 0.373890 0.294646
C57   C     C_R   0.796547 0.535161 0.673980 -0.221247
C58   C     C_R   0.203453 0.535161 0.326020 -0.221247
C59   C     C_R   0.296548 0.035168 0.673996 -0.221117
C60   C     C_R   0.703452 0.035168 0.326004 -0.221117
H49   H     H_    0.778713 0.561614 0.668792 0.180898
H50   H     H_    0.221287 0.561614 0.331208 0.180898
H51   H     H_    0.278715 0.061629 0.668823 0.180446
H52   H     H_    0.721285 0.061629 0.331177 0.180446
C61   C     C_R   0.773520 0.501509 0.726886 -0.023505
C62   C     C_R   0.226480 0.501509 0.273114 -0.023506
C63   C     C_R   0.273520 0.001507 0.726884 -0.023060
C64   C     C_R   0.726480 0.001507 0.273116 -0.023060
C65   C     C_R   0.702627 0.507346 0.741901 -0.163935
C66   C     C_R   0.297373 0.507346 0.258099 -0.163935
C67   C     C_R   0.202624 0.007412 0.741917 -0.163783
C68   C     C_R   0.797376 0.007412 0.258083 -0.163783
H53   H     H_    0.720000 0.511384 0.680945 0.143219
H54   H     H_    0.280000 0.511384 0.319055 0.143219
H55   H     H_    0.219994 0.011499 0.680971 0.143034
H56   H     H_    0.780006 0.011499 0.319028 0.143034
C69   C     C_R   0.656961 0.506670 0.787404 -0.187982
C70   C     C_R   0.343039 0.506670 0.212596 -0.187982
C71   C     C_R   0.156958 0.006739 0.787421 -0.188142
C72   C     C_R   0.843042 0.006739 0.212579 -0.188142
H57   H     H_    0.639657 0.510729 0.760879 0.163715
H58   H     H_    0.360343 0.510729 0.239121 0.163715
H59   H     H_    0.139652 0.010854 0.760909 0.163125
H60   H     H_    0.860348 0.010854 0.239091 0.163125
C73   C     C_R   0.634088 0.500825 0.866249 -0.038153
C74   C     C_R   0.365912 0.500825 0.133750 -0.038153
C75   C     C_R   0.134086 0.000826 0.866251 -0.037380
C76   C     C_R   0.865914 0.000826 0.133749 -0.037380
C77   C     C_R   0.657300 0.495789 0.899174 -0.190535
C78   C     C_R   0.342700 0.495789 0.100826 -0.190535
C79   C     C_R   0.157298 0.995722 0.899163 -0.190509
C80   C     C_R   0.842702 0.995722 0.100837 -0.190509
H61   H     H_    0.640249 0.491263 0.959943 0.164835
H62   H     H_    0.359751 0.491263 0.040057 0.164835
H63   H     H_    0.140247 0.991140 0.959921 0.164271
H64   H     H_    0.859753 0.991140 0.040079 0.164271
C81   C     C_R   0.702984 0.496258 0.853539 -0.154766
C82   C     C_R   0.297016 0.496258 0.146461 -0.154766
C83   C     C_R   0.202982 0.996193 0.853528 -0.154561
C84   C     C_R   0.797018 0.996193 0.146472 -0.154561
H65   H     H_    0.720658 0.492356 0.879455 0.150556
H66   H     H_    0.279342 0.492356 0.120545 0.150556
H67   H     H_    0.220655 0.992240 0.879437 0.150367
H68   H     H_    0.779345 0.992240 0.120563 0.150367
C85   C     C_R   0.725669 0.501990 0.774886 0.159452
C86   C     C_R   0.274331 0.501990 0.225114 0.159452
C87   C     C_R   0.225668 0.001989 0.774888 0.159737
C88   C     C_R   0.774332 0.001989 0.225112 0.159737
O17   O     O_R   0.963000 0.565420 0.036990 -0.620491
O18   O     O_R   0.037000 0.565420 0.963010 -0.620493
O19   O     O_R   0.463000 0.065420 0.036990 -0.620337
O20   O     O_R   0.537000 0.065420 0.963010 -0.620338
C89   C     C_R   0.000000 0.586197 0.000000 0.864387
C90   C     C_R   0.500000 0.086197 0.000000 0.864481
O21   O     O_R   0.963020 0.499940 0.129580 -0.626659
O22   O     O_R   0.036980 0.499940 0.870420 -0.626659
O23   O     O_R   0.463020 0.999940 0.129580 -0.626806
O24   O     O_R   0.536980 0.999940 0.870420 -0.626806
O25   O     O_R   0.036940 0.500000 0.055660 -0.625726
O26   O     O_R   0.963060 0.500000 0.944340 -0.625725
O27   O     O_R   0.536940 0.000000 0.055660 -0.625514
O28   O     O_R   0.463060 1.000000 0.944340 -0.625514
C91   C     C_R   0.000126 0.499017 0.121227 0.853024
C92   C     C_R   0.999874 0.499017 0.878773 0.853025
C93   C     C_R   0.500126 0.999017 0.121227 0.853028
C94   C     C_R   0.499874 0.999017 0.878773 0.853029
Zn5   Zn    Zn3+2 0.950610 0.499940 0.049380 0.961818
Zn6   Zn    Zn3+2 0.049390 0.499940 0.950620 0.961817
Zn7   Zn    Zn3+2 0.450610 0.999940 0.049380 0.961802
Zn8   Zn    Zn3+2 0.549390 0.999940 0.950620 0.961801
O29   O     O_R   0.963020 0.434470 0.036970 -0.623823
O30   O     O_R   0.036980 0.434470 0.963030 -0.623823
O31   O     O_R   0.463020 0.934470 0.036970 -0.624020
O32   O     O_R   0.536980 0.934470 0.963030 -0.624020
C95   C     C_R   0.000000 0.413690 0.000000 0.855363
C96   C     C_R   0.500000 0.913688 0.000000 0.855317
O33   O     O_R   0.499930 0.434510 0.947790 -0.622724
O34   O     O_R   0.500070 0.434510 0.052210 -0.622725
O35   O     O_R   0.999930 0.934510 0.947790 -0.622725
O36   O     O_R   0.000070 0.934510 0.052210 -0.622725
C97   C     C_R   0.500000 0.413734 0.000000 0.868872
C98   C     C_R   0.000000 0.913733 0.000000 0.868786
O37   O     O_R   0.565440 0.499980 0.882290 -0.624964
O38   O     O_R   0.434560 0.499980 0.117710 -0.624963
O39   O     O_R   0.065440 0.999980 0.882290 -0.624890
O40   O     O_R   0.934560 0.999980 0.117710 -0.624889
O41   O     O_R   0.565450 0.499990 0.986830 -0.624057
O42   O     O_R   0.434550 0.499990 0.013170 -0.624056
O43   O     O_R   0.065450 0.999990 0.986830 -0.623993
O44   O     O_R   0.934550 0.999990 0.013170 -0.623992
C99   C     C_R   0.586186 0.500150 0.913935 0.872105
C100  C     C_R   0.413814 0.500150 0.086065 0.872104
C101  C     C_R   0.086186 0.000151 0.913936 0.872026
C102  C     C_R   0.913814 0.000151 0.086064 0.872025
Zn9   Zn    Zn3+2 0.499970 0.499980 0.930220 0.964104
Zn10  Zn    Zn3+2 0.500030 0.499980 0.069780 0.964104
Zn11  Zn    Zn3+2 0.999970 0.999980 0.930220 0.964342
Zn12  Zn    Zn3+2 0.000030 0.999980 0.069780 0.964342
O45   O     O_R   0.500010 0.565460 0.947720 -0.623182
O46   O     O_R   0.499990 0.565460 0.052280 -0.623182
O47   O     O_R   0.000010 0.065460 0.947720 -0.623127
O48   O     O_R   0.999990 0.065460 0.052280 -0.623127
C103  C     C_R   0.500000 0.586231 0.000000 0.868074
C104  C     C_R   0.000000 0.086232 0.000000 0.868076
C105  C     C_R   0.962166 0.703048 0.018966 -0.164907
C106  C     C_R   0.037834 0.703048 0.981034 -0.164907
C107  C     C_R   0.537773 0.203050 0.943598 -0.164647
C108  C     C_R   0.462227 0.203050 0.056402 -0.164647
H69   H     H_    0.932707 0.720651 0.034090 0.141507
H70   H     H_    0.067293 0.720651 0.965910 0.141506
H71   H     H_    0.567189 0.220651 0.900039 0.141010
H72   H     H_    0.432811 0.220651 0.099961 0.141010
C109  C     C_R   0.962059 0.657225 0.019426 -0.182696
C110  C     C_R   0.037941 0.657225 0.980574 -0.182695
C111  C     C_R   0.537880 0.157228 0.943836 -0.182527
C112  C     C_R   0.462120 0.157228 0.056164 -0.182527
H73   H     H_    0.932539 0.639890 0.034257 0.161226
H74   H     H_    0.067461 0.639890 0.965743 0.161225
H75   H     H_    0.567352 0.139895 0.899858 0.159728
H76   H     H_    0.432648 0.139895 0.100142 0.159728
C113  C     C_R   0.000000 0.634167 0.000000 -0.039734
C114  C     C_R   0.500000 0.134169 0.000000 -0.038276
C115  C     C_R   0.000000 0.725963 0.000000 0.104869
C116  C     C_R   0.500000 0.225965 0.000000 0.105343
C117  C     C_R   0.487776 0.296836 0.065995 -0.166204
C118  C     C_R   0.512224 0.296836 0.934005 -0.166204
C119  C     C_R   0.012330 0.796832 0.041548 -0.166174
C120  C     C_R   0.987670 0.796832 0.958452 -0.166174
H77   H     H_    0.478519 0.279233 0.117120 0.141000
H78   H     H_    0.521481 0.279233 0.882880 0.141000
H79   H     H_    0.021671 0.779228 0.074158 0.141180
H80   H     H_    0.978329 0.779228 0.925842 0.141181
C121  C     C_R   0.488018 0.342659 0.065894 -0.181130
C122  C     C_R   0.511982 0.342659 0.934106 -0.181130
C123  C     C_R   0.012088 0.842655 0.041930 -0.181199
C124  C     C_R   0.987911 0.842655 0.958070 -0.181198
H81   H     H_    0.478512 0.359971 0.117377 0.159990
H82   H     H_    0.521488 0.359971 0.882623 0.159990
H83   H     H_    0.021676 0.859967 0.074406 0.159744
H84   H     H_    0.978324 0.859967 0.925594 0.159745
C125  C     C_R   0.500000 0.365735 0.000000 -0.035330
C126  C     C_R   0.000000 0.865733 0.000000 -0.035038
C127  C     C_R   0.500000 0.273921 0.000000 0.105591
C128  C     C_R   0.000000 0.773918 0.000000 0.105319
C129  C     C_R   0.962168 0.296857 0.056231 -0.167442
C130  C     C_R   0.037832 0.296857 0.943769 -0.167443
C131  C     C_R   0.537941 0.796851 0.980492 -0.167690
C132  C     C_R   0.462059 0.796851 0.019508 -0.167690
H85   H     H_    0.932709 0.279254 0.099652 0.140208
H86   H     H_    0.067291 0.279254 0.900348 0.140208
H87   H     H_    0.567480 0.779244 0.964947 0.141360
H88   H     H_    0.432520 0.779244 0.035053 0.141360
C133  C     C_R   0.962063 0.342674 0.055995 -0.186857
C134  C     C_R   0.037937 0.342674 0.944005 -0.186857
C135  C     C_R   0.538046 0.842669 0.980038 -0.186823
C136  C     C_R   0.461954 0.842669 0.019962 -0.186822
H89   H     H_    0.932545 0.360006 0.099840 0.158424
H90   H     H_    0.067455 0.360006 0.900160 0.158423
H91   H     H_    0.567652 0.859999 0.964777 0.160088
H92   H     H_    0.432348 0.859999 0.035223 0.160089
C137  C     C_R   1.000000 0.365728 0.000000 -0.034517
C138  C     C_R   0.500000 0.865724 0.000000 -0.036652
C139  C     C_R   1.000000 0.273950 0.000000 0.107052
C140  C     C_R   0.500000 0.773945 0.000000 0.105548
C141  C     C_R   0.487457 0.703101 0.958757 -0.167647
C142  C     C_R   0.512543 0.703101 0.041243 -0.167647
C143  C     C_R   0.012366 0.203102 0.933926 -0.167228
C144  C     C_R   0.987634 0.203102 0.066074 -0.167228
H93   H     H_    0.477948 0.720708 0.926395 0.140241
H94   H     H_    0.522052 0.720708 0.073605 0.140241
H95   H     H_    0.021732 0.220706 0.882741 0.139212
H96   H     H_    0.978267 0.220706 0.117259 0.139212
C145  C     C_R   0.487703 0.657281 0.958368 -0.181445
C146  C     C_R   0.512297 0.657281 0.041632 -0.181445
C147  C     C_R   0.012126 0.157284 0.934023 -0.181321
C148  C     C_R   0.987874 0.157284 0.065977 -0.181321
H97   H     H_    0.477949 0.639964 0.926139 0.159887
H98   H     H_    0.522051 0.639964 0.073860 0.159887
H99   H     H_    0.021746 0.139970 0.882480 0.159032
H100  H     H_    0.978254 0.139970 0.117520 0.159032
C149  C     C_R   0.500000 0.634214 0.000000 -0.034569
C150  C     C_R   0.000000 0.134216 0.000000 -0.033643
C151  C     C_R   0.500000 0.726005 0.000000 0.105760
C152  C     C_R   1.000000 0.226008 0.000000 0.106632
N1    N     N_R   0.863181 0.429575 0.697618 0.227588
O49   O     O_R   0.892548 0.437490 0.711056 -0.378867
O50   O     O_R   0.847839 0.389601 0.707179 -0.382979
N2    N     N_R   0.136818 0.429575 0.302382 0.227588
O51   O     O_R   0.107452 0.437490 0.288944 -0.378867
O52   O     O_R   0.152161 0.389601 0.292821 -0.382979
N3    N     N_R   0.363183 0.929566 0.697595 0.227397
O53   O     O_R   0.392541 0.937478 0.711054 -0.379723
O54   O     O_R   0.347846 0.889591 0.707132 -0.383740
N4    N     N_R   0.636817 0.929566 0.302405 0.227396
O55   O     O_R   0.607459 0.937478 0.288946 -0.379723
O56   O     O_R   0.652154 0.889591 0.292868 -0.383740
N5    N     N_R   0.864529 0.567341 0.567544 0.224995
O57   O     O_R   0.892855 0.555406 0.497166 -0.442018
O58   O     O_R   0.850706 0.608066 0.582010 -0.369449
N6    N     N_R   0.135471 0.567341 0.432456 0.224995
O59   O     O_R   0.107144 0.555406 0.502834 -0.442018
O60   O     O_R   0.149294 0.608066 0.417990 -0.369449
N7    N     N_R   0.364529 0.067354 0.567568 0.224829
O61   O     O_R   0.392851 0.055426 0.497184 -0.442555
O62   O     O_R   0.350709 0.108079 0.582050 -0.370356
N8    N     N_R   0.635471 0.067354 0.432432 0.224829
O63   O     O_R   0.607149 0.055426 0.502816 -0.442556
O64   O     O_R   0.649291 0.108079 0.417950 -0.370357
Br1   Br    Br    0.091352 0.529874 0.229080 -0.490766
Br2   Br    Br    0.908648 0.529874 0.770920 -0.490766
Br3   Br    Br    0.591356 0.029862 0.229080 -0.488463
Br4   Br    Br    0.408644 0.029862 0.770920 -0.488463

loop_
_geom_bond_atom_site_label_1
_geom_bond_atom_site_label_2
_geom_bond_distance
_ccdc_geom_bond_type
N4    O56   1.301314 A    
C39   H31   1.113113 S    
C96   C138  1.450819 S    
C130  C134  1.385905 A    
C24   H24   1.113141 S    
C31   C39   1.549923 S    
C123  H83   1.083222 S    
C105  C115  1.398918 A    
C109  H73   1.083253 S    
C142  H94   1.083531 S    
C18   C34   1.537375 S    
C9    H1    1.112136 S    
C136  H92   1.083228 S    
C10   H6    1.111283 S    
C105  H69   1.083534 S    
O40   C102  1.287212 A    
C54   N6    1.436453 S    
C70   H58   1.083074 S    
C123  C126  1.401864 A    
C132  H88   1.083524 S    
C66   C86   1.398724 A    
O35   C98   1.287264 A    
O4    C4    1.286081 A    
C71   C75   1.402327 A    
O43   Zn12  2.021019 S    
C136  C138  1.401613 A    
C111  C114  1.401605 A    
Zn10  O46   2.016187 S    
C13   H13   1.113650 S    
O20   C90   1.286071 A    
C23   C27   1.553821 S    
C81   H65   1.083535 S    
C82   C86   1.398986 A    
C109  C113  1.401596 A    
C38   H30   1.113113 S    
C10   H2    1.112135 S    
C83   H67   1.083534 S    
O38   C100  1.287221 A    
O33   Zn9   2.015855 S    
O13   C5    1.280995 A    
O7    Zn4   2.022031 S    
N2    O51   1.299652 A    
C148  C150  1.401776 A    
C65   C85   1.398724 A    
C30   C34   1.556078 S    
O4    Zn2   2.020834 S    
C70   C74   1.402339 A    
C145  H97   1.083206 S    
C68   C88   1.398743 A    
C17   H37   1.111995 S    
O9    C5    1.276772 A    
O48   C104  1.286997 A    
C107  C111  1.386072 A    
C21   C37   1.535566 S    
C84   C88   1.399003 A    
C119  C123  1.386104 A    
C120  C124  1.386104 A    
O8    Zn4   2.022025 S    
H19   C35   1.112596 S    
C41   C61   1.392730 A    
C117  C121  1.386098 A    
C62   C86   1.451195 S    
C110  C113  1.401590 A    
O3    Zn2   2.020840 S    
C59   C63   1.392877 A    
C20   H40   1.111999 S    
C74   C78   1.402215 A    
C51   C55   1.418615 A    
C146  H98   1.083206 S    
C45   N1    1.436636 S    
C32   C40   1.549923 S    
C122  C125  1.401841 A    
C79   C83   1.385476 A    
C80   C84   1.385476 A    
C59   H51   1.083992 S    
O20   Zn8   2.015970 S    
C21   C25   1.553841 S    
C58   C62   1.392862 A    
C13   H9    1.113523 S    
C129  C139  1.398849 A    
O23   Zn7   2.023663 S    
C15   H11   1.113538 S    
O46   C103  1.286989 A    
O37   Zn9   2.019214 S    
C16   H12   1.113538 S    
O28   Zn7   2.026801 S    
O45   C103  1.286993 A    
N3    O54   1.301314 A    
C18   H38   1.111995 S    
O3    C3    1.286079 A    
C15   H15   1.113634 S    
C33   H41   1.113602 S    
C53   C57   1.389979 A    
C22   C38   1.535566 S    
C22   H22   1.113140 S    
C11   C15   1.534129 S    
C24   C28   1.553821 S    
C41   C45   1.389559 A    
O47   C104  1.287000 A    
O24   Zn8   2.023663 S    
C131  C140  1.398812 A    
C106  H70   1.083534 S    
Zn9   O45   2.016187 S    
N1    O50   1.301313 A    
C118  C127  1.398847 A    
C76   C102  1.452742 S    
C50   C54   1.418621 A    
C7    C27   1.466646 S    
N5    O58   1.301313 A    
C19   C27   1.553682 S    
O5    Zn3   2.022031 S    
C67   H55   1.083513 S    
C142  C151  1.398762 A    
O34   Zn10  2.015855 S    
C39   H35   1.113436 S    
Zn8   O32   2.015791 S    
O33   C97   1.287251 A    
C131  C135  1.385942 A    
C121  C125  1.401838 A    
C98   C126  1.451914 S    
C16   H16   1.113635 S    
C29   C37   1.549931 S    
C73   C77   1.402215 A    
C20   Br4   1.960086 S    
C107  C116  1.398922 A    
C108  C116  1.398924 A    
Zn5   O29   2.015791 S    
C119  C128  1.398833 A    
C135  C138  1.401610 A    
C24   H28   1.113590 S    
C22   C26   1.553841 S    
C75   C79   1.402204 A    
O13   Zn3   2.025089 S    
C76   C80   1.402204 A    
C46   N2    1.436636 S    
C77   C81   1.385484 A    
C8    C28   1.466646 S    
N8    O63   1.300694 A    
C132  C136  1.385942 A    
C56   N8    1.436457 S    
Zn12  O48   2.016187 S    
O18   Zn6   2.015970 S    
C48   C52   1.419872 A    
C71   H59   1.083079 S    
O5    C1    1.283095 A    
C57   H49   1.083996 S    
C55   C59   1.389973 A    
C143  C152  1.398784 A    
C144  H96   1.083529 S    
O8    C4    1.283096 A    
C34   H42   1.113602 S    
C10   C26   1.558467 S    
O15   Zn4   2.025089 S    
C106  C110  1.386085 A    
C45   C49   1.419878 A    
C14   H14   1.113649 S    
C82   H66   1.083535 S    
C47   C51   1.419872 A    
C18   Br2   1.960088 S    
C36   H44   1.113613 S    
C9    C25   1.558467 S    
C75   C101  1.452742 S    
C141  C145  1.385969 A    
C143  C147  1.385928 A    
O38   Zn10  2.019214 S    
C144  C148  1.385928 A    
C41   H45   1.084131 S    
C124  C126  1.401868 A    
C9    C13   1.534121 S    
C67   C87   1.398743 A    
O14   C6    1.280996 A    
C43   H47   1.084127 S    
O24   C94   1.281605 A    
C22   H26   1.113588 S    
C72   H60   1.083079 S    
N6    O59   1.300689 A    
C115  C128  1.450537 S    
C12   H4    1.112134 S    
C116  C127  1.450571 S    
C14   C30   1.545182 S    
O37   C99   1.287219 A    
C31   C93   1.463404 S    
O26   C92   1.278746 A    
O10   C6    1.276771 A    
C90   C114  1.451039 S    
C23   H27   1.113588 S    
C66   C70   1.384986 A    
O17   C89   1.286067 A    
C120  H80   1.083547 S    
C146  C149  1.401769 A    
C83   C87   1.399003 A    
C17   C33   1.537375 S    
C73   C99   1.452775 S    
O39   Zn11  2.019214 S    
C117  H77   1.083525 S    
C148  H100  1.083200 S    
C118  C122  1.386098 A    
C61   C85   1.451195 S    
C104  C150  1.451433 S    
C40   H36   1.113433 S    
O25   Zn6   2.026799 S    
C32   C36   1.556077 S    
C47   N3    1.436638 S    
O41   Zn10  2.021019 S    
C64   C88   1.451235 S    
C110  H74   1.083256 S    
O32   C96   1.285605 A    
C80   H64   1.083072 S    
C65   C69   1.384986 A    
C19   C35   1.537376 S    
C60   C64   1.392877 A    
C17   Br1   1.960088 S    
C58   H50   1.083996 S    
C21   H21   1.113140 S    
O17   Zn5   2.015969 S    
C1    C49   1.460985 S    
N2    O52   1.301312 A    
C14   H10   1.113527 S    
C43   C63   1.392747 A    
O39   C101  1.287210 A    
O26   Zn5   2.026801 S    
O21   Zn5   2.023663 S    
O22   C92   1.281609 A    
C56   C60   1.389973 A    
O19   C90   1.286076 A    
N4    O55   1.299652 A    
C3    C51   1.460979 S    
O29   C95   1.285588 A    
H20   C36   1.112596 S    
C133  H89   1.083231 S    
C135  H91   1.083228 S    
C29   C91   1.463395 S    
O42   C100  1.287641 A    
C16   C32   1.545193 S    
O1    C1    1.286085 A    
O43   C101  1.287630 A    
C66   H54   1.083515 S    
O23   C93   1.281605 A    
C37   H29   1.113113 S    
C21   H25   1.113588 S    
O22   Zn6   2.023663 S    
C129  H85   1.083522 S    
C44   H48   1.084129 S    
C106  C115  1.398914 A    
C131  H87   1.083524 S    
N7    O61   1.300693 A    
C121  H81   1.083193 S    
O41   C99   1.287639 A    
C55   N7    1.436457 S    
C30   C92   1.463395 S    
C35   H43   1.113613 S    
C111  H75   1.083231 S    
C11   H3    1.112134 S    
C74   C100  1.452775 S    
C77   H61   1.083069 S    
H18   C34   1.112597 S    
C78   C82   1.385484 A    
C65   H53   1.083515 S    
C5    C25   1.466653 S    
C107  H71   1.083516 S    
C68   H56   1.083513 S    
C17   C25   1.553679 S    
O6    C2    1.283096 A    
C143  H95   1.083529 S    
O16   Zn4   2.025083 S    
C95   C137  1.450737 S    
C129  C133  1.385905 A    
C44   C48   1.389554 A    
O42   Zn9   2.021016 S    
C140  C151  1.450093 S    
C31   C35   1.556077 S    
C53   N5    1.436453 S    
N1    O49   1.299652 A    
C117  C127  1.398845 A    
O2    Zn1   2.020834 S    
O10   Zn1   2.024881 S    
C141  H93   1.083531 S    
N5    O57   1.300689 A    
H17   C33   1.112599 S    
Zn11  O47   2.016187 S    
C142  C146  1.385969 A    
O18   C89   1.286062 A    
C11   C27   1.558480 S    
N3    O53   1.299652 A    
C141  C151  1.398766 A    
C112  H76   1.083231 S    
C84   H68   1.083534 S    
C20   C28   1.553682 S    
C9    H5    1.111282 S    
C10   C14   1.534119 S    
C72   C76   1.402327 A    
C81   C85   1.398986 A    
C24   C40   1.535556 S    
C69   H57   1.083074 S    
O27   Zn8   2.026799 S    
C19   H39   1.111999 S    
O15   C7    1.280999 A    
Zn6   O30   2.015791 S    
C48   N4    1.436638 S    
C68   C72   1.384981 A    
O7    C3    1.283094 A    
C120  C128  1.398837 A    
C67   C71   1.384981 A    
C112  C114  1.401606 A    
C42   C46   1.389559 A    
C44   C64   1.392745 A    
C13   C29   1.545182 S    
N8    O64   1.301311 A    
C118  H78   1.083525 S    
C15   C31   1.545193 S    
C49   C53   1.418621 A    
C6    C26   1.466653 S    
C38   H34   1.113443 S    
C4    C52   1.460979 S    
O35   Zn11  2.015855 S    
C40   H32   1.113113 S    
C144  C152  1.398782 A    
Zn7   O31   2.015791 S    
C29   C33   1.556078 S    
C130  C139  1.398848 A    
O44   Zn11  2.021016 S    
O25   C91   1.278744 A    
C12   C28   1.558480 S    
O36   Zn12  2.015855 S    
C30   C38   1.549931 S    
O11   C7    1.276766 A    
C145  C149  1.401773 A    
O12   C8    1.276765 A    
C103  C149  1.451408 S    
O1    Zn1   2.020840 S    
O9    Zn1   2.024883 S    
C37   H33   1.113444 S    
C60   H52   1.083992 S    
C18   C26   1.553679 S    
O44   C102  1.287632 A    
C119  H79   1.083547 S    
O16   C8    1.281001 A    
N6    O60   1.301313 A    
C78   H62   1.083069 S    
O11   Zn2   2.024883 S    
C147  H99   1.083200 S    
O19   Zn7   2.015969 S    
C108  H72   1.083516 S    
C63   C87   1.451235 S    
C54   C58   1.389979 A    
C2    C50   1.460985 S    
O27   C93   1.278750 A    
C134  C137  1.401584 A    
O6    Zn3   2.022025 S    
C42   C62   1.392730 A    
C124  H84   1.083222 S    
C12   C16   1.534129 S    
N7    O62   1.301311 A    
C43   C47   1.389554 A    
C46   C50   1.419878 A    
C147  C150  1.401778 A    
C105  C109  1.386085 A    
C19   Br3   1.960086 S    
C134  H90   1.083231 S    
O31   C96   1.285608 A    
C79   H63   1.083072 S    
O2    C2    1.286087 A    
C42   H46   1.084131 S    
C57   C61   1.392862 A    
C23   C39   1.535556 S    
C139  C152  1.450156 S    
C130  H86   1.083522 S    
O14   Zn3   2.025083 S    
C23   H23   1.113141 S    
O12   Zn2   2.024881 S    
O21   C91   1.281609 A    
C122  H82   1.083193 S    
C32   C94   1.463404 S    
C108  C112  1.386072 A    
C69   C73   1.402339 A    
C89   C113  1.451009 S    
C20   C36   1.537376 S    
O34   C97   1.287247 A    
O30   C95   1.285586 A    
C97   C125  1.451865 S    
C11   H7    1.111287 S    
C12   H8    1.111286 S    
O40   Zn12  2.019214 S    
O28   C94   1.278752 A    
C132  C140  1.398816 A    
O36   C98   1.287261 A    
C52   C56   1.418615 A    
C133  C137  1.401586 A    
