data_mof_unit_20085.cif
_audit_creation_date              2012-12-10T17:01:33-0500
_audit_creation_method            fapswitch 2.2
_symmetry_space_group_name_H-M    P1
_symmetry_Int_Tables_number       1
_space_group_crystal_system       triclinic
_cell_length_a                    12.784864
_cell_length_b                    10.727532
_cell_length_c                    10.034646
_cell_angle_alpha                 89.982776
_cell_angle_beta                  98.171172
_cell_angle_gamma                 90.181445
_cell_volume                      1362.27333834

loop_
_atom_site_label
_atom_site_type_symbol
_atom_type_description
_atom_site_fract_x
_atom_site_fract_y
_atom_site_fract_z
_atom_type_partial_charge
C1    C     C_R   0.498538 0.262964 0.499516 0.857086
C2    C     C_2   0.493094 0.131558 0.495140 0.238421
C3    C     C_2   0.544693 0.585533 0.934372 0.075968
C4    C     C_R   0.298398 0.501292 0.472250 0.885154
C5    C     C_2   0.561399 0.569750 0.084575 0.086449
C6    C     C_R   0.509053 0.737477 0.501027 0.885381
C7    C     C_R   0.701567 0.495865 0.527589 0.921790
C8    C     C_R   0.813842 0.482597 0.546061 -0.252064
C9    C     C_R   0.185663 0.508411 0.451847 -0.148003
C10   C     C_R   0.029048 0.632252 0.397275 0.663986
C11   C     C_R   0.136392 0.617192 0.394692 -0.049356
C12   C     C_R   0.024566 0.437564 0.525328 -0.059005
C13   C     C_R   0.128822 0.411998 0.504490 0.091493
C14   C     C_3   0.799550 0.288993 0.689755 -0.322370
C15   C     C_3   0.857162 0.172111 0.748195 -0.855148
C16   C     C_3   0.196274 0.719842 0.333046 -0.353982
C17   C     C_3   0.191428 0.700517 0.181585 -0.727336
C18   C     C_3   0.179535 0.282709 0.528480 -0.372188
C19   C     C_3   0.198705 0.222498 0.395879 -0.790865
C20   C     C_3   0.476901 0.897195 0.256030 -0.431577
C21   C     C_3   0.450725 0.000829 0.151553 -0.723931
C22   C     C_3   0.613399 0.906106 0.639457 -0.383270
C23   C     C_R   0.974097 0.546318 0.466646 -0.165461
C24   C     C_3   0.717777 0.835454 0.666603 -0.815015
C25   C     C_R   0.868821 0.567223 0.477577 0.602174
C26   C     C_R   0.863291 0.379009 0.614386 0.071385
C27   C     C_R   0.970108 0.359920 0.605665 -0.127834
C28   C     C_2   0.531225 0.939544 0.394870 0.118435
C29   C     C_2   0.548000 0.864924 0.506040 -0.008999
C30   C     C_2   0.550039 0.071014 0.414481 0.481710
F1    F     F_    0.817025 0.668007 0.417985 -0.626118
F2    F     F_    0.424775 0.071970 0.566501 -0.697672
F3    F     F_    0.496998 0.386203 0.902861 -0.494540
F4    F     F_    0.406710 0.471560 0.079675 -0.523672
F5    F     F_    0.980151 0.734767 0.338036 -0.611478
F6    F     F_    0.620443 0.130161 0.345910 -0.656142
H1    H     H_    0.574116 0.670036 0.893100 0.047416
H2    H     H_    0.108064 0.700599 0.131885 0.275251
H3    H     H_    0.234279 0.777198 0.138126 0.229003
H4    H     H_    0.162264 0.812464 0.351378 0.245711
H5    H     H_    0.279773 0.725304 0.380859 0.184326
H6    H     H_    0.257217 0.275986 0.347247 0.261614
H7    H     H_    0.229776 0.126645 0.415331 0.275275
H8    H     H_    0.123420 0.216568 0.325628 0.266429
H9    H     H_    0.255165 0.289372 0.597696 0.250820
H10   H     H_    0.131087 0.214848 0.575233 0.210984
H11   H     H_    0.399281 0.072225 0.189055 0.260913
H12   H     H_    0.624993 0.621908 0.142679 0.086374
H13   H     H_    0.524112 0.045175 0.126775 0.313440
H14   H     H_    0.407720 0.960198 0.057548 0.236862
H15   H     H_    0.528734 0.829640 0.213113 0.237615
H16   H     H_    0.400799 0.851511 0.267715 0.211458
H17   H     H_    0.703967 0.734379 0.678556 0.268645
H18   H     H_    0.764478 0.850517 0.582730 0.310470
H19   H     H_    0.764440 0.870201 0.761154 0.244852
H20   H     H_    0.634813 0.006204 0.643161 0.214170
H21   H     H_    0.567112 0.889946 0.723634 0.242545
H22   H     H_    0.010526 0.286825 0.664876 0.161822
H23   H     H_    0.886677 0.117291 0.667393 0.273329
H24   H     H_    0.923532 0.197533 0.827426 0.261980
H25   H     H_    0.801331 0.112592 0.795265 0.261072
H26   H     H_    0.770983 0.339914 0.773922 0.235109
H27   H     H_    0.729483 0.256844 0.619657 0.207625
H28   H     H_    0.228537 0.610605 0.160458 0.294251
N1    N     N_2   0.501130 0.501330 0.852280 0.188794
N2    N     N_2   0.501160 0.501360 0.147950 0.191240
O1    O     O_R   0.499980 0.319060 0.613040 -0.558713
O2    O     O_R   0.500020 0.319100 0.386900 -0.577564
O3    O     O_R   0.346340 0.499960 0.594380 -0.602187
O4    O     O_R   0.346380 0.500000 0.368250 -0.589998
O5    O     O_R   0.499980 0.680900 0.613100 -0.634181
O6    O     O_R   0.500020 0.680940 0.386960 -0.654545
O7    O     O_R   0.653620 0.500000 0.631750 -0.664117
O8    O     O_R   0.653660 0.500040 0.405620 -0.575213
Zn1   Zn    Zn3+2 0.499980 0.499970 0.650990 1.048255
Zn2   Zn    Zn3+2 0.500020 0.500030 0.349010 1.075466

loop_
_geom_bond_atom_site_label_1
_geom_bond_atom_site_label_2
_ccdc_geom_bond_type
C25   F1    S    
C6    O6    A    
C10   F5    S    
C22   C29   S    
C10   C23   A    
O2    Zn2   S    
C8    C26   A    
C15   H24   S    
C1    C2    S    
C1    O2    A    
N1    Zn1   S    
C19   H6    S    
C30   F6    S    
C19   H8    S    
O6    Zn2   S    
N2    Zn2   S    
F4    N2    S    
C22   H21   S    
C4    O4    A    
C15   H25   S    
C10   C11   A    
F3    N1    S    
C7    C8    S    
C20   H16   S    
C5    N2    D    
C7    O8    A    
C12   C13   A    
C24   H19   S    
O5    Zn1   S    
C8    C25   A    
O7    Zn1   S    
C12   C23   A    
C26   C27   A    
C3    N1    D    
O8    Zn2   S    
C13   C18   S    
C16   H4    S    
C14   H27   S    
C18   H10   S    
C2    F2    S    
C28   C30   S    
C4    O3    A    
C1    O1    A    
C19   H7    S    
O3    Zn1   S    
C20   H15   S    
C21   H14   S    
C17   H2    S    
C9    C11   A    
C17   H28   S    
O4    Zn2   S    
C6    O5    A    
C5    H12   S    
C22   C24   S    
O1    Zn1   S    
C2    C30   D    
C21   H13   S    
C12   C27   A    
C24   H18   S    
C14   H26   S    
C18   H9    S    
C22   H20   S    
C6    C29   S    
C18   C19   S    
C20   C21   S    
C3    H1    S    
C7    O7    A    
C23   C25   A    
C11   C16   S    
C17   H3    S    
C14   C15   S    
C28   C29   D    
C9    C13   A    
C20   C28   S    
C3    C5    S    
C4    C9    S    
C15   H23   S    
C16   H5    S    
C14   C26   S    
C24   H17   S    
C16   C17   S    
C21   H11   S    
C27   H22   S    
