data_mof_unit_66907.cif
_audit_creation_date              2013-03-05T15:57:26-0500
_audit_creation_method            fapswitch 2.2
_symmetry_space_group_name_H-M    P1
_symmetry_Int_Tables_number       1
_space_group_crystal_system       triclinic
_cell_length_a                    17.194086
_cell_length_b                    18.574661
_cell_length_c                    8.425806
_cell_angle_alpha                 89.895206
_cell_angle_beta                  101.887447
_cell_angle_gamma                 90.145194
_cell_volume                      2633.26473404

loop_
_atom_site_label
_atom_site_type_symbol
_atom_site_description
_atom_site_fract_x
_atom_site_fract_y
_atom_site_fract_z
_atom_type_partial_charge
P1    P     P_3+3 0.834140 0.419320 0.003900 0.446552
P2    P     P_3+3 0.834140 0.580680 0.503900 0.453712
P3    P     P_3+3 0.334140 0.919320 0.003900 0.446538
P4    P     P_3+3 0.334140 0.080680 0.503900 0.453722
O1    O     O_2   0.841960 0.394640 0.833410 -0.370507
O2    O     O_2   0.841960 0.605360 0.333410 -0.363761
O3    O     O_2   0.341960 0.894640 0.833410 -0.370650
O4    O     O_2   0.341960 0.105360 0.333410 -0.363591
O5    O     O_3   0.907950 0.463080 0.102990 -0.401901
O6    O     O_3   0.907950 0.536920 0.602990 -0.401148
O7    O     O_3   0.407950 0.963080 0.102990 -0.401842
O8    O     O_3   0.407950 0.036920 0.602990 -0.401280
O9    O     O_3   0.972780 0.329600 0.629720 -0.396886
O10   O     O_3   0.972780 0.670400 0.129720 -0.390519
O11   O     O_3   0.472780 0.829600 0.629720 -0.396919
O12   O     O_3   0.472780 0.170400 0.129720 -0.390547
O13   O     O_2   0.835167 0.279139 0.680359 -0.364577
O14   O     O_2   0.839824 0.721898 0.190793 -0.356517
O15   O     O_2   0.335128 0.779179 0.680232 -0.364512
O16   O     O_2   0.339834 0.221893 0.190759 -0.356588
O17   O     O_3   0.751290 0.476021 0.966650 -0.582623
O18   O     O_3   0.751309 0.523665 0.467286 -0.586888
O19   O     O_3   0.251293 0.976026 0.966679 -0.582542
O20   O     O_3   0.251310 0.023666 0.467229 -0.586865
O21   O     O_3   0.938181 0.182587 0.636567 -0.507878
O22   O     O_3   0.941479 0.817384 0.133441 -0.507643
O23   O     O_3   0.438159 0.682599 0.636592 -0.507749
O24   O     O_3   0.441524 0.317399 0.133601 -0.507668
H1    H     H_    0.056143 0.210487 0.716645 0.155133
H2    H     H_    0.059187 0.787956 0.208773 0.147330
H3    H     H_    0.556142 0.710455 0.716547 0.155049
H4    H     H_    0.559213 0.287946 0.209147 0.147439
C1    C     C_3   0.043837 0.105350 0.610049 -1.090885
C2    C     C_3   0.048212 0.892219 0.097271 -1.097743
C3    C     C_3   0.543758 0.605312 0.609978 -1.090891
C4    C     C_3   0.548320 0.392210 0.097630 -1.097571
H5    H     H_    0.606826 0.603105 0.597898 0.249068
H6    H     H_    0.611295 0.392852 0.084563 0.252032
H7    H     H_    0.036790 0.078471 0.723569 0.286351
H8    H     H_    0.111203 0.892884 0.084309 0.252127
H9    H     H_    0.006089 0.077307 0.505957 0.266281
H10   H     H_    0.042461 0.920181 0.209802 0.287746
H11   H     H_    0.536709 0.578442 0.723508 0.286389
H12   H     H_    0.542632 0.420164 0.210213 0.287749
P5    P     P_3+3 0.165830 0.418670 0.685610 0.466119
P6    P     P_3+3 0.165830 0.581330 0.185610 0.470435
P7    P     P_3+3 0.665830 0.918670 0.685610 0.466248
P8    P     P_3+3 0.665830 0.081330 0.185610 0.470573
P9    P     P_3+3 0.100889 0.263781 0.108749 0.477654
P10   P     P_3+3 0.103188 0.734536 0.609355 0.506488
P11   P     P_3+3 0.600889 0.763781 0.108736 0.477526
P12   P     P_3+3 0.603181 0.234542 0.609364 0.506518
O25   O     O_2   0.157990 0.394030 0.856030 -0.362909
O26   O     O_2   0.157990 0.605970 0.356030 -0.372004
O27   O     O_2   0.657990 0.894030 0.856030 -0.362843
O28   O     O_2   0.657990 0.105970 0.356030 -0.371978
O29   O     O_3   0.027110 0.329490 0.059550 -0.337910
O30   O     O_3   0.027110 0.670510 0.559550 -0.340895
O31   O     O_3   0.527110 0.829490 0.059550 -0.337962
O32   O     O_3   0.527110 0.170510 0.559550 -0.340868
O33   O     O_2   0.155318 0.272589 0.985417 -0.389750
O34   O     O_2   0.162848 0.720957 0.499069 -0.345797
O35   O     O_2   0.655318 0.772598 0.985411 -0.389844
O36   O     O_2   0.662818 0.221000 0.499005 -0.345914
O37   O     O_3   0.244323 0.481112 0.716141 -0.603136
O38   O     O_3   0.247040 0.522267 0.220657 -0.587752
O39   O     O_3   0.744224 0.981210 0.716077 -0.602841
O40   O     O_3   0.747054 0.022285 0.220733 -0.587624
O41   O     O_3   0.055996 0.180560 0.052713 -0.491610
O42   O     O_3   0.063958 0.818210 0.540946 -0.500391
O43   O     O_3   0.556010 0.680556 0.052681 -0.491598
O44   O     O_3   0.563923 0.318225 0.541083 -0.500475
C5    C     C_3   0.038280 0.145061 0.188598 0.422895
C6    C     C_3   0.032888 0.851787 0.663388 0.409682
C7    C     C_3   0.538274 0.645060 0.188550 0.422966
C8    C     C_3   0.532848 0.351751 0.663583 0.409981
H13   H     H_    0.979402 0.162254 0.208485 0.123265
H14   H     H_    0.971080 0.833251 0.658504 0.124586
H15   H     H_    0.479436 0.662329 0.208537 0.123164
H16   H     H_    0.471044 0.333197 0.658680 0.124559
H17   H     H_    0.081409 0.154183 0.302548 0.027120
H18   H     H_    0.067944 0.842197 0.786568 0.029008
H19   H     H_    0.581460 0.654109 0.302466 0.027108
H20   H     H_    0.567905 0.342130 0.786747 0.028903
C9    C     C_3   0.039104 0.064807 0.159108 -0.980841
C10   C     C_3   0.034853 0.932251 0.637979 -1.003584
C11   C     C_3   0.538951 0.564809 0.158922 -0.980599
C12   C     C_3   0.534796 0.432225 0.638309 -1.003686
H21   H     H_    0.505119 0.536944 0.239560 0.215955
H22   H     H_    0.498452 0.458946 0.715247 0.220082
H23   H     H_    0.005254 0.036924 0.239676 0.215941
H24   H     H_    0.998534 0.959008 0.714908 0.220091
H25   H     H_    0.012469 0.052506 0.030743 0.277362
H26   H     H_    0.011467 0.945462 0.508724 0.275311
H27   H     H_    0.512217 0.552561 0.030565 0.277278
H28   H     H_    0.511430 0.445472 0.509066 0.275359
C13   C     C_3   0.269989 0.505872 0.385989 0.395090
C14   C     C_3   0.271749 0.494722 0.881080 0.366362
C15   C     C_3   0.769981 0.005868 0.386048 0.395103
C16   C     C_3   0.772070 0.994426 0.880967 0.365099
H29   H     H_    0.284715 0.555088 0.460324 0.141744
H30   H     H_    0.285724 0.444206 0.949701 0.153851
H31   H     H_    0.784684 0.055074 0.460422 0.141886
H32   H     H_    0.786281 0.943786 0.948800 0.153037
H33   H     H_    0.221360 0.475367 0.422883 0.116459
H34   H     H_    0.226396 0.526245 0.926217 0.118956
H35   H     H_    0.721354 0.975334 0.422873 0.116310
H36   H     H_    0.726869 0.025673 0.927045 0.120325
C17   C     C_3   0.345179 0.460927 0.415193 -0.827518
C18   C     C_3   0.349774 0.535450 0.905982 -0.828389
C19   C     C_3   0.845186 0.960944 0.415223 -0.827659
C20   C     C_3   0.849977 0.035317 0.905571 -0.828129
H37   H     H_    0.368189 0.456032 0.547850 0.186783
H38   H     H_    0.378697 0.531337 0.036184 0.196673
H39   H     H_    0.868186 0.956010 0.547872 0.186635
H40   H     H_    0.879058 0.031139 0.035657 0.196621
Ba1   Ba    Ba6+2 0.000000 0.447380 0.844850 1.580631
Ba2   Ba    Ba6+2 0.000000 0.552620 0.344850 1.593082
Ba3   Ba    Ba6+2 0.500000 0.947380 0.844850 1.580663
Ba4   Ba    Ba6+2 0.500000 0.052620 0.344850 1.593156
C21   C     C_3   0.770933 0.542982 0.909157 0.374036
C22   C     C_3   0.770638 0.457397 0.406728 0.364460
C23   C     C_3   0.270927 0.042973 0.909101 0.374119
C24   C     C_3   0.270698 0.957341 0.407022 0.364073
H41   H     H_    0.768708 0.538545 0.777589 0.106852
H42   H     H_    0.767060 0.462849 0.274866 0.109854
H43   H     H_    0.268626 0.038522 0.777506 0.106703
H44   H     H_    0.267324 0.962701 0.275204 0.109755
H45   H     H_    0.830158 0.563020 0.972167 0.123911
H46   H     H_    0.830343 0.437512 0.466820 0.124346
H47   H     H_    0.330182 0.062997 0.971977 0.123875
H48   H     H_    0.330330 0.937436 0.467526 0.124658
C25   C     C_3   0.709462 0.597432 0.937480 -0.918137
C26   C     C_3   0.710011 0.402046 0.436069 -0.896763
C27   C     C_3   0.209510 0.097451 0.937551 -0.917974
C28   C     C_3   0.209951 0.902071 0.436146 -0.896227
H49   H     H_    0.649544 0.572905 0.910068 0.275421
H50   H     H_    0.649833 0.425748 0.408325 0.272948
H51   H     H_    0.149578 0.072954 0.910226 0.275404
H52   H     H_    0.149772 0.925749 0.407480 0.272715
H53   H     H_    0.710049 0.645499 0.859651 0.225415
H54   H     H_    0.711147 0.353934 0.359035 0.222985
H55   H     H_    0.210097 0.145521 0.859727 0.225375
H56   H     H_    0.211334 0.853802 0.359701 0.223164
H57   H     H_    0.722183 0.614122 0.066221 0.271136
H58   H     H_    0.723027 0.385645 0.565132 0.275063
H59   H     H_    0.222290 0.114132 0.066297 0.271201
H60   H     H_    0.222624 0.885934 0.565387 0.274874
O45   O     O_3   0.092100 0.536880 0.086720 -0.360684
O46   O     O_3   0.092100 0.463120 0.586720 -0.359470
O47   O     O_3   0.592100 0.036880 0.086720 -0.360679
O48   O     O_3   0.592100 0.963120 0.586720 -0.359239
P13   P     P_3+3 0.898059 0.733988 0.076944 0.468696
P14   P     P_3+3 0.897176 0.266212 0.575062 0.473693
P15   P     P_3+3 0.398089 0.234019 0.076967 0.468646
P16   P     P_3+3 0.397170 0.766223 0.575026 0.473643
C29   C     C_3   0.016906 0.182436 0.613934 0.510358
C30   C     C_3   0.019458 0.815799 0.106324 0.526664
C31   C     C_3   0.516870 0.682411 0.613872 0.510416
C32   C     C_3   0.519532 0.315797 0.106642 0.526814
H61   H     H_    0.022979 0.208414 0.497965 -0.019747
H62   H     H_    0.023285 0.788487 0.990805 -0.018937
H63   H     H_    0.522930 0.708374 0.497877 -0.019831
H64   H     H_    0.523409 0.288477 0.991162 -0.019003
H65   H     H_    0.505986 0.577281 0.505899 0.266231
H66   H     H_    0.510938 0.420161 0.992786 0.265226
H67   H     H_    0.106910 0.103173 0.597996 0.249072
H68   H     H_    0.010841 0.920143 0.992370 0.265148
H69   H     H_    0.601188 0.544862 0.184797 0.272032
H70   H     H_    0.596986 0.452147 0.672744 0.279783
H71   H     H_    0.101363 0.044936 0.185174 0.272108
H72   H     H_    0.097046 0.952165 0.672337 0.279786
C33   C     C_R   0.143087 0.673564 0.918557 -0.445984
C34   C     C_R   0.144740 0.327326 0.416331 -0.426276
C35   C     C_R   0.643098 0.173558 0.918554 -0.445497
C36   C     C_R   0.644763 0.827336 0.416295 -0.426416
C37   C     C_R   0.862277 0.323585 0.263694 -0.487687
C38   C     C_R   0.861608 0.676025 0.765201 -0.491033
C39   C     C_R   0.362284 0.823586 0.263673 -0.487758
C40   C     C_R   0.361610 0.176048 0.765230 -0.490988
C41   C     C_R   0.790965 0.214284 0.299886 -0.167648
C42   C     C_R   0.790797 0.785372 0.800337 -0.223366
C43   C     C_R   0.290985 0.714276 0.299855 -0.167808
C44   C     C_R   0.290887 0.285470 0.800300 -0.222828
C45   C     C_R   0.847580 0.266839 0.360749 0.213396
C46   C     C_R   0.846485 0.732346 0.862790 0.196509
C47   C     C_R   0.347601 0.766830 0.360709 0.213311
C48   C     C_R   0.346531 0.232406 0.862789 0.196408
C49   C     C_R   0.816115 0.333541 0.108887 0.268036
C50   C     C_R   0.816984 0.667035 0.608430 0.286119
C51   C     C_R   0.316120 0.833539 0.108871 0.268090
C52   C     C_R   0.316984 0.167046 0.608457 0.286017
C53   C     C_R   0.756045 0.281003 0.045831 -0.066646
C54   C     C_R   0.758542 0.720652 0.543579 0.006902
C55   C     C_R   0.256052 0.780999 0.045815 -0.066328
C56   C     C_R   0.258546 0.220666 0.543612 0.006753
C57   C     C_R   0.243985 0.719656 0.142401 -0.030050
C58   C     C_R   0.245523 0.281246 0.641005 -0.026294
C59   C     C_R   0.743975 0.219661 0.142420 -0.030157
C60   C     C_R   0.745496 0.781211 0.640996 -0.026174
C61   C     C_R   0.185330 0.666118 0.077766 0.206005
C62   C     C_R   0.186803 0.334722 0.576057 0.194735
C63   C     C_R   0.685331 0.166117 0.077771 0.206099
C64   C     C_R   0.686810 0.834718 0.576037 0.194440
C65   C     C_R   0.156769 0.731315 0.822646 0.223133
C66   C     C_R   0.159001 0.270126 0.319633 0.166728
C67   C     C_R   0.656783 0.231307 0.822642 0.223222
C68   C     C_R   0.659012 0.770128 0.319601 0.166641
C69   C     C_R   0.210490 0.785748 0.887097 -0.228159
C70   C     C_R   0.214058 0.216713 0.383840 -0.221619
C71   C     C_R   0.710491 0.285748 0.887103 -0.228202
C72   C     C_R   0.714064 0.716710 0.383800 -0.221392
H73   H     H_    0.283791 0.670370 0.378617 0.181956
H74   H     H_    0.283288 0.329081 0.878699 0.168604
H75   H     H_    0.783775 0.170375 0.378643 0.181917
H76   H     H_    0.783089 0.828877 0.878841 0.168683
H77   H     H_    0.716254 0.331144 0.810879 0.177234
H78   H     H_    0.720055 0.671605 0.307589 0.171812
H79   H     H_    0.216259 0.831141 0.810873 0.177156
H80   H     H_    0.220048 0.171604 0.307637 0.171881
H81   H     H_    0.100599 0.632626 0.866314 0.168999
H82   H     H_    0.101273 0.367504 0.364932 0.171960
H83   H     H_    0.600611 0.132619 0.866308 0.169025
H84   H     H_    0.601310 0.867523 0.364889 0.171948
H85   H     H_    0.907095 0.362987 0.313640 0.161687
H86   H     H_    0.905805 0.636324 0.815755 0.160191
H87   H     H_    0.407085 0.863000 0.313637 0.161683
H88   H     H_    0.405790 0.136335 0.815799 0.160180
C73   C     C_2   0.328733 0.387949 0.342974 1.194158
O49   O     O_2   0.359791 0.335038 0.415300 -0.618051
O50   O     O_R   0.276917 0.380991 0.193388 -0.785051
H89   H     H_    0.268695 0.329682 0.156956 0.349672
C74   C     C_2   0.338080 0.613030 0.862055 1.211847
O51   O     O_2   0.298860 0.630898 0.730063 -0.593152
O52   O     O_R   0.374042 0.664506 0.973262 -0.819561
H90   H     H_    0.370298 0.714982 0.928519 0.359718
C75   C     C_2   0.828763 0.887989 0.342875 1.194432
O53   O     O_2   0.859695 0.835053 0.415267 -0.618253
O54   O     O_R   0.777102 0.881080 0.193097 -0.785003
H91   H     H_    0.768745 0.829781 0.156749 0.349600
C76   C     C_2   0.838063 0.112908 0.861980 1.212295
O55   O     O_2   0.798734 0.130815 0.730125 -0.593212
O56   O     O_R   0.873984 0.164357 0.973295 -0.819655
H92   H     H_    0.870135 0.214853 0.928680 0.359572
H93   H     H_    0.390324 0.488254 0.359034 0.186911
H94   H     H_    0.389474 0.510486 0.833092 0.186555
H95   H     H_    0.890328 0.988310 0.359126 0.187005
H96   H     H_    0.889602 0.010519 0.832325 0.186401

loop_
_geom_bond_atom_site_label_1
_geom_bond_atom_site_label_2
_geom_bond_distance
_ccdc_geom_bond_type
C43   H73   1.073367 S    
C15   H31   1.108007 S    
C12   H28   1.107754 S    
P1    O17   1.749068 S    
C14   C18   1.515125 S    
O16   P15   1.538507 D    
C29   H61   1.112923 S    
P12   C67   1.843886 S    
P4    C52   1.884485 S    
P3    O19   1.749074 S    
O54   H91   1.002301 S    
C34   H82   1.082291 S    
C35   C67   1.390309 A    
C25   H49   1.105545 S    
O44   C8    1.403526 S    
C33   H81   1.082402 S    
C8    H20   1.101989 S    
C9    H23   1.108063 S    
C37   C45   1.387168 A    
P8    Ba4   3.432240 S    
C10   H24   1.107533 S    
O27   Ba3   2.877167 S    
C27   H51   1.105539 S    
P8    C63   1.880400 S    
P6    Ba2   3.432240 S    
C19   C75   1.489251 S    
P1    C49   1.876843 S    
O10   P13   1.736034 S    
C10   H72   1.111317 S    
C32   H64   1.112394 S    
O38   C13   1.400589 S    
P7    O27   1.538360 D    
C3    H5    1.110706 S    
O37   C14   1.395835 S    
C55   C69   1.406504 A    
P3    O3    1.540813 D    
P15   C48   1.839675 S    
O12   Ba4   2.816388 S    
P4    O20   1.748588 S    
O25   Ba1   2.877167 S    
O9    Ba1   2.819694 S    
C53   C71   1.406523 A    
C39   C47   1.387124 A    
P13   C46   1.839587 S    
O13   P14   1.540560 D    
O23   C31   1.405357 S    
O56   H92   1.007089 S    
C11   H69   1.111537 S    
O20   C24   1.400094 S    
P9    O29   1.749318 S    
P7    O48   1.597088 S    
C24   H48   1.110757 S    
C33   C61   1.394500 A    
C76   O55   1.221676 D    
C42   C46   1.399685 A    
C5    H17   1.098679 S    
P4    O4    1.539047 D    
Ba2   O46   2.845349 S    
O30   Ba2   2.819012 S    
C36   C64   1.397265 A    
C22   C26   1.518099 S    
C40   C48   1.389649 A    
P12   O32   1.751950 S    
C21   H41   1.104552 S    
P5    O37   1.755842 S    
C9    H25   1.108176 S    
C1    H7    1.106585 S    
P6    C61   1.880431 S    
C54   C60   1.438700 A    
O11   Ba3   2.819694 S    
C2    H10   1.104190 S    
O10   Ba2   2.816388 S    
C37   C49   1.392451 A    
C11   H27   1.108275 S    
P2    O18   1.748599 S    
O24   P15   1.741878 S    
O52   H90   1.007131 S    
C57   C61   1.439882 A    
Ba1   O46   2.955989 S    
O23   P16   1.740832 S    
C65   C69   1.400351 A    
P4    O8    1.592040 S    
C10   H26   1.107744 S    
C74   O51   1.221704 D    
C18   H38   1.109865 S    
C18   C74   1.490905 S    
C28   H52   1.105167 S    
C24   H44   1.104515 S    
C56   C70   1.406640 A    
Ba1   O45   2.845015 S    
C18   H94   1.110627 S    
P7    Ba3   3.435246 S    
C17   H93   1.110194 S    
P9    O41   1.747780 S    
C75   O53   1.220059 D    
C17   C73   1.489269 S    
C59   C63   1.439873 A    
O5    Ba2   2.845049 S    
O28   Ba4   2.872538 S    
P2    O2    1.539047 D    
P11   O43   1.747779 S    
C6    H18   1.101998 S    
C2    H68   1.108685 S    
O7    Ba4   2.845049 S    
P7    O39   1.755803 S    
C1    C29   1.508452 S    
O18   C22   1.400061 S    
C50   C54   1.441205 A    
C3    C31   1.508460 S    
P11   O31   1.749319 S    
Ba3   O47   2.845015 S    
C71   H77   1.075702 S    
P14   C45   1.831307 S    
C16   H36   1.104109 S    
C12   H70   1.111342 S    
C24   C28   1.518011 S    
P10   O30   1.751947 S    
O3    Ba3   2.869132 S    
P1    O5    1.590314 S    
C56   C58   1.438776 A    
P12   O36   1.540896 D    
C70   H80   1.074496 S    
C41   C45   1.398156 A    
P11   C68   1.854184 S    
P5    C62   1.886482 S    
H1    C29   1.111270 S    
C16   H32   1.101269 S    
C14   H30   1.102001 S    
C67   C71   1.400358 A    
C54   C72   1.406618 A    
P5    O25   1.538360 D    
C39   H87   1.082243 S    
C6    C10   1.510745 S    
C44   C48   1.399803 A    
O1    Ba1   2.869132 S    
C76   O56   1.391412 S    
C69   H79   1.075673 S    
C22   H42   1.104494 S    
Ba2   O45   2.957570 S    
P2    Ba2   3.432929 S    
O42   C6    1.403494 S    
C73   O49   1.220182 D    
P12   O44   1.744935 S    
C43   C47   1.398167 A    
C60   C64   1.442604 A    
C26   H54   1.108033 S    
O8    Ba3   2.845380 S    
C13   C17   1.517428 S    
O15   P16   1.540564 D    
C66   C70   1.401775 A    
C13   H29   1.108011 S    
C44   H74   1.071287 S    
C34   C62   1.397264 A    
H2    C30   1.111966 S    
C68   C72   1.401768 A    
C15   C19   1.517404 S    
P6    O26   1.540126 D    
O12   P15   1.736053 S    
C4    H66   1.108675 S    
C42   C60   1.408699 A    
C41   H75   1.073379 S    
C43   C57   1.407607 A    
P8    O40   1.754175 S    
Ba3   Ba4   4.641083 S    
O41   C5    1.406540 S    
C74   O52   1.391455 S    
C5    C9    1.512271 S    
O11   P16   1.742323 S    
C28   H60   1.106593 S    
O14   P13   1.538508 D    
P3    Ba3   3.429989 S    
O39   C16   1.395116 S    
C58   C62   1.442545 A    
C2    C30   1.508883 S    
C7    C11   1.512324 S    
C20   C76   1.490823 S    
C12   H22   1.107581 S    
C16   C20   1.514997 S    
C4    C32   1.508920 S    
C44   C58   1.408822 A    
C75   O54   1.391511 S    
O24   C32   1.406145 S    
C40   C52   1.394329 A    
P10   O34   1.540871 D    
C28   H56   1.108065 S    
P1    O1    1.540813 D    
C4    H12   1.104221 S    
C25   H57   1.106237 S    
C41   C59   1.407623 A    
C52   C56   1.441186 A    
C23   H43   1.104565 S    
C20   H40   1.109747 S    
C3    H11   1.106591 S    
O4    Ba4   2.873710 S    
O29   Ba1   2.815705 S    
P16   C47   1.831208 S    
P5    Ba1   3.435246 S    
Ba3   O48   2.955989 S    
P8    O28   1.540126 D    
P11   O35   1.543251 D    
C8    C12   1.510754 S    
P5    O46   1.597088 S    
Ba4   O47   2.957570 S    
O31   Ba3   2.815705 S    
C36   H84   1.082292 S    
C23   H47   1.110612 S    
O21   P14   1.740843 S    
C25   H53   1.108064 S    
C13   H33   1.104920 S    
Ba4   O48   2.845349 S    
P4    Ba4   3.432929 S    
P2    C50   1.884190 S    
C21   H45   1.110614 S    
C26   H50   1.105160 S    
O19   C23   1.399571 S    
C8    H16   1.108967 S    
C42   H76   1.070855 S    
P6    O38   1.754203 S    
C17   H37   1.109850 S    
C33   C65   1.390317 A    
C15   H35   1.104904 S    
C27   H59   1.106231 S    
C14   H34   1.104941 S    
C20   H96   1.110461 S    
C26   H58   1.106495 S    
C1    H9    1.107806 S    
C36   C68   1.392717 A    
O26   Ba2   2.872538 S    
P10   O42   1.744913 S    
O40   C15   1.400514 S    
C35   C63   1.394498 A    
O32   Ba4   2.819012 S    
C73   O50   1.391555 S    
O6    Ba1   2.845380 S    
C53   C59   1.438279 A    
Ba1   Ba2   4.641083 S    
O43   C7    1.406530 S    
P9    O33   1.543291 D    
C7    H19   1.098744 S    
C72   H78   1.074494 S    
C38   C50   1.394286 A    
C4    H6    1.110740 S    
C27   H55   1.108076 S    
C3    H65   1.107812 S    
C1    H67   1.110704 S    
C40   H88   1.082151 S    
P7    C64   1.886665 S    
O22   C30   1.406127 S    
C31   H63   1.112935 S    
O17   C21   1.399558 S    
P3    C51   1.876786 S    
C51   C55   1.439471 A    
O9    P14   1.742358 S    
C38   H86   1.082154 S    
H4    C32   1.111961 S    
P3    O7    1.590314 S    
C30   H62   1.112403 S    
O21   C29   1.405345 S    
C37   H85   1.082238 S    
C38   C46   1.389522 A    
P10   C65   1.843877 S    
C49   C53   1.439464 A    
C9    H71   1.111417 S    
C39   C51   1.392417 A    
P9    C66   1.854253 S    
C5    H13   1.107554 S    
C19   H95   1.110190 S    
C6    H14   1.108967 S    
P8    O47   1.595342 S    
C23   C27   1.518940 S    
O50   H89   1.002499 S    
C34   C66   1.392700 A    
C11   H21   1.108123 S    
C35   H83   1.082402 S    
C2    H8    1.110756 S    
O22   P13   1.741836 S    
C19   H39   1.109818 S    
C21   C25   1.518945 S    
P6    O45   1.595342 S    
P1    Ba1   3.429989 S    
C7    H15   1.107591 S    
C22   H46   1.110738 S    
H3    C31   1.111279 S    
O2    Ba2   2.873710 S    
C55   C57   1.438267 A    
P2    O6    1.592040 S    
