data_mof_unit_51777.cif
_audit_creation_date              2012-10-26T19:04:43-0400
_audit_creation_method            fapswitch 2.2
_symmetry_space_group_name_H-M    P1
_symmetry_Int_Tables_number       1
_space_group_crystal_system       triclinic
_cell_length_a                    9.676729
_cell_length_b                    10.798558
_cell_length_c                    13.477083
_cell_angle_alpha                 92.229357
_cell_angle_beta                  72.150062
_cell_angle_gamma                 89.312354
_cell_volume                      1339.05443581

loop_
_atom_site_label
_atom_site_type_symbol
_atom_type_description
_atom_site_fract_x
_atom_site_fract_y
_atom_site_fract_z
_atom_type_partial_charge
Br1   Br    Br    0.188897 0.228822 0.692357 -0.390934
Br2   Br    Br    0.802338 0.257258 0.311784 -0.477486
Br3   Br    Br    0.057830 0.292219 0.099527 -0.471794
Br4   Br    Br    0.834756 0.252899 0.837947 -0.423001
Br5   Br    Br    0.556203 0.251841 0.748141 -0.423877
C1    C     C_R   0.502151 0.737018 0.492006 0.536835
C2    C     C_R   0.368309 0.511359 0.817604 0.053186
C3    C     C_R   0.263947 0.898952 0.445490 0.012031
C4    C     C_R   0.420073 0.500749 0.700766 0.590932
C5    C     C_R   0.130551 0.964745 0.474238 -0.123602
C6    C     C_R   0.107823 0.071192 0.540284 0.001862
C7    C     C_R   0.223689 0.116928 0.571666 0.210024
C8    C     C_R   0.363579 0.063418 0.526985 0.008713
C9    C     C_R   0.376805 0.941582 0.484403 0.012951
C10   C     C_R   0.503242 0.871776 0.482776 -0.001779
C11   C     C_R   0.625808 0.934065 0.491115 -0.141441
C12   C     C_R   0.442740 0.539441 0.976052 0.009201
C13   C     C_R   0.621932 0.061659 0.503416 -0.099503
C14   C     C_R   0.492006 0.128264 0.519199 0.046280
C15   C     C_R   0.946330 0.373145 0.323613 0.166115
C16   C     C_R   0.496685 0.263074 0.508633 0.625136
C17   C     C_R   0.069961 0.341931 0.236822 0.175312
C18   C     C_R   0.202395 0.322852 0.253668 -0.057728
C19   C     C_R   0.215013 0.356718 0.349937 -0.108056
C20   C     C_R   0.109432 0.430633 0.424028 0.095858
C21   C     C_R   0.962780 0.433834 0.418588 0.108011
C22   C     C_R   0.894182 0.565095 0.572983 0.006570
C23   C     C_R   0.463510 0.480551 0.875750 -0.014675
C24   C     C_R   0.041798 0.567423 0.571198 0.003312
C25   C     C_R   0.577819 0.505642 0.300532 0.554277
C26   C     C_R   0.792710 0.453603 0.019249 -0.075255
C27   C     C_R   0.620763 0.510255 0.186320 -0.001836
C28   C     C_R   0.233019 0.571981 0.871395 0.000937
C29   C     C_R   0.210891 0.623787 0.971358 -0.071034
C30   C     C_R   0.320224 0.621212 0.018272 0.013589
C31   C     C_3   0.290061 0.804198 0.356477 -0.362373
C32   C     C_3   0.964994 0.140298 0.566171 -0.336855
C33   C     C_3   0.328952 0.258685 0.171996 -0.340894
C34   C     C_R   0.546059 0.514005 0.028828 -0.013855
C35   C     C_3   0.115552 0.596175 0.822222 -0.369327
C36   C     C_3   0.306231 0.718584 0.104205 -0.410812
C37   C     C_R   0.679754 0.454568 0.973832 0.009166
C38   C     C_R   0.689382 0.383254 0.882848 0.166777
C39   C     C_R   0.576097 0.389253 0.838423 0.184447
C40   C     C_R   0.513920 0.529230 0.137545 -0.144833
C41   C     C_R   0.763785 0.486612 0.124768 -0.092331
Cu1   Cu    Cu3+1 0.359340 0.500010 0.500010 0.950430
Cu2   Cu    Cu3+1 0.640660 0.499990 0.499990 1.005697
H1    H     H_    0.849855 0.483216 0.159969 0.177067
H2    H     H_    0.725672 0.884683 0.486994 0.136790
H3    H     H_    0.261518 0.847634 0.291928 0.113518
H4    H     H_    0.405643 0.773466 0.324871 0.140225
H5    H     H_    0.220173 0.723141 0.380944 0.159252
H6    H     H_    0.945216 0.163209 0.492120 0.128574
H7    H     H_    0.876747 0.082071 0.612621 0.177633
H8    H     H_    0.963780 0.229715 0.609447 0.219311
H9    H     H_    0.356953 0.309614 0.098850 0.190789
H10   H     H_    0.427766 0.253667 0.197363 0.138671
H11   H     H_    0.299821 0.162556 0.155682 0.183036
H12   H     H_    0.044920 0.934327 0.443250 0.119924
H13   H     H_    0.085904 0.508451 0.789025 0.201189
H14   H     H_    0.014299 0.635121 0.879565 0.113674
H15   H     H_    0.154114 0.665535 0.761962 0.143673
H16   H     H_    0.229518 0.686921 0.177737 0.119338
H17   H     H_    0.412705 0.742224 0.113798 0.143643
H18   H     H_    0.261747 0.806815 0.085160 0.152889
H19   H     H_    0.720366 0.108172 0.500985 0.164353
H20   H     H_    0.813685 0.619390 0.632951 0.121986
H21   H     H_    0.313001 0.327036 0.361348 0.203800
H22   H     H_    0.070233 0.625743 0.628043 0.108571
H23   H     H_    0.901344 0.422011 0.974943 0.204545
H24   H     H_    0.403065 0.545554 0.185563 0.145803
H25   H     H_    0.112952 0.678966 0.008816 0.126684
N1    N     N_R   0.852480 0.498790 0.499000 -0.233038
N2    N     N_R   0.148360 0.498710 0.498970 -0.239580
O1    O     O_R   0.381190 0.680360 0.500010 -0.508119
O2    O     O_R   0.618760 0.680340 0.500000 -0.517046
O3    O     O_R   0.323240 0.499990 0.650990 -0.479213
O4    O     O_R   0.560820 0.499960 0.650980 -0.487039
O5    O     O_R   0.381240 0.319660 0.500000 -0.507252
O6    O     O_R   0.618810 0.319640 0.499990 -0.440912
O7    O     O_R   0.439180 0.500040 0.349020 -0.544131
O8    O     O_R   0.676760 0.500010 0.349010 -0.472970

loop_
_geom_bond_atom_site_label_1
_geom_bond_atom_site_label_2
_ccdc_geom_bond_type
C26   C37   A    
C22   C24   A    
C27   C40   A    
C41   H1    S    
C35   H15   S    
Cu2   O4    S    
C14   C16   S    
C11   H2    S    
Cu1   O1    S    
C13   C14   A    
C12   C34   A    
C10   C11   A    
C35   H14   S    
Cu2   O6    S    
C29   C30   A    
C3    C31   S    
Cu1   O7    S    
C25   O8    A    
C6    C32   S    
C22   H20   S    
C1    C10   S    
C33   H10   S    
C32   H8    S    
C26   C41   A    
C18   C19   A    
C31   H5    S    
C22   N1    A    
C31   H4    S    
C34   C40   A    
C26   H23   S    
C8    C9    A    
C40   H24   S    
C2    C28   A    
Br1   C7    S    
Cu1   O5    S    
C4    O4    A    
C19   H21   S    
C34   C37   A    
C28   C35   S    
C8    C14   A    
Br2   C15   S    
Cu2   N1    S    
C19   C20   A    
C1    O2    A    
C36   H17   S    
C13   H19   S    
C23   C39   A    
C2    C23   A    
C20   N2    A    
Cu2   O2    S    
C25   O7    A    
C5    H12   S    
C38   C39   A    
C33   H9    S    
Cu1   Cu2   S    
C28   C29   A    
C31   H3    S    
C32   H6    S    
C11   C13   A    
Br5   C39   S    
C15   C17   A    
C37   C38   A    
C24   H22   S    
C2    C4    S    
C3    C9    A    
C17   C18   A    
C12   C23   A    
C27   C41   A    
C16   O6    A    
C6    C7    A    
C1    O1    A    
C36   H18   S    
C24   N2    A    
Br4   C38   S    
C18   C33   S    
Cu1   O3    S    
Cu2   O8    S    
C20   C21   A    
Cu1   N2    S    
C25   C27   S    
C15   C21   A    
C16   O5    A    
C21   N1    A    
C4    O3    A    
C30   C36   S    
C5    C6    A    
C35   H13   S    
C29   H25   S    
C33   H11   S    
C32   H7    S    
C7    C8    A    
C3    C5    A    
C9    C10   A    
Br3   C17   S    
C12   C30   A    
C36   H16   S    
