data_mof_unit_52609.cif
_audit_creation_date              2012-12-10T17:09:15-0500
_audit_creation_method            fapswitch 2.2
_symmetry_space_group_name_H-M    P1
_symmetry_Int_Tables_number       1
_space_group_crystal_system       triclinic
_cell_length_a                    18.023868
_cell_length_b                    18.560978
_cell_length_c                    11.79953
_cell_angle_alpha                 90.001164
_cell_angle_beta                  77.260031
_cell_angle_gamma                 90.000117
_cell_volume                      3850.24024591

loop_
_atom_site_label
_atom_site_type_symbol
_atom_type_description
_atom_site_fract_x
_atom_site_fract_y
_atom_site_fract_z
_atom_type_partial_charge
C1    C     C_R   0.398664 0.099046 0.520944 0.805945
C2    C     C_R   0.601333 0.900950 0.479055 0.805971
C3    C     C_R   0.601334 0.099048 0.479057 0.805963
C4    C     C_R   0.398665 0.900953 0.520943 0.805960
C5    C     C_R   0.898668 0.599050 0.520945 0.805970
C6    C     C_R   0.101336 0.400954 0.479056 0.805947
C7    C     C_R   0.101334 0.599048 0.479057 0.805958
C8    C     C_R   0.898666 0.400953 0.520943 0.805964
C9    C     C_R   0.536498 0.000003 0.963965 0.025621
C10   C     C_R   0.463501 0.999993 0.036036 0.025619
C11   C     C_R   0.036499 0.500003 0.963964 0.025619
C12   C     C_R   0.963502 0.499993 0.036035 0.025621
C13   C     C_R   0.409805 0.999984 0.862210 0.065118
C14   C     C_R   0.590195 0.000003 0.137790 0.065099
C15   C     C_R   0.909805 0.499991 0.862210 0.065099
C16   C     C_R   0.090195 0.500010 0.137790 0.065118
C17   C     C_R   0.400012 0.999983 0.983254 -0.338757
C18   C     C_R   0.599989 0.000007 0.016747 -0.338759
C19   C     C_R   0.900012 0.499986 0.983253 -0.338761
C20   C     C_R   0.099989 0.500010 0.016746 -0.338754
C21   C     C_R   0.544095 0.000013 0.840933 0.132055
C22   C     C_R   0.455905 0.999997 0.159068 0.132060
C23   C     C_R   0.044095 0.500004 0.840932 0.132058
C24   C     C_R   0.955906 0.499989 0.159067 0.132053
C25   C     C_R   0.660975 0.152622 0.466989 -0.029467
C26   C     C_R   0.339023 0.847379 0.533009 -0.029491
C27   C     C_R   0.339019 0.152617 0.533009 -0.029473
C28   C     C_R   0.660968 0.847368 0.466983 -0.029545
C29   C     C_R   0.160975 0.652622 0.466989 -0.029484
C30   C     C_R   0.839022 0.347380 0.533010 -0.029481
C31   C     C_R   0.839035 0.652635 0.533018 -0.029533
C32   C     C_R   0.160982 0.347384 0.466991 -0.029485
C33   C     C_R   0.219123 0.799437 0.639424 -0.226781
C34   C     C_R   0.780885 0.200553 0.360588 -0.226777
C35   C     C_R   0.780813 0.799356 0.360494 -0.226805
C36   C     C_R   0.219092 0.200529 0.639384 -0.226757
C37   C     C_R   0.719110 0.299452 0.639408 -0.226797
C38   C     C_R   0.280874 0.700567 0.360571 -0.226772
C39   C     C_R   0.280910 0.299473 0.360617 -0.226763
C40   C     C_R   0.719187 0.700644 0.639507 -0.226779
C41   C     C_R   0.278957 0.847694 0.631419 -0.195181
C42   C     C_R   0.721050 0.152298 0.368591 -0.195169
C43   C     C_R   0.720989 0.847624 0.368512 -0.195192
C44   C     C_R   0.278927 0.152275 0.631386 -0.195170
C45   C     C_R   0.778947 0.347706 0.631406 -0.195167
C46   C     C_R   0.221041 0.652309 0.368578 -0.195180
C47   C     C_R   0.221072 0.347724 0.368614 -0.195173
C48   C     C_R   0.779012 0.652377 0.631486 -0.195186
C49   C     C_R   0.340562 0.797454 0.444112 -0.284447
C50   C     C_R   0.659428 0.202558 0.555875 -0.284419
C51   C     C_R   0.659463 0.797484 0.555925 -0.284436
C52   C     C_R   0.340579 0.202565 0.444137 -0.284464
C53   C     C_R   0.840569 0.297445 0.444124 -0.284449
C54   C     C_R   0.159435 0.702549 0.555885 -0.284435
C55   C     C_R   0.159425 0.297439 0.555864 -0.284467
C56   C     C_R   0.840539 0.702518 0.444078 -0.284411
C57   C     C_R   0.280685 0.749397 0.450858 0.165479
C58   C     C_R   0.719306 0.250614 0.549131 0.165450
C59   C     C_R   0.719338 0.749426 0.549172 0.165508
C60   C     C_R   0.280701 0.250620 0.450878 0.165462
C61   C     C_R   0.780690 0.249391 0.450866 0.165468
C62   C     C_R   0.219311 0.750607 0.549138 0.165470
C63   C     C_R   0.219303 0.249384 0.549124 0.165471
C64   C     C_R   0.780667 0.750580 0.450833 0.165487
Cu1   Cu    Cu3+1 0.507800 0.000000 0.383250 0.939259
Cu2   Cu    Cu3+1 0.492200 0.000000 0.616750 0.939267
Cu3   Cu    Cu3+1 0.007800 0.500000 0.383250 0.939267
Cu4   Cu    Cu3+1 0.992200 0.500000 0.616750 0.939260
H1    H     H_    0.639538 0.000005 0.175969 0.121371
H2    H     H_    0.360462 0.999974 0.824031 0.121373
H3    H     H_    0.139538 0.500017 0.175969 0.121372
H4    H     H_    0.860462 0.499987 0.824031 0.121372
H5    H     H_    0.611927 0.203556 0.630490 0.140234
H6    H     H_    0.388057 0.796462 0.369490 0.140238
H7    H     H_    0.388090 0.203572 0.369536 0.140232
H8    H     H_    0.611989 0.796519 0.630586 0.140244
H9    H     H_    0.111941 0.703539 0.630510 0.140238
H10   H     H_    0.888071 0.296445 0.369513 0.140232
H11   H     H_    0.888005 0.703474 0.369413 0.140255
H12   H     H_    0.111912 0.296430 0.630464 0.140228
H13   H     H_    0.722541 0.113626 0.299340 0.143834
H14   H     H_    0.277471 0.886358 0.700678 0.143834
H15   H     H_    0.277423 0.113590 0.700621 0.143816
H16   H     H_    0.722448 0.886252 0.299210 0.143879
H17   H     H_    0.222527 0.613645 0.299319 0.143834
H18   H     H_    0.777456 0.386378 0.700656 0.143834
H19   H     H_    0.777551 0.613747 0.700785 0.143877
H20   H     H_    0.222573 0.386407 0.299378 0.143819
H21   H     H_    0.672614 0.300665 0.715350 0.134751
H22   H     H_    0.327362 0.699365 0.284618 0.134747
H23   H     H_    0.327420 0.300699 0.284692 0.134749
H24   H     H_    0.672732 0.699485 0.715507 0.134744
H25   H     H_    0.172634 0.800640 0.715377 0.134749
H26   H     H_    0.827381 0.199341 0.284645 0.134749
H27   H     H_    0.827264 0.800511 0.284489 0.134750
H28   H     H_    0.172583 0.199304 0.715310 0.134749
H29   H     H_    0.342281 0.999973 0.034314 0.155421
H30   H     H_    0.657720 0.000010 0.965688 0.155420
H31   H     H_    0.842281 0.499978 0.034313 0.155422
H32   H     H_    0.157720 0.500017 0.965686 0.155420
N1    N     N_R   0.519530 1.000000 0.207810 -0.195004
N2    N     N_R   0.480470 0.000000 0.792190 -0.195006
N3    N     N_R   0.019530 0.500000 0.207810 -0.195007
N4    N     N_R   0.980470 0.500000 0.792190 -0.195004
O1    O     O_R   0.430030 0.075530 0.417420 -0.578473
O2    O     O_R   0.569970 0.924470 0.582580 -0.578491
O3    O     O_R   0.569970 0.075530 0.582580 -0.578452
O4    O     O_R   0.430030 0.924470 0.417420 -0.578476
O5    O     O_R   0.930030 0.575530 0.417420 -0.578477
O6    O     O_R   0.069970 0.424470 0.582580 -0.578478
O7    O     O_R   0.069970 0.575530 0.582580 -0.578470
O8    O     O_R   0.930030 0.424470 0.417420 -0.578468
O9    O     O_R   0.416860 0.075510 0.614610 -0.595292
O10   O     O_R   0.583140 0.924490 0.385390 -0.595310
O11   O     O_R   0.583140 0.075510 0.385390 -0.595305
O12   O     O_R   0.416860 0.924490 0.614610 -0.595307
O13   O     O_R   0.916860 0.575510 0.614610 -0.595313
O14   O     O_R   0.083140 0.424490 0.385390 -0.595291
O15   O     O_R   0.083140 0.575510 0.385390 -0.595307
O16   O     O_R   0.916860 0.424490 0.614610 -0.595302
C65   C     C_R   0.377911 0.000004 0.232411 0.161126
C66   C     C_R   0.337892 0.934849 0.256160 -0.134937
C67   C     C_R   0.261295 0.934865 0.314016 -0.144905
C68   C     C_R   0.223304 0.000018 0.344305 -0.132193
C69   C     C_R   0.261307 0.065165 0.314006 -0.144894
C70   C     C_R   0.337904 0.065168 0.256152 -0.134907
H33   H     H_    0.366073 0.884238 0.229006 0.120815
H34   H     H_    0.231136 0.884422 0.334020 0.146617
H35   H     H_    0.163982 0.000024 0.388796 0.129603
H36   H     H_    0.231157 0.115613 0.334004 0.146619
H37   H     H_    0.366096 0.115774 0.229000 0.120828
C71   C     C_R   0.622089 0.000057 0.767594 0.161149
C72   C     C_R   0.662132 0.934920 0.743793 -0.134909
C73   C     C_R   0.738727 0.934970 0.685933 -0.144967
C74   C     C_R   0.776695 0.000139 0.655710 -0.132191
C75   C     C_R   0.738671 0.065266 0.686074 -0.144853
C76   C     C_R   0.662072 0.065235 0.743916 -0.134960
H38   H     H_    0.633973 0.884297 0.770911 0.120810
H39   H     H_    0.768903 0.884542 0.665879 0.146617
H40   H     H_    0.836017 0.000172 0.611222 0.129603
H41   H     H_    0.768804 0.115725 0.666133 0.146619
H42   H     H_    0.633863 0.115826 0.771116 0.120788
C77   C     C_R   0.877911 0.499973 0.232408 0.161158
C78   C     C_R   0.837912 0.434806 0.256136 -0.134930
C79   C     C_R   0.761312 0.434800 0.313977 -0.144888
C80   C     C_R   0.723300 0.499942 0.344275 -0.132182
C81   C     C_R   0.761284 0.565099 0.313995 -0.144930
C82   C     C_R   0.837883 0.565124 0.256151 -0.134944
H43   H     H_    0.866110 0.384203 0.228976 0.120808
H44   H     H_    0.731167 0.384348 0.333963 0.146620
H45   H     H_    0.663977 0.499930 0.388756 0.129600
H46   H     H_    0.731117 0.615538 0.333993 0.146608
H47   H     H_    0.866057 0.615736 0.228990 0.120782
C83   C     C_R   0.122088 0.500011 0.767589 0.161132
C84   C     C_R   0.162105 0.434854 0.743826 -0.134897
C85   C     C_R   0.238702 0.434871 0.685973 -0.144914
C86   C     C_R   0.276695 0.500024 0.655702 -0.132194
C87   C     C_R   0.238694 0.565170 0.686013 -0.144896
C88   C     C_R   0.162097 0.565173 0.743864 -0.134948
H48   H     H_    0.133922 0.384242 0.770962 0.120839
H49   H     H_    0.268859 0.384428 0.665958 0.146619
H50   H     H_    0.336016 0.500029 0.611213 0.129604
H51   H     H_    0.268846 0.615617 0.666031 0.146618
H52   H     H_    0.133908 0.615778 0.771032 0.120807

loop_
_geom_bond_atom_site_label_1
_geom_bond_atom_site_label_2
_ccdc_geom_bond_type
C6    C32   S    
C76   H42   S    
C86   C87   A    
C7    C29   S    
Cu2   O9    S    
C6    O6    A    
Cu1   O10   S    
Cu2   N2    S    
C30   C45   A    
C81   C82   A    
C34   C42   A    
Cu1   N1    S    
Cu2   O3    S    
C52   H7    S    
C79   C80   A    
Cu3   N3    S    
C67   C68   A    
C10   C22   A    
C15   C19   A    
C15   H4    S    
C4    O4    A    
C59   C64   A    
C75   H41   S    
C56   H11   S    
Cu2   O12   S    
C60   C63   A    
C85   C86   A    
C8    O8    A    
C28   C51   A    
C13   H2    S    
C39   C60   A    
C10   C17   A    
C77   C78   A    
C49   C57   A    
C39   H23   S    
C66   H33   S    
C14   C18   A    
C25   C50   A    
C52   C60   A    
C53   C61   A    
C27   C44   A    
Cu3   O5    S    
C71   C72   A    
C55   C63   A    
C56   C64   A    
C35   C64   A    
C31   C56   A    
C36   C63   A    
C35   C43   A    
C9    C10   A    
Cu1   O4    S    
C37   C58   A    
C54   H9    S    
C44   H15   S    
C58   C61   A    
C69   C70   A    
C72   H38   S    
C40   C59   A    
C16   H3    S    
C43   H16   S    
Cu1   O11   S    
C74   H40   S    
C42   H13   S    
C1    O9    A    
Cu2   O2    S    
C69   H36   S    
Cu1   O1    S    
C77   C82   A    
C30   C53   A    
C11   C20   A    
Cu3   Cu4   S    
C50   C58   A    
C7    O15   A    
C74   C75   A    
C51   H8    S    
C26   C49   A    
C73   H39   S    
C19   H31   S    
C33   C62   A    
C14   N1    A    
C54   C62   A    
C57   C62   A    
C71   C76   A    
C2    O2    A    
C34   C61   A    
C5    O13   A    
Cu4   O7    S    
C21   C71   S    
C78   H43   S    
Cu4   O13   S    
C38   C57   A    
C36   H28   S    
C16   N3    A    
C23   N4    A    
C20   H32   S    
C3    C25   S    
C16   C20   A    
C65   C66   A    
C48   H19   S    
Cu4   O6    S    
C40   H24   S    
C22   N1    A    
C83   C84   A    
C87   H51   S    
C21   N2    A    
C34   H26   S    
C85   H49   S    
C31   C48   A    
C87   C88   A    
C15   N4    A    
C32   C47   A    
C36   C44   A    
C51   C59   A    
C82   H47   S    
C37   C45   A    
C27   C52   A    
C8    O16   A    
C22   C65   S    
C39   C47   A    
C80   C81   A    
C40   C48   A    
C12   C24   A    
C32   C55   A    
C84   H48   S    
C88   H52   S    
C4    O12   A    
C79   H44   S    
C78   C79   A    
C33   H25   S    
C25   C42   A    
C4    C26   S    
C11   C12   A    
C9    C18   A    
C73   C74   A    
C35   H27   S    
C18   H30   S    
C38   H22   S    
C28   C43   A    
C13   C17   A    
C29   C46   A    
C24   N3    A    
C8    C30   S    
C47   H20   S    
C46   H17   S    
Cu4   N4    S    
C53   H10   S    
C13   N2    A    
C33   C41   A    
C65   C70   A    
C3    O11   A    
Cu4   O16   S    
C55   H12   S    
C2    O10   A    
C9    C21   A    
C67   H34   S    
C72   C73   A    
C5    O5    A    
C70   H37   S    
C41   H14   S    
C50   H5    S    
C12   C19   A    
C11   C23   A    
C14   H1    S    
C37   H21   S    
C7    O7    A    
C68   H35   S    
C81   H46   S    
Cu3   O14   S    
C38   C46   A    
C80   H45   S    
Cu3   O8    S    
C83   C88   A    
C45   H18   S    
C17   H29   S    
Cu1   Cu2   S    
C29   C54   A    
C23   C83   S    
C84   C85   A    
C1    C27   S    
C49   H6    S    
C75   C76   A    
C2    C28   S    
C24   C77   S    
C66   C67   A    
Cu3   O15   S    
C86   H50   S    
C6    O14   A    
C26   C41   A    
C1    O1    A    
C68   C69   A    
C5    C31   S    
C3    O3    A    
