data_mof_unit_59071.cif
_audit_creation_date              2013-03-05T16:42:53-0500
_audit_creation_method            fapswitch 2.2
_symmetry_space_group_name_H-M    P1
_symmetry_Int_Tables_number       1
_space_group_crystal_system       triclinic
_cell_length_a                    9.951382
_cell_length_b                    10.618058
_cell_length_c                    13.645717
_cell_angle_alpha                 90.194836
_cell_angle_beta                  83.459261
_cell_angle_gamma                 91.080592
_cell_volume                      1432.22499929

loop_
_atom_site_label
_atom_site_type_symbol
_atom_site_description
_atom_site_fract_x
_atom_site_fract_y
_atom_site_fract_z
_atom_type_partial_charge
O1    O     O_R   0.385310 0.683210 0.499990 -0.560158
O2    O     O_R   0.614650 0.683240 0.500000 -0.658172
C1    C     C_R   0.501558 0.739153 0.498600 0.881155
O3    O     O_R   0.368820 0.499950 0.640340 -0.597167
O4    O     O_R   0.598170 0.499990 0.640350 -0.593063
C2    C     C_R   0.476169 0.501515 0.685300 0.945297
Zn1   Zn    Zn3+2 0.346870 0.499980 0.499990 1.042290
Zn2   Zn    Zn3+2 0.653130 0.500020 0.500010 0.985992
O5    O     O_R   0.385350 0.316760 0.500000 -0.582166
O6    O     O_R   0.614690 0.316790 0.500010 -0.600877
O7    O     O_R   0.401830 0.500010 0.359650 -0.582261
O8    O     O_R   0.631180 0.500050 0.359660 -0.600672
C3    C     C_R   0.498563 0.260659 0.501671 0.966719
C4    C     C_R   0.523805 0.499664 0.314742 0.873769
C5    C     C_1   0.541042 0.495301 0.211477 -0.131977
C6    C     C_2   0.555649 0.484977 0.020044 -0.030032
C7    C     C_2   0.439868 0.467973 0.979198 0.337419
C8    C     C_1   0.445576 0.481825 0.875524 0.029456
C9    C     C_1   0.551883 0.490372 0.124072 0.040544
C10   C     C_1   0.458235 0.492891 0.788451 -0.066287
C11   C     C_R   0.488972 0.936162 0.413754 -0.023862
C12   C     C_R   0.507005 0.870816 0.498766 -0.080220
C13   C     C_R   0.539745 0.933471 0.583110 -0.229181
H1    H     H_    0.558414 0.880899 0.647917 0.167975
C14   C     C_R   0.535205 0.064081 0.587056 0.313616
C15   C     C_R   0.496552 0.128447 0.504723 -0.208291
C16   C     C_R   0.481572 0.064853 0.417371 -0.008397
C17   C     C_3   0.369892 0.065776 0.351685 0.201102
C18   C     C_3   0.381932 0.921659 0.345305 -0.177882
H2    H     H_    0.290478 0.868425 0.377716 0.226588
C19   C     C_R   0.917255 0.525698 0.584099 0.078548
N1    N     N_R   0.857130 0.500860 0.500650 -0.106664
C20   C     C_R   0.938556 0.455043 0.421303 0.106569
C21   C     C_R   0.083114 0.454981 0.421179 0.110489
N2    N     N_R   0.142770 0.500820 0.500650 -0.085459
C22   C     C_R   0.058377 0.526670 0.583648 0.026097
C23   C     C_3   0.058845 0.638068 0.651686 0.295273
C24   C     C_3   0.901923 0.635851 0.654514 0.033876
N3    N     N_R   0.311273 0.439537 0.035573 0.203886
O9    O     O_R   0.199727 0.468424 0.000269 -0.400363
O10   O     O_R   0.304152 0.367175 0.112841 -0.413432
N4    N     N_3   0.166319 0.407024 0.337668 -0.353336
H3    H     H_    0.136587 0.314188 0.324873 0.192046
H4    H     H_    0.151529 0.461217 0.276165 0.217573
N5    N     N_3   0.112735 0.606925 0.744399 -0.416077
H5    H     H_    0.080639 0.517069 0.769220 0.183055
H6    H     H_    0.078498 0.672460 0.798432 0.210427
N6    N     N_R   0.126020 0.750678 0.604670 0.257318
O11   O     O_R   0.196365 0.826523 0.654972 -0.372588
O12   O     O_R   0.113548 0.778032 0.513262 -0.449981
N7    N     N_3   0.826020 0.600632 0.749469 -0.431117
H7    H     H_    0.844591 0.668334 0.802281 0.200038
H8    H     H_    0.855298 0.512824 0.773195 0.200171
N8    N     N_3   0.848041 0.749905 0.614024 -0.363937
H9    H     H_    0.860060 0.747779 0.536922 0.232881
H10   H     H_    0.744426 0.752526 0.636530 0.220395
N9    N     N_3   0.682126 0.508201 0.960379 -0.462755
H11   H     H_    0.720248 0.595858 0.980408 0.195022
H12   H     H_    0.749937 0.439836 0.977573 0.219644
N10   N     N_R   0.559361 0.127978 0.676529 0.213464
O13   O     O_R   0.481165 0.218561 0.710560 -0.412184
O14   O     O_R   0.645254 0.083170 0.731936 -0.369812
N11   N     N_3   0.240413 0.106993 0.402666 -0.411109
H13   H     H_    0.164223 0.080941 0.359367 0.183859
H14   H     H_    0.219202 0.059162 0.469772 0.232232
N12   N     N_3   0.407183 0.136135 0.259949 -0.389921
H15   H     H_    0.507210 0.118560 0.231631 0.189162
H16   H     H_    0.344521 0.105498 0.207785 0.237067
N13   N     N_3   0.435362 0.873807 0.247912 -0.443239
H17   H     H_    0.536615 0.901859 0.230445 0.199917
H18   H     H_    0.434666 0.775488 0.252128 0.196580
N14   N     N_3   0.877371 0.405592 0.339087 -0.389303
H19   H     H_    0.902320 0.310806 0.329875 0.170877
H20   H     H_    0.915623 0.455250 0.275682 0.183556

loop_
_geom_bond_atom_site_label_1
_geom_bond_atom_site_label_2
_geom_bond_distance
_ccdc_geom_bond_type
O4    Zn2   1.930775 S    
C17   N12   1.467279 S    
C13   H1    1.082987 S    
N11   H14   1.046941 S    
C5    C9    1.186335 T    
C23   C24   1.557403 S    
C14   N10   1.436598 S    
N14   H20   1.044984 S    
C2    C10   1.401623 S    
C19   C22   1.403518 A    
C8    C10   1.186471 T    
C19   N1    1.368012 A    
C21   N4    1.428450 S    
C19   C24   1.510042 S    
Zn2   O8    1.952159 S    
N1    C20   1.370041 A    
N6    O12   1.301804 A    
C7    C8    1.417413 S    
C11   C16   1.370239 A    
N7    H7    1.045026 S    
N3    O10   1.301350 A    
O1    Zn1   1.975706 S    
N5    H5    1.045516 S    
C23   N6    1.471584 S    
Zn1   O7    1.930775 S    
C6    C9    1.416753 S    
C17   C18   1.538572 S    
N9    H11   1.045698 S    
C18   H2    1.110837 S    
N4    H4    1.044862 S    
N10   O13   1.299666 A    
O3    Zn1   1.952159 S    
O4    C2    1.296725 A    
Zn1   N2    2.030259 S    
O3    C2    1.290907 A    
C22   C23   1.501462 S    
O8    C4    1.290924 A    
N12   H15   1.045883 S    
C18   N13   1.466876 S    
C6    N9    1.436669 S    
N5    H6    1.045065 S    
C15   C16   1.389318 A    
N13   H17   1.046547 S    
O7    C4    1.295991 A    
N8    H10   1.042671 S    
C3    C15   1.404292 S    
N9    H12   1.045496 S    
N13   H18   1.045592 S    
N4    H3    1.043696 S    
C23   N5    1.470241 S    
N11   H13   1.045715 S    
Zn2   N1    2.030948 S    
C17   N11   1.466530 S    
C16   C17   1.505348 S    
C13   C14   1.389071 A    
C20   C21   1.438374 A    
C20   N14   1.429914 S    
N10   O14   1.301395 A    
C21   N2    1.377499 A    
C7    N3    1.443368 S    
N3    O9    1.301539 A    
Zn1   O5    1.989846 S    
O5    C3    1.286815 A    
N8    H9    1.045474 S    
N6    O11   1.301610 A    
C1    C12   1.398042 S    
O2    C1    1.284361 A    
C24   N7    1.469340 S    
N12   H16   1.045588 S    
O1    C1    1.288645 A    
C14   C15   1.410991 A    
C11   C12   1.384528 A    
C11   C18   1.500093 S    
O6    C3    1.288156 A    
Zn2   O6    1.975705 S    
O2    Zn2   1.989846 S    
C12   C13   1.394794 A    
C4    C5    1.400709 S    
C6    C7    1.344825 D    
N14   H19   1.044907 S    
N7    H8    1.045350 S    
N2    C22   1.361335 A    
C24   N8    1.468306 S    
