data_mof_unit_8704.cif
_audit_creation_date              2012-12-10T19:43:25-0500
_audit_creation_method            fapswitch 2.2
_symmetry_space_group_name_H-M    P1
_symmetry_Int_Tables_number       1
_space_group_crystal_system       triclinic
_cell_length_a                    10.819969
_cell_length_b                    10.85519
_cell_length_c                    9.61366
_cell_angle_alpha                 91.813875
_cell_angle_beta                  91.145915
_cell_angle_gamma                 92.26833
_cell_volume                      1127.44601618

loop_
_atom_site_label
_atom_site_type_symbol
_atom_type_description
_atom_site_fract_x
_atom_site_fract_y
_atom_site_fract_z
_atom_type_partial_charge
C1    C     C_R   0.489575 0.262744 0.498017 0.801942
C2    C     C_R   0.184945 0.760876 0.046769 -0.244023
C3    C     C_R   0.932966 0.549835 0.393817 -0.214920
C4    C     C_R   0.871045 0.493445 0.502162 -0.075113
C5    C     C_R   0.937694 0.436900 0.608425 0.025986
C6    C     C_R   0.066273 0.442347 0.606140 -0.234051
C7    C     C_R   0.128357 0.499962 0.497439 -0.032651
C8    C     C_R   0.060779 0.553822 0.389967 0.088719
C9    C     C_R   0.879265 0.408414 0.856051 -0.207140
C10   C     C_R   0.812655 0.344753 0.956249 -0.166775
C11   C     C_R   0.742476 0.237525 0.917800 0.453477
C12   C     C_R   0.262500 0.500972 0.498879 0.844960
C13   C     C_R   0.739675 0.193303 0.779619 -0.145799
C14   C     C_R   0.805679 0.256957 0.679268 -0.176840
C15   C     C_R   0.875192 0.365359 0.716781 0.127810
C16   C     C_R   0.360750 0.127197 0.715664 -0.130270
C17   C     C_R   0.345508 0.076862 0.845482 -0.060925
C18   C     C_R   0.395986 0.964577 0.872572 -0.092539
C19   C     C_R   0.447086 0.895377 0.765420 -0.177712
C20   C     C_R   0.458574 0.942327 0.629702 0.116832
C21   C     C_R   0.430101 0.066831 0.612948 0.118591
C22   C     C_R   0.473953 0.128515 0.495546 -0.115112
C23   C     C_R   0.500910 0.738272 0.503175 0.803017
C24   C     C_R   0.518484 0.061409 0.382736 -0.089822
C25   C     C_R   0.525967 0.935003 0.387955 -0.165062
C26   C     C_R   0.498223 0.873476 0.510339 -0.098040
C27   C     C_R   0.667085 0.661646 0.151872 -0.154533
C28   C     C_R   0.750084 0.738258 0.083620 -0.190633
C29   C     C_R   0.750110 0.737235 0.940312 -0.177879
C30   C     C_R   0.667151 0.659559 0.864439 -0.157817
C31   C     C_R   0.582407 0.578424 0.929499 0.179858
C32   C     C_R   0.582179 0.579014 0.078955 0.149052
C33   C     C_R   0.421776 0.424759 0.068457 0.476890
C34   C     C_R   0.737223 0.496833 0.501050 0.774277
C35   C     C_R   0.421129 0.426320 0.921191 -0.090011
C36   C     C_R   0.189641 0.816620 0.180302 0.381655
C37   C     C_R   0.157011 0.747249 0.296006 0.333949
C38   C     C_R   0.117770 0.622429 0.275979 -0.016900
C39   C     C_R   0.115096 0.567692 0.141707 -0.161691
C40   C     C_R   0.150180 0.636349 0.027907 -0.216039
Cu1   Cu    Cu3+1 0.499990 0.499990 0.640660 0.943685
Cu2   Cu    Cu3+1 0.500010 0.500010 0.359340 1.014154
H1    H     H_    0.205519 0.814200 0.956619 0.185039
H2    H     H_    0.685489 0.110386 0.749659 0.155005
H3    H     H_    0.801132 0.223031 0.572013 0.141537
H4    H     H_    0.549286 0.107079 0.290850 0.235500
H5    H     H_    0.318811 0.213838 0.696036 0.133597
H6    H     H_    0.297553 0.126407 0.925942 0.208719
H7    H     H_    0.393417 0.929147 0.976282 0.187003
H8    H     H_    0.481706 0.809461 0.796688 0.177238
H9    H     H_    0.557610 0.885829 0.296418 0.174935
H10   H     H_    0.673914 0.672076 0.261767 0.188924
H11   H     H_    0.814235 0.799700 0.142762 0.174871
H12   H     H_    0.813883 0.798164 0.887267 0.171731
H13   H     H_    0.671537 0.668913 0.755163 0.196967
H14   H     H_    0.355438 0.367244 0.862306 0.142920
H15   H     H_    0.082507 0.472635 0.124891 0.188214
H16   H     H_    0.146970 0.593963 0.924364 0.172790
H17   H     H_    0.881732 0.594205 0.312781 0.148317
H18   H     H_    0.117838 0.398062 0.687199 0.148243
H19   H     H_    0.931001 0.492779 0.886034 0.150863
H20   H     H_    0.814526 0.379563 0.063127 0.167186
N1    N     N_R   0.501190 0.501210 0.147910 -0.225854
N2    N     N_R   0.501230 0.501290 0.852040 -0.222252
O1    O     O_R   0.499990 0.319640 0.618810 -0.591643
O2    O     O_R   0.500000 0.319660 0.381240 -0.508865
O3    O     O_R   0.319640 0.500000 0.618780 -0.598967
O4    O     O_R   0.319650 0.500020 0.381210 -0.530430
O5    O     O_R   0.500000 0.680340 0.618760 -0.617345
O6    O     O_R   0.500010 0.680360 0.381190 -0.599044
O7    O     O_R   0.680350 0.499980 0.618790 -0.587449
O8    O     O_R   0.680360 0.500000 0.381220 -0.601907
Cl1   Cl    Cl    0.656977 0.158769 0.041953 -0.673588
Cl2   Cl    Cl    0.318235 0.320709 0.146155 -0.579963
Cl3   Cl    Cl    0.230010 0.974923 0.199536 -0.555188
Cl4   Cl    Cl    0.158264 0.818322 0.463913 -0.599658

loop_
_geom_bond_atom_site_label_1
_geom_bond_atom_site_label_2
_ccdc_geom_bond_type
C16   C21   A    
Cu1   Cu2   S    
C23   O5    A    
C19   C20   A    
C17   H6    S    
C7    C8    A    
Cu1   O3    S    
C12   O4    A    
C37   C38   A    
C9    H19   S    
C36   C37   A    
C5    C6    A    
C29   H12   S    
C39   H15   S    
Cu2   O6    S    
C18   C19   A    
C23   C26   S    
C16   C17   A    
C1    O1    A    
C35   N2    A    
C9    C10   A    
Cu1   O7    S    
C35   H14   S    
C1    C22   S    
C21   C22   A    
Cu2   O4    S    
C23   O6    A    
C10   H20   S    
C8    C38   S    
C16   H5    S    
C17   C18   A    
C14   H3    S    
C7    C12   S    
C12   O3    A    
C4    C34   S    
C40   H16   S    
C6    H18   S    
C24   C25   A    
C3    C8    A    
C11   Cl1   S    
C39   C40   A    
Cu1   O1    S    
C25   C26   A    
C25   H9    S    
C29   C30   A    
C36   Cl3   S    
C31   C32   A    
C2    H1    S    
C33   N1    A    
Cu2   O8    S    
C1    O2    A    
C37   Cl4   S    
C22   C24   A    
C3    C4    A    
C34   O8    A    
C27   H10   S    
Cu1   O5    S    
C2    C36   A    
C30   C31   A    
C28   C29   A    
C27   C32   A    
C31   N2    A    
C32   N1    A    
C4    C5    A    
C28   H11   S    
C6    C7    A    
C30   H13   S    
C24   H4    S    
C9    C15   A    
C11   C13   A    
C19   H8    S    
C38   C39   A    
C20   C26   A    
C34   O7    A    
C33   C35   A    
C5    C15   S    
C10   C11   A    
C2    C40   A    
C33   Cl2   S    
C20   C21   A    
C27   C28   A    
Cu2   O2    S    
C14   C15   A    
Cu1   N2    S    
C13   C14   A    
Cu2   N1    S    
C13   H2    S    
C18   H7    S    
C3    H17   S    
