data_mof_unit_52637.cif
_audit_creation_date              2012-12-11T16:45:23-0500
_audit_creation_method            fapswitch 2.2
_symmetry_space_group_name_H-M    P1
_symmetry_Int_Tables_number       1
_space_group_crystal_system       triclinic
_cell_length_a                    19.779981
_cell_length_b                    17.233473
_cell_length_c                    15.479742
_cell_angle_alpha                 90.06223
_cell_angle_beta                  52.875538
_cell_angle_gamma                 90.247192
_cell_volume                      4207.20494835

loop_
_atom_site_label
_atom_site_type_symbol
_atom_type_description
_atom_site_fract_x
_atom_site_fract_y
_atom_site_fract_z
_atom_type_partial_charge
C1    C     C_R   0.835908 0.665562 0.056499 -0.064348
C2    C     C_R   0.166019 0.662704 0.940493 -0.055282
C3    C     C_R   0.336702 0.166771 0.055190 -0.048711
C4    C     C_R   0.665170 0.164340 0.941546 -0.038526
C5    C     C_R   0.809870 0.360433 0.319384 -0.168021
C6    C     C_R   0.191518 0.367916 0.676791 -0.122144
C7    C     C_R   0.314734 0.855199 0.322783 -0.155326
C8    C     C_R   0.641580 0.825550 0.687238 -0.095380
C9    C     C_R   0.845555 0.312043 0.934878 -0.139800
C10   C     C_R   0.157141 0.313170 0.060962 -0.198963
C11   C     C_R   0.344617 0.811978 0.936268 -0.188916
C12   C     C_R   0.660162 0.813910 0.056659 -0.192124
C13   C     C_R   0.890261 0.685091 0.299819 0.021345
C14   C     C_R   0.105698 0.682397 0.696261 0.011468
C15   C     C_R   0.364574 0.175781 0.314719 0.062225
C16   C     C_R   0.618934 0.178498 0.690619 0.081821
C17   C     C_R   0.832670 0.723155 0.481811 -0.037459
C18   C     C_R   0.174334 0.695343 0.500663 -0.130328
C19   C     C_R   0.245261 0.254742 0.446644 -0.090208
C20   C     C_R   0.721960 0.192279 0.498887 -0.118458
C21   C     C_R   0.825537 0.720505 0.398537 0.039115
C22   C     C_R   0.129447 0.729554 0.603572 0.057323
C23   C     C_R   0.324625 0.225887 0.406133 0.046194
C24   C     C_R   0.654635 0.224125 0.595803 0.059986
C25   C     C_R   0.369849 0.257444 0.441000 -0.276794
C26   C     C_R   0.623710 0.297512 0.596959 -0.244450
C27   C     C_R   0.745057 0.729893 0.422465 -0.216645
C28   C     C_R   0.121210 0.810480 0.608801 -0.230244
C29   C     C_R   0.329559 0.310182 0.527540 0.207669
C30   C     C_R   0.671663 0.345476 0.504167 0.233004
C31   C     C_R   0.677839 0.758877 0.522892 0.204942
C32   C     C_R   0.178434 0.855657 0.515867 0.204947
C33   C     C_R   0.245356 0.331714 0.573293 0.114117
C34   C     C_R   0.749746 0.315949 0.413305 0.007688
C35   C     C_R   0.694078 0.776428 0.597719 0.038859
C36   C     C_R   0.241986 0.817701 0.418007 0.051244
C37   C     C_R   0.767095 0.748207 0.581264 -0.101736
C38   C     C_R   0.234371 0.738306 0.412307 -0.091606
C39   C     C_R   0.209830 0.313979 0.519637 -0.074935
C40   C     C_R   0.770930 0.238818 0.411426 -0.067968
C41   C     C_3   0.824930 0.775111 0.608475 0.667275
C42   C     C_3   0.296704 0.673150 0.355973 0.632385
C43   C     C_3   0.120335 0.290956 0.561862 0.637267
C44   C     C_3   0.851848 0.197271 0.371883 0.636798
C45   C     C_R   0.850389 0.329634 0.217325 -0.147451
C46   C     C_R   0.151410 0.331474 0.777402 -0.183172
C47   C     C_R   0.351322 0.828649 0.219083 -0.192155
C48   C     C_R   0.618050 0.807562 0.787427 -0.174562
C49   C     C_3   0.899344 0.746307 0.494597 0.615949
C50   C     C_3   0.225761 0.622190 0.448133 0.700841
C51   C     C_3   0.160790 0.217354 0.493390 0.651290
C52   C     C_3   0.795568 0.142643 0.469753 0.668597
C53   C     C_2   0.792117 0.181853 0.935580 -0.046727
C54   C     C_2   0.210512 0.183722 0.059886 -0.062080
C55   C     C_2   0.291595 0.681291 0.937284 -0.044477
C56   C     C_2   0.711544 0.683819 0.057606 -0.058777
C57   C     C_2   0.288961 0.760218 0.932730 0.676714
C58   C     C_2   0.716184 0.762753 0.058933 0.683853
C59   C     C_2   0.789840 0.260792 0.931054 0.675803
C60   C     C_2   0.213947 0.262670 0.062477 0.693342
C61   C     C_R   0.863927 0.388299 0.899723 0.805687
C62   C     C_R   0.137473 0.388809 0.098391 0.782363
C63   C     C_R   0.363268 0.888219 0.900560 0.784064
C64   C     C_R   0.639119 0.889081 0.096250 0.795201
C65   C     C_R   0.908919 0.608736 0.300698 -0.068301
C66   C     C_R   0.085856 0.606581 0.701580 0.062178
C67   C     C_R   0.392029 0.102288 0.310957 -0.185703
C68   C     C_R   0.598467 0.102851 0.693781 -0.128695
C69   C     C_R   0.873320 0.299990 0.995976 -0.311350
C70   C     C_R   0.128582 0.300829 0.000774 -0.311706
C71   C     C_R   0.373043 0.800033 0.996587 -0.335112
C72   C     C_R   0.630817 0.801579 0.997386 -0.315528
C73   C     C_R   0.900942 0.698750 0.204905 0.158788
C74   C     C_R   0.099273 0.698164 0.790061 0.176767
C75   C     C_R   0.389844 0.195498 0.212365 0.213781
C76   C     C_R   0.604054 0.196974 0.787907 0.224510
C77   C     C_R   0.859201 0.419957 0.314377 0.689410
C78   C     C_R   0.142006 0.427265 0.688411 0.783353
C79   C     C_R   0.366166 0.913908 0.315772 0.717840
C80   C     C_R   0.612554 0.898915 0.688530 0.714791
C81   C     C_R   0.828581 0.580130 0.953549 -0.171460
C82   C     C_R   0.171792 0.579499 0.045803 -0.150530
C83   C     C_R   0.328275 0.080228 0.954186 -0.160030
C84   C     C_R   0.672375 0.079544 0.044459 -0.151474
C85   C     C_R   0.786217 0.640718 0.027857 0.145753
C86   C     C_R   0.215596 0.638526 0.969232 0.137650
C87   C     C_R   0.286334 0.141397 0.027866 0.144030
C88   C     C_R   0.715585 0.139387 0.968648 0.132428
H1    H     H_    0.819087 0.707582 0.117413 0.159314
H2    H     H_    0.185771 0.700190 0.874857 0.157086
H3    H     H_    0.321141 0.210170 0.114070 0.177929
H4    H     H_    0.683131 0.204861 0.878993 0.173667
H5    H     H_    0.831265 0.279019 0.195876 0.174329
H6    H     H_    0.172034 0.279644 0.794253 0.132811
H7    H     H_    0.326946 0.784247 0.195916 0.212457
H8    H     H_    0.623770 0.752628 0.815813 0.131231
H9    H     H_    0.912968 0.580972 0.359984 0.216332
H10   H     H_    0.067876 0.579301 0.655303 0.145681
H11   H     H_    0.394998 0.075294 0.371431 0.201034
H12   H     H_    0.591854 0.073361 0.637714 0.181787
H13   H     H_    0.873928 0.245982 0.030761 0.154407
H14   H     H_    0.129284 0.247356 0.963781 0.153642
H15   H     H_    0.373921 0.746147 0.031364 0.178206
H16   H     H_    0.632430 0.748563 0.958975 0.150547
H17   H     H_    0.807188 0.547878 0.914298 0.178968
H18   H     H_    0.192630 0.547677 0.085795 0.186754
H19   H     H_    0.306249 0.047582 0.915956 0.183248
H20   H     H_    0.694107 0.047251 0.083049 0.182339
H21   H     H_    0.434650 0.239739 0.402943 0.147685
H22   H     H_    0.565642 0.317465 0.670968 0.157398
H23   H     H_    0.735011 0.716008 0.362684 0.143140
H24   H     H_    0.077398 0.839196 0.685270 0.157920
N1    N     N_R   0.908660 0.628630 0.995840 -0.067918
N2    N     N_R   0.091340 0.628630 0.004160 -0.065749
N3    N     N_R   0.408660 0.128630 0.995840 -0.075603
N4    N     N_R   0.591340 0.128630 0.004160 -0.072178
N5    N     N_R   0.922310 0.368460 0.151950 -0.073691
N6    N     N_R   0.077690 0.368460 0.848050 -0.049344
N7    N     N_R   0.422310 0.868460 0.151950 -0.075174
N8    N     N_R   0.577690 0.868460 0.848050 -0.064855
N9    N     N_R   0.903470 0.421430 0.936420 -0.122753
N10   N     N_R   0.096530 0.421430 0.063580 -0.119728
N11   N     N_R   0.403470 0.921430 0.936420 -0.121971
N12   N     N_R   0.596530 0.921430 0.063580 -0.115580
N13   N     N_R   0.927500 0.575670 0.211370 -0.072145
N14   N     N_R   0.072500 0.575670 0.788630 -0.081513
N15   N     N_R   0.427500 0.075670 0.211370 -0.059730
N16   N     N_R   0.572500 0.075670 0.788630 -0.054145
N17   N     N_R   0.908660 0.365680 0.995820 -0.059804
N18   N     N_R   0.091340 0.365680 0.004180 -0.059356
N19   N     N_R   0.408660 0.865680 0.995820 -0.062204
N20   N     N_R   0.591340 0.865680 0.004180 -0.051725
N21   N     N_R   0.922310 0.631420 0.151980 -0.085986
N22   N     N_R   0.077690 0.631420 0.848020 -0.090852
N23   N     N_R   0.422310 0.131420 0.151980 -0.088128
N24   N     N_R   0.577690 0.131420 0.848020 -0.081672
N25   N     N_R   0.927500 0.426330 0.211360 -0.112445
N26   N     N_R   0.072500 0.426330 0.788640 -0.107160
N27   N     N_R   0.427500 0.926330 0.211360 -0.106066
N28   N     N_R   0.572500 0.926330 0.788640 -0.106140
N29   N     N_R   0.903470 0.570760 0.936440 -0.057070
N30   N     N_R   0.096530 0.570760 0.063560 -0.050406
N31   N     N_R   0.403470 0.070760 0.936440 -0.051580
N32   N     N_R   0.596530 0.070760 0.063560 -0.047645
Ni1   Ni    Ni4+2 0.000000 0.630300 0.000000 0.181710
Ni2   Ni    Ni4+2 0.500000 0.130300 0.000000 0.193770
Ni3   Ni    Ni4+2 0.000000 0.369700 0.000000 0.215554
Ni4   Ni    Ni4+2 0.500000 0.869700 0.000000 0.203386
Ni5   Ni    Ni4+2 0.988090 0.497570 0.863760 0.259923
Ni6   Ni    Ni4+2 0.011910 0.497570 0.136240 0.258489
Ni7   Ni    Ni4+2 0.488090 0.997570 0.863760 0.278260
Ni8   Ni    Ni4+2 0.511910 0.997570 0.136240 0.282948
C89   C     C_3   0.376449 0.343493 0.568138 -0.410276
C90   C     C_3   0.395975 0.429499 0.538739 -0.800867
H25   H     H_    0.436442 0.437023 0.449348 0.259543
H26   H     H_    0.336703 0.463162 0.575920 0.279911
H27   H     H_    0.430176 0.453469 0.568962 0.242257
H28   H     H_    0.338105 0.336049 0.657343 0.196068
H29   H     H_    0.437322 0.312566 0.531566 0.199079
C91   C     C_3   0.643337 0.426539 0.500369 -0.321265
C92   C     C_3   0.561168 0.454185 0.605716 -0.953408
H30   H     H_    0.507907 0.414351 0.630949 0.267363
H31   H     H_    0.569123 0.457911 0.670766 0.270740
H32   H     H_    0.545272 0.512706 0.593167 0.262669
H33   H     H_    0.693504 0.469087 0.479065 0.235228
H34   H     H_    0.635208 0.428145 0.435347 0.183187
C93   C     C_3   0.592141 0.769991 0.546487 -0.256060
C94   C     C_3   0.552732 0.692200 0.551342 -0.973869
H35   H     H_    0.592144 0.662267 0.471819 0.263705
H36   H     H_    0.546401 0.654646 0.614131 0.269662
H37   H     H_    0.488692 0.701783 0.572978 0.270465
H38   H     H_    0.546447 0.799016 0.625362 0.213323
H39   H     H_    0.599605 0.807019 0.482460 0.224170
C95   C     C_3   0.176983 0.941792 0.528946 -0.367383
C96   C     C_3   0.211923 0.962604 0.591203 -0.739476
H40   H     H_    0.159055 0.968220 0.678640 0.216541
H41   H     H_    0.256506 0.918388 0.581381 0.293425
H42   H     H_    0.249114 0.016838 0.558987 0.277054
H43   H     H_    0.214147 0.971077 0.448988 0.187130
H44   H     H_    0.110867 0.963194 0.573534 0.182277
F1    F     F_    0.822886 0.855034 0.620293 -0.717152
F2    F     F_    0.316212 0.655248 0.255962 -0.753979
F3    F     F_    0.065470 0.278249 0.672580 -0.745767
F4    F     F_    0.886364 0.161886 0.273062 -0.743546
C97   C     C_3   0.813777 0.733531 0.705120 -0.341133
C98   C     C_3   0.781820 0.649369 0.725502 -0.882709
H45   H     H_    0.718359 0.646126 0.743762 0.240381
H46   H     H_    0.826136 0.611814 0.654977 0.326609
H47   H     H_    0.776150 0.626135 0.796494 0.250102
H48   H     H_    0.875166 0.735075 0.693014 0.213718
H49   H     H_    0.768238 0.767280 0.779627 0.208462
C99   C     C_3   0.378761 0.679733 0.348017 -0.317896
C100  C     C_3   0.369825 0.717128 0.444641 -0.882312
H50   H     H_    0.358145 0.780242 0.448313 0.276410
H51   H     H_    0.318183 0.690512 0.522950 0.297911
H52   H     H_    0.430060 0.709613 0.434311 0.258277
H53   H     H_    0.405240 0.620554 0.335651 0.214443
H54   H     H_    0.426538 0.713824 0.274387 0.197502
C101  C     C_3   0.075466 0.344887 0.530740 -0.282763
C102  C     C_3   0.128470 0.374285 0.413867 -0.841704
H55   H     H_    0.189611 0.398228 0.389545 0.255803
H56   H     H_    0.139490 0.328135 0.356958 0.318634
H57   H     H_    0.093162 0.420985 0.407681 0.274219
H58   H     H_    0.019095 0.313841 0.548081 0.211691
H59   H     H_    0.050950 0.396096 0.585176 0.238019
C103  C     C_3   0.921103 0.244703 0.366950 -0.359083
C104  C     C_3   0.892461 0.293449 0.466839 -0.740387
H60   H     H_    0.830442 0.321479 0.503650 0.267500
H61   H     H_    0.888888 0.257706 0.528984 0.288382
H62   H     H_    0.940153 0.339779 0.442382 0.264689
H63   H     H_    0.970980 0.204017 0.350641 0.213760
H64   H     H_    0.952102 0.283991 0.295706 0.192012
C105  C     C_3   0.965554 0.808536 0.417067 -0.311584
C106  C     C_3   0.934960 0.871449 0.378353 -0.899747
H65   H     H_    0.938619 0.849478 0.308671 0.252898
H66   H     H_    0.869186 0.890219 0.442557 0.300787
H67   H     H_    0.977471 0.922837 0.350113 0.263313
H68   H     H_    0.989559 0.836780 0.458401 0.209175
H69   H     H_    0.020553 0.778908 0.344375 0.204254
C107  C     C_3   0.185613 0.564760 0.413042 -0.355630
C108  C     C_3   0.136252 0.601901 0.376311 -0.835215
H70   H     H_    0.080077 0.632946 0.445002 0.296863
H71   H     H_    0.175787 0.643031 0.308215 0.295097
H72   H     H_    0.113624 0.555974 0.348934 0.280951
H73   H     H_    0.236543 0.527580 0.346848 0.230046
H74   H     H_    0.140274 0.526498 0.481772 0.252184
C109  C     C_3   0.141970 0.142994 0.560274 -0.297147
C110  C     C_3   0.164170 0.145499 0.640304 -0.949039
H75   H     H_    0.233718 0.144011 0.596596 0.250037
H76   H     H_    0.140131 0.196311 0.693583 0.313338
H77   H     H_    0.134133 0.095632 0.696411 0.261060
H78   H     H_    0.073614 0.128542 0.605843 0.213241
H79   H     H_    0.178536 0.095949 0.501551 0.190251
C111  C     C_3   0.791615 0.056728 0.443106 -0.347467
C112  C     C_3   0.746917 0.041422 0.391093 -0.785238
H80   H     H_    0.679976 0.060707 0.445022 0.258938
H81   H     H_    0.779448 0.071068 0.311811 0.290203
H82   H     H_    0.747132 0.978122 0.377511 0.271257
H83   H     H_    0.857246 0.033771 0.388993 0.206289
H84   H     H_    0.757981 0.022644 0.519493 0.242242
F5    F     F_    0.939105 0.681328 0.496883 -0.744969
F6    F     F_    0.248839 0.585656 0.506320 -0.696938
F7    F     F_    0.147718 0.205741 0.415997 -0.736315
F8    F     F_    0.809673 0.147304 0.547012 -0.720070
C113  C     C_3   0.868619 0.136565 0.908027 -0.445072
C114  C     C_3   0.895426 0.075040 0.821758 -0.755502
H85   H     H_    0.845314 0.030037 0.853018 0.260640
H86   H     H_    0.908113 0.102322 0.748238 0.263475
H87   H     H_    0.954292 0.046272 0.798903 0.237529
H88   H     H_    0.924533 0.174842 0.874787 0.239410
H89   H     H_    0.853001 0.107962 0.982392 0.212210
C115  C     C_3   0.133043 0.138177 0.089779 -0.432735
C116  C     C_3   0.105915 0.077856 0.177672 -0.768361
H90   H     H_    0.155113 0.032420 0.146917 0.251076
H91   H     H_    0.094933 0.106070 0.249708 0.263897
H92   H     H_    0.046035 0.049434 0.202738 0.260054
H93   H     H_    0.077596 0.176424 0.122298 0.233706
H94   H     H_    0.147705 0.108458 0.016567 0.213304
C117  C     C_3   0.367281 0.636399 0.912797 -0.426132
C118  C     C_3   0.391984 0.570401 0.832912 -0.842192
H95   H     H_    0.341382 0.525449 0.869345 0.267740
H96   H     H_    0.403677 0.593017 0.757773 0.255561
H97   H     H_    0.450767 0.542726 0.811699 0.256903
H98   H     H_    0.424041 0.674277 0.875408 0.203374
H99   H     H_    0.351587 0.611866 0.989324 0.232051
C119  C     C_3   0.634287 0.638843 0.085790 -0.428467
C120  C     C_3   0.605121 0.579017 0.174907 -0.832916
H100  H     H_    0.654724 0.534508 0.147281 0.260531
H101  H     H_    0.590301 0.608030 0.248645 0.251299
H102  H     H_    0.547041 0.549191 0.195995 0.254047
H103  H     H_    0.579417 0.677359 0.116430 0.206730
H104  H     H_    0.650048 0.608763 0.012230 0.212800
F9    F     F_    0.220940 0.797342 0.950526 -0.716430
F10   F     F_    0.785258 0.800038 0.038839 -0.712780
F11   F     F_    0.722250 0.298613 0.948540 -0.720631
F12   F     F_    0.282958 0.300842 0.041293 -0.714401
F13   F     F_    0.859308 0.419581 0.823135 -0.709662
F14   F     F_    0.142633 0.419604 0.174857 -0.718788
F15   F     F_    0.358086 0.919367 0.824389 -0.698945
F16   F     F_    0.644750 0.919380 0.172542 -0.698827
C121  C     C_3   0.923274 0.776717 0.148891 -0.412151
C122  C     C_3   0.851151 0.835816 0.206889 -0.783947
H105  H     H_    0.793198 0.812866 0.219936 0.273324
H106  H     H_    0.835419 0.852741 0.286081 0.241760
H107  H     H_    0.871206 0.889044 0.156459 0.272538
H108  H     H_    0.979444 0.800950 0.139619 0.212316
H109  H     H_    0.941785 0.768603 0.066303 0.204248
C123  C     C_3   0.095044 0.777243 0.834960 -0.415588
C124  C     C_3   0.179920 0.820707 0.765664 -0.767305
H110  H     H_    0.224337 0.802984 0.782710 0.288516
H111  H     H_    0.212881 0.810094 0.678439 0.244477
H112  H     H_    0.168573 0.883511 0.783919 0.257378
H113  H     H_    0.044217 0.811619 0.843291 0.195750
H114  H     H_    0.076123 0.772063 0.918042 0.208132
C125  C     C_3   0.417638 0.275287 0.161628 -0.423247
C126  C     C_3   0.347241 0.335401 0.214631 -0.760112
H115  H     H_    0.287725 0.309758 0.235176 0.284952
H116  H     H_    0.337193 0.359246 0.288096 0.246624
H117  H     H_    0.365952 0.384509 0.157788 0.269740
H118  H     H_    0.470026 0.296103 0.163430 0.213122
H119  H     H_    0.443383 0.270660 0.075433 0.195089
C127  C     C_3   0.595444 0.277735 0.831380 -0.477624
C128  C     C_3   0.678817 0.323762 0.764448 -0.687860
H120  H     H_    0.734030 0.286823 0.738097 0.265464
H121  H     H_    0.689545 0.349290 0.691512 0.239102
H122  H     H_    0.675845 0.372313 0.813845 0.277012
H123  H     H_    0.545581 0.309777 0.834288 0.202713
H124  H     H_    0.573639 0.274123 0.915987 0.205526
F17   F     F_    0.849395 0.455029 0.399543 -0.739855
F18   F     F_    0.151867 0.466480 0.606570 -0.737893
F19   F     F_    0.368949 0.940429 0.395459 -0.739821
F20   F     F_    0.614373 0.933088 0.608433 -0.745851

loop_
_geom_bond_atom_site_label_1
_geom_bond_atom_site_label_2
_ccdc_geom_bond_type
C79   N27   A    
C113  H88   S    
C66   H10   S    
C15   C75   A    
C76   C127  S    
C105  H69   S    
C115  H94   S    
C97   H48   S    
C128  H121  S    
C122  H105  S    
C20   C40   A    
N14   Ni5   S    
C29   C33   A    
N27   Ni8   S    
C101  H59   S    
C2    H2    S    
C104  H62   S    
C113  H89   S    
C123  H114  S    
C68   N16   A    
C15   C23   S    
N31   Ni7   S    
C101  C102  S    
C113  C114  S    
C1    N1    A    
C41   C49   S    
C110  H75   S    
C92   H31   S    
C72   N20   A    
N3    N31   A    
C25   C29   A    
C109  H79   S    
C27   C31   A    
C28   C32   A    
C48   N8    A    
C103  C104  S    
N7    Ni4   S    
C64   N12   A    
C28   H24   S    
C9    C59   S    
C8    C35   S    
C10   C60   S    
C96   H40   S    
N23   Ni2   S    
C13   C21   S    
C90   H25   S    
C125  H118  S    
C126  H115  S    
C13   C73   A    
N8    Ni4   S    
C55   C57   D    
C101  H58   S    
N21   Ni1   S    
C5    C77   A    
C7    C79   A    
C121  H108  S    
C48   H8    S    
C84   C88   A    
C127  H124  S    
N15   N23   A    
C49   F5    S    
C69   H13   S    
C6    C33   S    
C55   C86   S    
C18   C38   A    
C83   N31   A    
C2    N2    A    
C74   N22   A    
C43   F3    S    
N9    Ni5   S    
C75   N23   A    
N17   Ni3   S    
C103  H64   S    
N14   N22   A    
C102  H56   S    
C100  H50   S    
C3    N3    A    
C98   H45   S    
N6    N26   A    
C110  H77   S    
N24   Ni2   S    
C115  C116  S    
C77   F17   S    
C49   C105  S    
C45   H5    S    
C56   C85   S    
N3    Ni2   S    
C9    C61   A    
C14   C74   A    
N6    Ni3   S    
C24   C26   A    
C11   C63   A    
C119  H103  S    
C80   F20   S    
C116  H90   S    
C12   C64   A    
C120  H102  S    
C106  H66   S    
C6    C78   A    
C84   N32   A    
N12   N20   A    
C61   N9    A    
C89   H28   S    
C95   C96   S    
N4    N32   A    
C126  H117  S    
N8    N28   A    
C56   C119  S    
C25   H21   S    
C44   C52   S    
C27   H23   S    
C107  C108  S    
N26   Ni5   S    
C81   H17   S    
C99   H53   S    
C30   C34   A    
C17   C49   S    
C66   N14   A    
C68   H12   S    
C108  H70   S    
C46   H6    S    
C100  H52   S    
C15   C67   A    
C124  H110  S    
C107  H74   S    
C111  H84   S    
C42   C50   S    
C69   N17   A    
C26   C30   A    
C91   H34   S    
C112  H82   S    
N25   Ni6   S    
C95   H44   S    
C62   N10   A    
C52   C111  S    
C73   C121  S    
C71   H15   S    
C114  H85   S    
C60   F12   S    
N18   Ni3   S    
C16   C76   A    
C61   F13   S    
C51   F7    S    
N2    Ni1   S    
C118  H95   S    
C116  H92   S    
C105  H68   S    
C4    C88   A    
C57   F9    S    
C122  H106  S    
C93   H39   S    
C14   C22   S    
N32   Ni8   S    
N4    Ni2   S    
C63   F15   S    
C64   F16   S    
C94   H36   S    
C56   C58   D    
C55   C117  S    
C82   H18   S    
C37   C41   S    
C12   C72   A    
C71   N19   A    
C40   C44   S    
C122  H107  S    
C104  H61   S    
C54   C115  S    
C22   C28   A    
C81   C85   A    
C114  H87   S    
C83   C87   A    
C58   F10   S    
C7    C36   S    
C82   N30   A    
C110  H76   S    
C92   H30   S    
C105  C106  S    
C42   F2    S    
N10   Ni6   S    
C77   N25   A    
C108  H72   S    
N16   N24   A    
C11   C71   A    
C45   N5    A    
C70   N18   A    
C124  H112  S    
C46   N6    A    
C3    H3    S    
N1    Ni1   S    
C75   C125  S    
C78   F18   S    
C112  H80   S    
C119  H104  S    
C128  H122  S    
C90   H26   S    
C67   H11   S    
C125  H119  S    
C126  H116  S    
C21   C27   A    
C18   C22   A    
C41   F1    S    
C10   C62   A    
C118  H97   S    
C115  H93   S    
C97   H49   S    
C96   H42   S    
C76   N24   A    
N11   Ni7   S    
C104  H60   S    
C90   H27   S    
C117  H98   S    
C125  C126  S    
C13   C65   A    
C72   H16   S    
C82   C86   A    
C5    C45   A    
C127  H123  S    
C42   C99   S    
C7    C47   A    
C8    C48   A    
C120  H100  S    
C44   C103  S    
C91   H33   S    
N28   Ni7   S    
C10   C70   A    
C96   H41   S    
C51   C109  S    
C9    C69   A    
C31   C35   A    
C111  C112  S    
C98   H46   S    
C32   C36   A    
C93   C94   S    
C92   H32   S    
C18   C50   S    
N22   Ni1   S    
N11   N19   A    
C4    N4    A    
N9    N17   A    
C63   N11   A    
C70   H14   S    
C93   H38   S    
N5    Ni3   S    
N7    N27   A    
N30   Ni6   S    
C98   H47   S    
C36   C38   A    
C80   N28   A    
C99   C100  S    
C120  H101  S    
C43   C51   S    
C97   C98   S    
C32   C95   S    
C50   C107  S    
C84   H20   S    
C17   C21   A    
N13   Ni6   S    
C99   H54   S    
C20   C52   S    
C11   C57   S    
C4    H4    S    
C121  H109  S    
C19   C23   A    
C53   C59   D    
N29   Ni5   S    
C54   C60   D    
C30   C91   S    
C33   C39   A    
C34   C40   A    
N2    N30   A    
C35   C37   A    
C38   C42   S    
C52   F8    S    
C54   C87   S    
C109  C110  S    
C103  H63   S    
C20   C24   A    
N1    N29   A    
C102  H55   S    
C100  H51   S    
C59   F11   S    
C16   C68   A    
C44   F4    S    
C12   C58   S    
C81   N29   A    
C109  H78   S    
N12   Ni8   S    
C16   C24   S    
C128  H120  S    
C112  H81   S    
C78   N26   A    
C94   H37   S    
C1    C85   A    
C114  H86   S    
C3    C87   A    
N20   Ni4   S    
C118  H96   S    
C116  H91   S    
C106  H65   S    
C39   C43   S    
C121  C122  S    
C123  H113  S    
C65   N13   A    
C89   H29   S    
C117  H99   S    
C67   N15   A    
N15   Ni8   S    
N16   Ni7   S    
C74   C123  S    
C5    C34   S    
C14   C66   A    
C41   C97   S    
N19   Ni4   S    
C17   C37   A    
C19   C39   A    
C73   N21   A    
C117  C118  S    
C29   C89   S    
N13   N21   A    
C26   H22   S    
C127  C128  S    
C94   H35   S    
C1    H1    S    
C6    C46   A    
N5    N25   A    
C79   F19   S    
C31   C93   S    
C50   F6    S    
C106  H67   S    
C123  C124  S    
C65   H9    S    
C108  H71   S    
C102  H57   S    
C47   N7    A    
C124  H111  S    
C83   H19   S    
C107  H73   S    
C2    C86   A    
C53   C88   S    
C111  H83   S    
C23   C25   A    
C91   C92   S    
C53   C113  S    
C119  C120  S    
C19   C51   S    
C8    C80   A    
C47   H7    S    
C43   C101  S    
C62   F14   S    
C89   C90   S    
C95   H43   S    
N10   N18   A    
