data_mof_unit_47723.cif
_audit_creation_date              2013-03-05T16:45:09-0500
_audit_creation_method            fapswitch 2.2
_symmetry_space_group_name_H-M    P1
_symmetry_Int_Tables_number       1
_space_group_crystal_system       triclinic
_cell_length_a                    15.168661
_cell_length_b                    15.125923
_cell_length_c                    9.923064
_cell_angle_alpha                 88.436372
_cell_angle_beta                  90.151133
_cell_angle_gamma                 88.895022
_cell_volume                      2275.4653865

loop_
_atom_site_label
_atom_site_type_symbol
_atom_site_description
_atom_site_fract_x
_atom_site_fract_y
_atom_site_fract_z
_atom_type_partial_charge
O1    O     O_R   0.408400 0.908380 0.614690 -0.598491
O2    O     O_R   0.408400 0.091620 0.614690 -0.625758
O3    O     O_R   0.908400 0.408380 0.614690 -0.603613
O4    O     O_R   0.908400 0.591620 0.614690 -0.623024
O5    O     O_R   0.408370 0.908370 0.385350 -0.581751
O6    O     O_R   0.408370 0.091630 0.385350 -0.606710
O7    O     O_R   0.908370 0.408370 0.385350 -0.583296
O8    O     O_R   0.908370 0.591630 0.385350 -0.606313
C1    C     C_R   0.384589 0.875490 0.500554 0.867714
C2    C     C_R   0.379722 0.119182 0.498622 0.877164
C3    C     C_R   0.884632 0.375600 0.500713 0.861670
C4    C     C_R   0.879545 0.619066 0.498553 0.893754
Zn1   Zn    Zn3+2 0.500010 0.000000 0.653130 0.935448
Zn2   Zn    Zn3+2 0.000010 0.500000 0.653130 0.944238
Zn3   Zn    Zn3+2 0.499980 1.000000 0.346870 0.944878
Zn4   Zn    Zn3+2 0.999980 0.500000 0.346870 0.951416
O9    O     O_R   0.591610 0.091610 0.614650 -0.611593
O10   O     O_R   0.591610 0.908390 0.614650 -0.637911
O11   O     O_R   0.091610 0.591610 0.614650 -0.603963
O12   O     O_R   0.091610 0.408390 0.614650 -0.641903
O13   O     O_R   0.591590 0.091600 0.385310 -0.623600
O14   O     O_R   0.591590 0.908400 0.385310 -0.628821
O15   O     O_R   0.091590 0.591600 0.385310 -0.620979
O16   O     O_R   0.091590 0.408400 0.385310 -0.625767
C5    C     C_R   0.622086 0.117087 0.499226 0.904467
C6    C     C_R   0.618454 0.879437 0.501024 0.872225
C7    C     C_R   0.122422 0.616816 0.499157 0.927693
C8    C     C_R   0.119161 0.380055 0.501010 0.886047
C9    C     C_R   0.332945 0.270768 0.479408 -0.073086
C10   C     C_R   0.305083 0.753148 0.616554 -0.016160
C11   C     C_R   0.832070 0.770624 0.481538 -0.072763
C12   C     C_R   0.799169 0.259064 0.618380 -0.013264
C13   C     C_R   0.310871 0.182561 0.493827 -0.144376
C14   C     C_R   0.330989 0.797323 0.498066 -0.164498
C15   C     C_R   0.810360 0.682202 0.493322 -0.184132
C16   C     C_R   0.829932 0.298519 0.499199 -0.160370
C17   C     C_R   0.221705 0.158015 0.484686 0.222577
C18   C     C_R   0.300968 0.763266 0.373292 0.192504
C19   C     C_R   0.721314 0.657610 0.481149 0.228026
C20   C     C_R   0.802279 0.262039 0.374875 0.205339
C21   C     C_R   0.656539 0.724213 0.490320 -0.230364
C22   C     C_R   0.734550 0.200632 0.375684 -0.296615
C23   C     C_R   0.157220 0.224817 0.493482 -0.234659
C24   C     C_R   0.233541 0.701534 0.374451 -0.287726
H1    H     H_    0.587248 0.707882 0.490756 0.132564
H2    H     H_    0.710851 0.176516 0.280629 0.171612
H3    H     H_    0.087937 0.208532 0.496179 0.132548
H4    H     H_    0.207423 0.679925 0.279355 0.173203
C25   C     C_R   0.682319 0.812073 0.500705 -0.116813
C26   C     C_R   0.696616 0.172726 0.497796 -0.109901
C27   C     C_R   0.183233 0.312780 0.500783 -0.108500
C28   C     C_R   0.198187 0.671114 0.497072 -0.096531
C29   C     C_R   0.768763 0.834954 0.478500 -0.041991
C30   C     C_R   0.734370 0.198981 0.616777 -0.060092
C31   C     C_R   0.269620 0.335371 0.476078 -0.048919
C32   C     C_R   0.240055 0.692880 0.615310 -0.049399
C33   C     C_3   0.826577 0.901548 0.541422 -0.071508
C34   C     C_3   0.716637 0.199141 0.764764 -0.030774
C35   C     C_3   0.328430 0.401611 0.537845 -0.019685
C36   C     C_3   0.220587 0.695787 0.762639 -0.033965
C37   C     C_3   0.400704 0.327337 0.542159 0.388163
C38   C     C_3   0.298750 0.760702 0.767850 0.390644
C39   C     C_3   0.899214 0.827835 0.544930 0.428867
C40   C     C_3   0.794738 0.264151 0.770263 0.392767
H5    H     H_    0.800019 0.922760 0.639961 0.139807
H6    H     H_    0.650215 0.226830 0.787224 0.150998
H7    H     H_    0.302227 0.423050 0.636417 0.144773
H8    H     H_    0.153985 0.724038 0.782178 0.160803
C41   C     C_R   0.446434 0.056825 0.068322 0.212185
C42   C     C_R   0.946411 0.556787 0.068323 0.211031
N1    N     N_R   0.499140 0.000000 0.142800 -0.120628
N2    N     N_R   0.999140 0.500000 0.142800 -0.121599
C43   C     C_R   0.561558 0.953435 0.076305 -0.168648
C44   C     C_R   0.061474 0.453336 0.076321 -0.168237
H9    H     H_    0.609967 0.915140 0.134234 0.170157
H10   H     H_    0.109796 0.414945 0.134277 0.169670
C45   C     C_R   0.564146 0.954954 0.933319 0.220962
C46   C     C_R   0.064002 0.454743 0.933344 0.218165
N3    N     N_R   0.499160 0.000000 0.857150 -0.112152
N4    N     N_R   0.999160 0.500000 0.857150 -0.110504
C47   C     C_R   0.446809 0.057304 0.926480 0.180791
C48   C     C_R   0.946860 0.557371 0.926440 0.187110
C49   C     C_3   0.349218 0.065318 0.920204 -0.515238
C50   C     C_3   0.849267 0.565085 0.920182 -0.524945
C51   C     C_3   0.348574 0.063849 0.073415 -0.506541
C52   C     C_3   0.848558 0.563439 0.073331 -0.504417
H11   H     H_    0.326391 0.129532 0.873915 0.220108
H12   H     H_    0.320955 0.006066 0.876826 0.236402
H13   H     H_    0.825994 0.629201 0.874296 0.203663
H14   H     H_    0.821454 0.505850 0.876236 0.242038
H15   H     H_    0.325490 0.127459 0.115846 0.207813
H16   H     H_    0.318335 0.003643 0.118829 0.218616
H17   H     H_    0.825311 0.626956 0.115872 0.208445
H18   H     H_    0.818510 0.503071 0.118543 0.218237
N5    N     N_2   0.196491 0.068599 0.467772 -0.313596
H19   H     H_    0.245281 0.021540 0.486344 0.218076
C53   C     C_3   0.149197 0.053941 0.343624 -0.805160
H20   H     H_    0.187943 0.078013 0.255629 0.244449
H21   H     H_    0.083862 0.088293 0.344118 0.248168
H22   H     H_    0.138407 0.982320 0.332272 0.238833
N6    N     N_2   0.336174 0.791381 0.246697 -0.276269
H23   H     H_    0.291869 0.791480 0.167629 0.206452
C54   C     C_3   0.419400 0.749008 0.213779 -0.730830
H24   H     H_    0.408894 0.679218 0.186496 0.218451
H25   H     H_    0.466323 0.750580 0.299878 0.234592
H26   H     H_    0.449385 0.785099 0.127423 0.246604
N7    N     N_2   0.696462 0.568495 0.460418 -0.312623
H27   H     H_    0.745229 0.521252 0.478005 0.217154
C55   C     C_3   0.650018 0.555821 0.334876 -0.810214
H28   H     H_    0.689635 0.580662 0.248379 0.246037
H29   H     H_    0.585007 0.590788 0.334886 0.244838
H30   H     H_    0.638629 0.484541 0.321176 0.237361
N8    N     N_2   0.840237 0.287514 0.248932 -0.277015
H31   H     H_    0.797750 0.286093 0.167715 0.207357
C56   C     C_3   0.924440 0.245068 0.222203 -0.731433
H32   H     H_    0.914761 0.175378 0.193705 0.219767
H33   H     H_    0.968589 0.246503 0.311654 0.230720
H34   H     H_    0.957232 0.281240 0.138457 0.245166
N9    N     N_2   0.843340 0.975012 0.448285 -0.297212
H35   H     H_    0.786840 0.000740 0.402844 0.242151
C57   C     C_3   0.897834 0.043311 0.501545 -0.792653
H36   H     H_    0.907585 0.095813 0.423211 0.246511
H37   H     H_    0.963339 0.016325 0.531384 0.259701
H38   H     H_    0.866166 0.072777 0.590559 0.227931
N10   N     N_2   0.731549 0.113330 0.831178 -0.280231
H39   H     H_    0.781376 0.073459 0.794667 0.212514
C58   C     C_3   0.723060 0.112363 0.976462 -0.786458
H40   H     H_    0.733071 0.043975 0.017537 0.237898
H41   H     H_    0.656183 0.136268 0.005224 0.239718
H42   H     H_    0.773289 0.154675 0.022269 0.244907
N11   N     N_2   0.343952 0.475611 0.444909 -0.293869
H43   H     H_    0.352301 0.461695 0.344515 0.226118
C59   C     C_3   0.399250 0.544480 0.494249 -0.786206
H44   H     H_    0.392243 0.604008 0.427562 0.251804
H45   H     H_    0.469182 0.523368 0.492951 0.249694
H46   H     H_    0.380294 0.562099 0.598146 0.232719
N12   N     N_2   0.234379 0.610896 0.832317 -0.282095
H47   H     H_    0.284045 0.569905 0.798012 0.211576
C60   C     C_3   0.224210 0.611953 0.977241 -0.787076
H48   H     H_    0.233352 0.544020 0.020610 0.236781
H49   H     H_    0.157113 0.636601 0.003418 0.241286
H50   H     H_    0.274093 0.654700 0.022973 0.244910
N13   N     N_2   0.475257 0.336879 0.450078 -0.304602
H51   H     H_    0.462605 0.360651 0.353507 0.217632
C61   C     C_3   0.562654 0.352578 0.500933 -0.802584
H52   H     H_    0.611016 0.346066 0.418096 0.238344
H53   H     H_    0.581005 0.302818 0.579858 0.249190
H54   H     H_    0.566876 0.419553 0.541754 0.255767
N14   N     N_2   0.376678 0.722868 0.836868 -0.324550
H55   H     H_    0.394184 0.659713 0.809485 0.214676
C62   C     C_3   0.453599 0.776913 0.841665 -0.757135
H56   H     H_    0.503360 0.744592 0.909891 0.214941
H57   H     H_    0.436053 0.842322 0.881822 0.268331
H58   H     H_    0.483293 0.783382 0.739951 0.254310
N15   N     N_2   0.972581 0.838966 0.451237 -0.285438
H59   H     H_    0.959299 0.869446 0.358951 0.242436
C63   C     C_3   0.061458 0.847335 0.500410 -0.788816
H60   H     H_    0.108195 0.837379 0.416311 0.230399
H61   H     H_    0.076385 0.796373 0.579667 0.265365
H62   H     H_    0.071095 0.914121 0.539675 0.249242
N16   N     N_2   0.873279 0.225223 0.836297 -0.323374
H63   H     H_    0.892016 0.163738 0.802956 0.214066
C64   C     C_3   0.949100 0.280149 0.849221 -0.752070
H64   H     H_    0.998372 0.245829 0.916044 0.214522
H65   H     H_    0.930120 0.343551 0.895028 0.263847
H66   H     H_    0.980400 0.290746 0.749521 0.258361
N17   N     N_2   0.424263 0.294385 0.677660 -0.296503
H67   H     H_    0.464733 0.238903 0.681702 0.249122
C65   C     C_3   0.442168 0.358211 0.780126 -0.851128
H68   H     H_    0.483947 0.326943 0.861048 0.232556
H69   H     H_    0.379442 0.380353 0.826915 0.241566
H70   H     H_    0.476582 0.416518 0.737016 0.257470
N18   N     N_2   0.273251 0.847935 0.816797 -0.284373
H71   H     H_    0.268578 0.849103 0.920419 0.219872
C66   C     C_3   0.202170 0.897662 0.749731 -0.854925
H72   H     H_    0.137935 0.867568 0.772293 0.234403
H73   H     H_    0.213344 0.902389 0.639766 0.257242
H74   H     H_    0.197890 0.965885 0.787081 0.243913
N19   N     N_2   0.924832 0.796193 0.680661 -0.293733
H75   H     H_    0.886865 0.746753 0.722258 0.227928
C67   C     C_3   0.946634 0.861681 0.778706 -0.851826
H76   H     H_    0.989289 0.830299 0.858245 0.242593
H77   H     H_    0.885763 0.887112 0.827465 0.229583
H78   H     H_    0.982058 0.917910 0.731651 0.260649
N20   N     N_2   0.769250 0.350275 0.823239 -0.287480
H79   H     H_    0.763714 0.349107 0.926849 0.219107
C68   C     C_3   0.698913 0.401796 0.757334 -0.856854
H80   H     H_    0.634605 0.370377 0.773890 0.232955
H81   H     H_    0.712388 0.411070 0.648401 0.260901
H82   H     H_    0.692902 0.468132 0.801274 0.242612
C69   C     C_3   0.641648 0.907613 0.872439 -0.828689
H83   H     H_    0.621222 0.844948 0.828028 0.247539
H84   H     H_    0.675055 0.951920 0.799264 0.272334
H85   H     H_    0.692489 0.888586 0.949226 0.185715
C70   C     C_3   0.141217 0.406872 0.872566 -0.821308
H86   H     H_    0.120315 0.344332 0.828205 0.246873
H87   H     H_    0.175033 0.450913 0.799463 0.271923
H88   H     H_    0.191911 0.387516 0.949415 0.184992

loop_
_geom_bond_atom_site_label_1
_geom_bond_atom_site_label_2
_geom_bond_distance
_ccdc_geom_bond_type
C49   H11   1.111824 S    
Zn1   N3    2.024580 S    
C63   H60   1.107948 S    
C38   N14   1.463574 S    
C31   C35   1.496812 S    
N15   C63   1.441567 S    
N2    C44   1.352909 A    
C43   H9    1.080909 S    
C65   H68   1.111364 S    
Zn4   O16   1.972384 S    
C15   C19   1.413616 A    
C64   H64   1.109684 S    
O10   C6    1.285066 A    
C61   H54   1.104190 S    
C58   H41   1.111001 S    
C53   H20   1.110879 S    
C51   H15   1.111541 S    
C66   H73   1.105324 S    
N18   H71   1.031478 S    
O7    C3    1.289922 A    
N12   C60   1.447236 S    
C35   N11   1.453880 S    
N6    H23   1.031677 S    
C44   H10   1.080901 S    
Zn1   O10   1.988446 S    
C12   C16   1.395595 A    
C3    C16   1.444391 S    
C64   H65   1.105913 S    
C50   C52   1.519301 S    
C18   N6    1.423809 S    
N14   C62   1.438945 S    
C61   H52   1.108312 S    
C8    C27   1.393577 S    
C46   N4    1.396257 A    
N20   C68   1.452494 S    
N13   H51   1.030531 S    
C9    C13   1.385570 A    
C39   N19   1.465954 S    
C17   N5    1.426781 S    
C36   C38   1.555596 S    
C22   H2    1.083535 S    
C62   H58   1.108993 S    
C21   C25   1.398931 A    
C41   N1    1.363770 A    
O2    Zn1   1.972591 S    
C5    C26   1.422210 S    
C57   H38   1.106828 S    
C52   H18   1.112476 S    
N16   C64   1.439202 S    
O6    Zn3   1.988757 S    
C37   N13   1.462581 S    
Zn3   O14   1.972384 S    
N5    H19   1.029645 S    
C56   H33   1.111443 S    
Zn4   N2    2.025007 S    
C59   H46   1.109149 S    
N7    H27   1.029771 S    
C33   C39   1.551990 S    
O15   C7    1.291537 A    
O4    C4    1.286958 A    
O11   C7    1.289608 A    
O12   C8    1.285265 A    
C40   N20   1.463518 S    
C36   N12   1.452940 S    
C33   N9    1.452482 S    
C70   H88   1.111117 S    
C35   H7    1.110976 S    
C24   C28   1.400801 A    
N9    C57   1.445784 S    
C49   H12   1.098732 S    
C62   H56   1.109994 S    
O8    Zn4   1.988757 S    
C6    C25   1.392417 S    
C65   H69   1.109759 S    
C50   H14   1.098113 S    
C12   C30   1.351840 A    
C47   C49   1.483949 S    
C51   H16   1.112479 S    
C34   H6    1.109152 S    
C18   C24   1.398008 A    
N16   H63   1.030666 S    
C66   H74   1.106757 S    
N18   C66   1.452154 S    
C34   C40   1.555935 S    
C9    C37   1.495291 S    
C35   C37   1.554191 S    
C68   H81   1.106305 S    
C10   C14   1.397501 A    
C69   H83   1.105466 S    
C68   H82   1.107150 S    
Zn2   O12   1.988446 S    
C16   C20   1.430289 A    
C64   H66   1.107538 S    
O1    C1    1.302379 A    
C12   C40   1.512805 S    
N17   C65   1.449785 S    
C53   H21   1.110168 S    
C67   H77   1.110585 S    
N17   H67   1.030007 S    
N3    C47   1.365308 A    
C29   C33   1.496348 S    
C2    C13   1.403791 S    
C9    C31   1.356638 A    
C67   H76   1.109921 S    
C38   N18   1.463842 S    
C10   C32   1.356227 A    
C13   C17   1.412784 A    
C32   C36   1.493900 S    
N8    C56   1.446842 S    
C37   N17   1.462204 S    
C45   C69   1.501549 S    
C17   C23   1.397347 A    
C19   N7    1.426779 S    
C69   H84   1.105289 S    
O5    C1    1.289331 A    
N7    C55   1.448656 S    
C52   H17   1.111494 S    
C11   C39   1.497392 S    
C20   N8    1.424047 S    
C56   H32   1.111173 S    
O8    C4    1.283074 A    
C56   H34   1.106908 S    
C45   N3    1.396170 A    
C54   H25   1.111594 S    
C26   C30   1.382177 A    
C11   C29   1.353534 A    
C4    C15   1.405124 S    
N10   C58   1.447447 S    
C36   H8    1.108931 S    
C57   H36   1.108246 S    
O3    Zn2   2.024194 S    
C22   C26   1.400951 A    
C41   C47   1.407352 A    
N4    C48   1.365300 A    
O7    Zn4   2.011457 S    
C49   C51   1.519939 S    
Zn4   O15   2.023981 S    
Zn2   N4    2.024580 S    
C10   C38   1.511932 S    
C44   C46   1.418979 A    
N10   H39   1.030528 S    
C65   H70   1.109804 S    
C11   C15   1.385499 A    
C55   H30   1.107178 S    
O1    Zn1   2.024195 S    
C50   H13   1.111012 S    
C58   H40   1.108974 S    
C42   C52   1.486822 S    
N15   H59   1.031583 S    
C53   H22   1.107477 S    
C41   C51   1.487243 S    
C7    C28   1.425254 S    
N1    C43   1.353082 A    
N8    H31   1.031531 S    
C30   C34   1.493670 S    
C67   H78   1.107884 S    
N13   C61   1.443491 S    
O13   C5    1.291627 A    
C21   H1    1.084310 S    
C14   C18   1.430597 A    
Zn2   O11   2.011138 S    
O16   C8    1.280837 A    
C33   H5    1.111550 S    
C40   N16   1.463956 S    
N11   C59   1.444924 S    
O6    C2    1.283381 A    
C60   H48   1.109211 S    
N5    C53   1.448385 S    
N19   H75   1.030687 S    
C63   H62   1.104785 S    
Zn3   N1    2.025007 S    
N12   H47   1.030880 S    
C48   C50   1.483709 S    
N6    C54   1.446944 S    
Zn1   O9    2.011138 S    
O9    C5    1.288273 A    
C55   H29   1.110001 S    
C58   H42   1.108867 S    
C39   N15   1.461288 S    
C68   H80   1.104001 S    
C66   H72   1.104259 S    
C55   H28   1.110330 S    
C60   H49   1.111019 S    
C23   C27   1.398783 A    
N20   H79   1.031470 S    
C59   H44   1.106059 S    
C25   C29   1.379325 A    
C61   H53   1.102701 S    
C20   C22   1.398101 A    
C60   H50   1.108883 S    
C1    C14   1.448517 S    
C54   H26   1.106935 S    
C27   C31   1.381423 A    
C46   C70   1.501572 S    
C62   H57   1.104724 S    
O4    Zn2   1.972591 S    
N11   H43   1.031439 S    
C42   C48   1.407735 A    
O5    Zn3   2.011457 S    
C57   H37   1.103535 S    
O3    C3    1.300123 A    
C70   H86   1.105773 S    
C24   H4    1.083552 S    
Zn3   O13   2.023981 S    
C19   C21   1.398541 A    
C34   N10   1.453079 S    
C63   H61   1.106002 S    
N9    H35   1.031880 S    
O14   C6    1.280475 A    
C54   H24   1.111257 S    
C59   H45   1.102100 S    
C43   C45   1.419076 A    
C42   N2    1.363617 A    
N19   C67   1.449368 S    
N14   H55   1.030376 S    
C23   H3    1.084260 S    
C69   H85   1.111095 S    
C28   C32   1.383303 A    
C70   H87   1.105364 S    
O2    C2    1.285975 A    
