data_mof_unit_46401.cif
_audit_creation_date              2012-10-26T17:13:04-0400
_audit_creation_method            fapswitch 2.2
_symmetry_space_group_name_H-M    P1
_symmetry_Int_Tables_number       1
_space_group_crystal_system       triclinic
_cell_length_a                    16.809821
_cell_length_b                    16.77168
_cell_length_c                    16.810483
_cell_angle_alpha                 67.922908
_cell_angle_beta                  67.585803
_cell_angle_gamma                 67.922993
_cell_volume                      3907.62759632

loop_
_atom_site_label
_atom_site_type_symbol
_atom_type_description
_atom_site_fract_x
_atom_site_fract_y
_atom_site_fract_z
_atom_type_partial_charge
C1    C     C_R   0.320905 0.960880 0.452215 -0.036858
C2    C     C_R   0.301366 0.432794 0.024648 -0.035719
C3    C     C_R   0.520687 0.392376 0.061862 0.028198
C4    C     C_R   0.068765 0.440779 0.569752 0.027245
C5    C     C_R   0.057319 0.523105 0.394046 0.028566
C6    C     C_R   0.065889 0.673567 0.542830 -0.036552
C7    C     C_R   0.028660 0.300382 0.430047 -0.037568
C8    C     C_R   0.453778 0.988298 0.453779 0.006730
C9    C     C_R   0.541552 0.029851 0.541567 0.006240
C10   C     C_R   0.050517 0.435091 0.434683 0.008000
C11   C     C_R   0.066263 0.531689 0.532025 0.007360
C12   C     C_R   0.434675 0.435075 0.050543 0.007999
C13   C     C_R   0.532020 0.531679 0.066279 0.007359
C14   C     C_R   0.031859 0.827855 0.563526 0.566898
C15   C     C_R   0.676855 0.050333 0.545499 -0.034125
C16   C     C_R   0.984501 0.169127 0.431509 0.584585
C17   C     C_R   0.827800 0.563367 0.032255 0.578441
C18   C     C_R   0.169502 0.431869 0.983431 0.574269
C19   C     C_R   0.563770 0.030987 0.827904 0.582329
C20   C     C_R   0.435831 0.970499 0.172063 0.559593
C21   C     C_R   0.431506 0.169125 0.984507 0.584599
C22   C     C_R   0.563526 0.827854 0.031860 0.566923
C23   C     C_R   0.983432 0.431869 0.169501 0.574262
C24   C     C_R   0.032248 0.563369 0.827800 0.578451
C25   C     C_R   0.172065 0.970487 0.435835 0.559549
C26   C     C_R   0.024636 0.432802 0.301372 -0.035714
C27   C     C_R   0.827902 0.030989 0.563770 0.582290
C28   C     C_R   0.408737 0.970089 0.408732 0.012644
C29   C     C_R   0.588030 0.043907 0.588046 0.013831
C30   C     C_R   0.033134 0.389808 0.389174 0.014851
C31   C     C_R   0.066086 0.582545 0.583128 0.016175
C32   C     C_R   0.389167 0.389794 0.033156 0.014847
C33   C     C_R   0.583124 0.582538 0.066095 0.016174
C34   C     C_R   0.271895 0.953089 0.403104 -0.002729
C35   C     C_R   0.727685 0.051885 0.596270 -0.004656
C36   C     C_R   0.991798 0.392566 0.262362 -0.001210
C37   C     C_R   0.066540 0.541802 0.673672 -0.035057
C38   C     C_R   0.056552 0.595735 0.727365 -0.005179
C39   C     C_R   0.391474 0.261792 0.993690 -0.002051
C40   C     C_R   0.596214 0.727337 0.056174 -0.007641
C41   C     C_R   0.596263 0.051875 0.727695 -0.004643
C42   C     C_R   0.403100 0.953118 0.271884 -0.002712
C43   C     C_R   0.727363 0.595729 0.056566 -0.005180
C44   C     C_R   0.262361 0.392563 0.991802 -0.001210
C45   C     C_R   0.056171 0.727340 0.596215 -0.007645
C46   C     C_R   0.993678 0.261799 0.391478 -0.002049
C47   C     C_R   0.452634 0.056639 0.710753 -0.096606
C48   C     C_R   0.430039 0.300368 0.028684 -0.037573
C49   C     C_R   0.544388 0.958088 0.286302 -0.105005
C50   C     C_R   0.080663 0.706110 0.448916 -0.098788
C51   C     C_R   0.059228 0.254416 0.508139 -0.105641
C52   C     C_R   0.705215 0.447285 0.082743 -0.097029
C53   C     C_R   0.257439 0.514671 0.049189 -0.108324
C54   C     C_R   0.286352 0.957935 0.544412 -0.104980
C55   C     C_R   0.710714 0.056729 0.452639 -0.096605
C56   C     C_R   0.508126 0.254397 0.059265 -0.105643
C57   C     C_R   0.448911 0.706112 0.080647 -0.098793
C58   C     C_R   0.049180 0.514678 0.257449 -0.108319
C59   C     C_R   0.542827 0.673565 0.065885 -0.036551
C60   C     C_R   0.082711 0.447297 0.705219 -0.097035
C61   C     C_R   0.317339 0.939255 0.317335 0.196129
C62   C     C_R   0.683188 0.063249 0.683195 0.194909
C63   C     C_R   0.966418 0.313367 0.313610 0.193330
C64   C     C_R   0.063358 0.684561 0.684581 0.198547
C65   C     C_R   0.313610 0.313365 0.966422 0.193327
C66   C     C_R   0.684576 0.684553 0.063372 0.198538
C67   C     C_R   0.668775 0.034753 0.409527 0.015532
C68   C     C_R   0.326406 0.984339 0.585643 0.011365
C69   C     C_R   0.081319 0.397470 0.655168 0.016826
C70   C     C_R   0.545489 0.050301 0.676878 -0.034113
C71   C     C_R   0.059303 0.561956 0.304063 0.017000
C72   C     C_R   0.399934 0.657967 0.075552 0.017517
C73   C     C_R   0.556093 0.300575 0.069866 0.017278
C74   C     C_R   0.585596 0.984513 0.326357 0.011340
C75   C     C_R   0.409544 0.034616 0.668829 0.015508
C76   C     C_R   0.304053 0.561948 0.059311 0.016994
C77   C     C_R   0.655160 0.397454 0.081362 0.016827
C78   C     C_R   0.069820 0.300596 0.556105 0.017267
C79   C     C_R   0.075560 0.657968 0.399940 0.017519
C80   C     C_R   0.711641 0.024650 0.322746 -0.120634
C81   C     C_R   0.452207 0.960943 0.320881 -0.036845
C82   C     C_R   0.282637 0.996651 0.671579 -0.125160
C83   C     C_R   0.092897 0.304664 0.688844 -0.113434
C84   C     C_R   0.071086 0.648170 0.261645 -0.119541
C85   C     C_R   0.308946 0.695530 0.080096 -0.113550
C86   C     C_R   0.639358 0.256445 0.087970 -0.115860
C87   C     C_R   0.671503 0.996907 0.282567 -0.125183
C88   C     C_R   0.322795 0.024418 0.711720 -0.120657
C89   C     C_R   0.261634 0.648167 0.071080 -0.119551
C90   C     C_R   0.688829 0.304643 0.092958 -0.113434
C91   C     C_R   0.087908 0.256469 0.639375 -0.115862
C92   C     C_R   0.673669 0.541794 0.066557 -0.035055
C93   C     C_R   0.080112 0.695529 0.308954 -0.113544
C94   C     C_R   0.540532 0.998906 0.411079 0.027637
C95   C     C_R   0.454297 0.020677 0.583780 0.027375
C96   C     C_R   0.061826 0.392394 0.520696 0.028199
C97   C     C_R   0.065389 0.571265 0.442346 0.027159
C98   C     C_R   0.394037 0.523094 0.057335 0.028567
C99   C     C_R   0.569745 0.440763 0.068797 0.027243
C100  C     C_R   0.583746 0.020755 0.454289 0.027380
C101  C     C_R   0.411098 0.998818 0.540562 0.027628
C102  C     C_R   0.442339 0.571257 0.065397 0.027162
Cl1   Cl    Cl    0.271827 0.891952 0.271824 -0.594916
Cl2   Cl    Cl    0.731356 0.105087 0.731356 -0.526805
Cl3   Cl    Cl    0.890034 0.284816 0.286165 -0.573866
Cl4   Cl    Cl    0.097968 0.736502 0.735753 -0.548742
Cl5   Cl    Cl    0.286171 0.284823 0.890030 -0.573833
Cl6   Cl    Cl    0.735738 0.736484 0.098017 -0.548695
Cu1   Cu    Cu3+1 0.995180 0.995180 0.424630 1.017707
Cu2   Cu    Cu3+1 0.004820 0.004820 0.575370 1.042522
Cu3   Cu    Cu3+1 0.995180 0.424630 0.995180 1.015123
Cu4   Cu    Cu3+1 0.004820 0.575370 0.004820 1.050640
Cu5   Cu    Cu3+1 0.424630 0.995180 0.995180 1.017688
Cu6   Cu    Cu3+1 0.575370 0.004820 0.004820 1.042525
H1    H     H_    0.287364 0.034748 0.777584 0.116778
H2    H     H_    0.275026 0.762358 0.088158 0.125151
H3    H     H_    0.070583 0.680017 0.192647 0.100946
H4    H     H_    0.104541 0.269558 0.753916 0.125427
H5    H     H_    0.410926 0.081088 0.768269 0.170379
H6    H     H_    0.587965 0.931340 0.230707 0.173105
H7    H     H_    0.099919 0.767190 0.411204 0.173382
H8    H     H_    0.077133 0.182873 0.533418 0.151557
H9    H     H_    0.766674 0.410001 0.100809 0.171388
H10   H     H_    0.186983 0.544587 0.063092 0.139940
H11   H     H_    0.230769 0.931149 0.587961 0.173088
H12   H     H_    0.706754 0.987086 0.216486 0.116408
H13   H     H_    0.768233 0.081182 0.410948 0.170378
H14   H     H_    0.533396 0.182852 0.077172 0.151534
H15   H     H_    0.411198 0.767195 0.099895 0.173382
H16   H     H_    0.063089 0.544586 0.186994 0.139935
H17   H     H_    0.100772 0.410008 0.766677 0.171389
H18   H     H_    0.088189 0.762350 0.275033 0.125168
H19   H     H_    0.095785 0.185167 0.667343 0.109965
H20   H     H_    0.753897 0.269534 0.104615 0.125428
H21   H     H_    0.192634 0.680016 0.070570 0.100938
H22   H     H_    0.216582 0.986757 0.706848 0.116489
H23   H     H_    0.777487 0.035032 0.287307 0.116796
H24   H     H_    0.667324 0.185141 0.095859 0.109936
O1    O     O_R   0.124540 0.978640 0.385460 -0.448271
O2    O     O_R   0.124540 0.385460 0.978640 -0.454324
O3    O     O_R   0.021360 0.875460 0.614540 -0.436652
O4    O     O_R   0.978640 0.124540 0.385460 -0.447986
O5    O     O_R   0.013780 0.867370 0.487190 -0.536618
O6    O     O_R   0.986220 0.132630 0.512810 -0.531327
O7    O     O_R   0.867370 0.487190 0.013780 -0.535068
O8    O     O_R   0.132630 0.512810 0.986220 -0.544228
O9    O     O_R   0.487190 0.013780 0.867370 -0.536849
O10   O     O_R   0.512810 0.986220 0.132630 -0.557697
O11   O     O_R   0.512810 0.132630 0.986220 -0.531323
O12   O     O_R   0.875460 0.021360 0.614540 -0.429132
O13   O     O_R   0.487190 0.867370 0.013780 -0.536628
O14   O     O_R   0.986220 0.512810 0.132630 -0.544226
O15   O     O_R   0.013780 0.487190 0.867370 -0.535075
O16   O     O_R   0.132630 0.986220 0.512810 -0.557662
O17   O     O_R   0.867370 0.013780 0.487190 -0.536824
O18   O     O_R   0.978640 0.385460 0.124540 -0.454323
O19   O     O_R   0.021360 0.614540 0.875460 -0.428320
O20   O     O_R   0.385460 0.124540 0.978640 -0.447992
O21   O     O_R   0.614540 0.875460 0.021360 -0.436656
O22   O     O_R   0.614540 0.021360 0.875460 -0.429139
O23   O     O_R   0.385460 0.978640 0.124540 -0.448275
O24   O     O_R   0.875460 0.614540 0.021360 -0.428336

loop_
_geom_bond_atom_site_label_1
_geom_bond_atom_site_label_2
_ccdc_geom_bond_type
Cu1   O17   S    
C23   O14   A    
C89   H21   S    
C6    C45   A    
C61   Cl1   S    
C39   C65   A    
C21   O20   A    
Cu5   O13   S    
C17   O7    A    
Cu3   Cu4   S    
C50   C79   A    
C72   C85   A    
C75   C95   A    
C42   C81   A    
C69   C83   A    
C19   O22   A    
C83   H4    S    
C57   H15   S    
C25   O1    A    
C79   C93   A    
C80   C87   A    
Cu3   O7    S    
C90   H20   S    
C52   H9    S    
C58   C71   A    
C57   C59   A    
C49   H6    S    
C54   C68   A    
C22   O21   A    
C76   C98   A    
C80   H23   S    
C2    C32   A    
C49   C81   A    
C74   C94   A    
C3    C12   A    
C4    C96   A    
C78   C96   A    
C84   H3    S    
C91   H19   S    
Cu3   O2    S    
C1    C28   A    
C24   C38   S    
C20   O10   A    
Cu1   O4    S    
C10   C96   A    
Cu5   O20   S    
C63   Cl3   S    
C36   C63   A    
Cu3   O18   S    
C9    C95   A    
C12   C98   A    
C9    C29   A    
C25   C34   S    
C66   Cl6   S    
C47   H5    S    
C6    C31   A    
C25   O16   A    
C14   O3    A    
C11   C31   A    
C33   C59   A    
C7    C30   A    
C40   C66   A    
C23   O18   A    
C12   C32   A    
C32   C48   A    
C44   C65   A    
C50   H7    S    
C41   C62   A    
Cu2   O12   S    
C60   H17   S    
C15   C35   A    
C4    C69   A    
C1    C34   A    
C15   C29   A    
C14   C45   S    
C38   C64   A    
Cu2   O6    S    
C27   O17   A    
Cu6   O21   S    
C54   H11   S    
C77   C90   A    
Cu4   O19   S    
C7    C46   A    
C8    C94   A    
C68   C101  A    
Cu5   Cu6   S    
C86   C90   A    
C33   C92   A    
C2    C44   A    
C85   C89   A    
C24   O19   A    
C27   C35   S    
C98   C102  A    
C2    C53   A    
C62   Cl2   S    
C19   O9    A    
C31   C37   A    
C15   C55   A    
C13   C99   A    
Cu2   O3    S    
C16   O4    A    
C1    C54   A    
C17   C43   S    
C47   C70   A    
C13   C33   A    
C37   C38   A    
Cu2   O16   S    
C18   C44   S    
Cu3   O15   S    
C10   C30   A    
C55   C67   A    
C21   C39   S    
C94   C100  A    
C22   C40   S    
C71   C84   A    
Cu4   O14   S    
Cu1   O5    S    
C6    C50   A    
C4    C11   A    
C18   O2    A    
C26   C58   A    
C42   C61   A    
Cu6   O22   S    
C67   C100  A    
C26   C36   A    
C5    C97   A    
C26   C30   A    
C27   O12   A    
C21   O11   A    
C47   C75   A    
C74   C87   A    
C52   C92   A    
C53   C76   A    
C16   C46   S    
C52   C77   A    
C93   H18   S    
Cu4   O24   S    
C24   O15   A    
C29   C70   A    
C8    C101  A    
C48   C56   A    
C22   O13   A    
C56   C73   A    
C16   O6    A    
C28   C81   A    
C79   C97   A    
C85   H2    S    
C67   C80   A    
C55   H13   S    
C18   O8    A    
C53   H10   S    
C20   C42   S    
C64   Cl4   S    
C78   C91   A    
C9    C100  A    
C83   C91   A    
C76   C89   A    
C45   C64   A    
C95   C101  A    
C43   C92   A    
Cu1   O1    S    
C46   C63   A    
C11   C97   A    
C68   C82   A    
Cu5   O9    S    
C88   H1    S    
C14   O5    A    
C51   C78   A    
C7    C51   A    
C5    C10   A    
C5    C71   A    
Cu1   Cu2   S    
C72   C102  A    
C60   C69   A    
C58   H16   S    
C43   C66   A    
C82   C88   A    
C20   O23   A    
Cu4   O8    S    
C77   C99   A    
C35   C62   A    
C84   C93   A    
C56   H14   S    
C57   C72   A    
C82   H22   S    
C3    C73   A    
C73   C86   A    
Cu6   O10   S    
C37   C60   A    
C17   O24   A    
C86   H24   S    
Cu5   O23   S    
C3    C99   A    
C75   C88   A    
C8    C28   A    
C23   C36   S    
C34   C61   A    
C40   C59   A    
C51   H8    S    
C49   C74   A    
C41   C70   A    
Cu6   O11   S    
C13   C102  A    
C65   Cl5   S    
C87   H12   S    
C19   C41   S    
C39   C48   A    
