data_mof_unit_38635.cif
_audit_creation_date              2012-12-10T18:44:28-0500
_audit_creation_method            fapswitch 2.2
_symmetry_space_group_name_H-M    P1
_symmetry_Int_Tables_number       1
_space_group_crystal_system       triclinic
_cell_length_a                    12.907718
_cell_length_b                    10.720582
_cell_length_c                    9.828735
_cell_angle_alpha                 89.995721
_cell_angle_beta                  97.115089
_cell_angle_gamma                 90.118081
_cell_volume                      1349.60673261

loop_
_atom_site_label
_atom_site_type_symbol
_atom_type_description
_atom_site_fract_x
_atom_site_fract_y
_atom_site_fract_z
_atom_type_partial_charge
C1    C     C_R   0.499938 0.259836 0.499949 0.869669
C2    C     C_R   0.701869 0.500776 0.526789 0.903306
C3    C     C_R   0.813875 0.500062 0.543086 -0.113784
C4    C     C_R   0.186125 0.499938 0.456914 -0.113784
C5    C     C_R   0.021728 0.536592 0.318014 0.217475
C6    C     C_R   0.978272 0.463408 0.681986 0.217475
C7    C     C_R   0.129805 0.528375 0.330446 -0.203763
C8    C     C_R   0.870195 0.471625 0.669554 -0.203763
C9    C     C_R   0.136230 0.476156 0.571687 -0.276331
C10   C     C_R   0.863770 0.523844 0.428313 -0.276331
C11   C     C_R   0.028953 0.484535 0.564128 0.117198
C12   C     C_R   0.500062 0.740164 0.500051 0.869668
C13   C     C_R   0.971047 0.515465 0.435872 0.117198
C14   C     C_R   0.482348 0.063836 0.375150 -0.192757
C15   C     C_R   0.517652 0.936164 0.624850 -0.192757
C16   C     C_R   0.482442 0.936060 0.375177 -0.195284
C17   C     C_R   0.517558 0.063940 0.624823 -0.195284
C18   C     C_3   0.963347 0.568724 0.179568 -0.961130
C19   C     C_3   0.036653 0.431276 0.820432 -0.961130
C20   C     C_R   0.500071 0.872592 0.500028 -0.012908
C21   C     C_R   0.499929 0.127408 0.499972 -0.012908
C22   C     C_R   0.568430 0.573280 0.083052 -0.072412
C23   C     C_R   0.431570 0.426720 0.916948 -0.072412
C24   C     C_R   0.568407 0.573230 0.939067 -0.080184
C25   C     C_R   0.431593 0.426770 0.060933 -0.080184
C26   C     C_R   0.298131 0.499224 0.473211 0.903306
H1    H     H_    0.817840 0.547935 0.332349 0.181875
H2    H     H_    0.376904 0.368141 0.853484 0.124897
H3    H     H_    0.623040 0.631741 0.893237 0.125108
H4    H     H_    0.376959 0.368259 0.106763 0.125108
H5    H     H_    0.016926 0.582024 0.100575 0.247737
H6    H     H_    0.908404 0.492194 0.144248 0.242643
H7    H     H_    0.919439 0.656967 0.186611 0.242760
H8    H     H_    0.983074 0.417976 0.899425 0.247737
H9    H     H_    0.080561 0.343033 0.813389 0.242760
H10   H     H_    0.091596 0.507806 0.855752 0.242643
H11   H     H_    0.182159 0.452065 0.667651 0.181875
H12   H     H_    0.829724 0.453640 0.757862 0.164800
H13   H     H_    0.170276 0.546360 0.242138 0.164800
H14   H     H_    0.468003 0.112411 0.277973 0.155098
H15   H     H_    0.531997 0.887588 0.722027 0.155098
H16   H     H_    0.468181 0.887403 0.278012 0.157891
H17   H     H_    0.531819 0.112597 0.721988 0.157891
H18   H     H_    0.623095 0.631858 0.146516 0.124897
N1    N     N_R   0.499970 0.499970 0.857200 -0.079791
N2    N     N_R   0.500030 0.500030 0.142800 -0.079791
O1    O     O_R   0.499990 0.316750 0.614620 -0.629119
O2    O     O_R   0.500010 0.683250 0.385380 -0.629119
O3    O     O_R   0.499990 0.316780 0.385290 -0.625344
O4    O     O_R   0.500010 0.683220 0.614710 -0.625344
O5    O     O_R   0.346360 0.499970 0.595710 -0.624621
O6    O     O_R   0.653640 0.500030 0.404290 -0.624621
O7    O     O_R   0.346360 0.499990 0.366380 -0.628265
O8    O     O_R   0.653640 0.500010 0.633620 -0.628265
Zn1   Zn    Zn3+2 0.500000 0.499980 0.653120 0.945236
Zn2   Zn    Zn3+2 0.500000 0.500020 0.346880 0.945235

loop_
_geom_bond_atom_site_label_1
_geom_bond_atom_site_label_2
_ccdc_geom_bond_type
C10   H1    S    
C4    C26   S    
C17   H17   S    
C1    C21   S    
C23   N1    A    
O3    Zn2   S    
C11   C13   A    
C5    C13   A    
O4    Zn1   S    
C16   C20   A    
C12   O2    A    
C12   C20   S    
C22   C24   A    
C9    H11   S    
C2    C3    S    
C5    C7    A    
C3    C10   A    
C19   H9    S    
C23   H2    S    
C6    C19   S    
C9    C11   A    
C15   H15   S    
C2    O6    A    
C5    C18   S    
C4    C7    A    
C24   N1    A    
C14   C21   A    
O1    Zn1   S    
C22   N2    A    
O5    Zn1   S    
C19   H10   S    
C8    H12   S    
C15   C20   A    
C18   H7    S    
C14   C16   A    
C26   O5    A    
C18   H6    S    
C14   H14   S    
C26   O7    A    
C16   H16   S    
C25   H4    S    
C23   C25   A    
N1    Zn1   S    
C15   C17   A    
C3    C8    A    
C2    O8    A    
O7    Zn2   S    
N2    Zn2   S    
C6    C11   A    
O2    Zn2   S    
C7    H13   S    
O8    Zn1   S    
C1    O1    A    
C6    C8    A    
C18   H5    S    
C4    C9    A    
C24   H3    S    
C1    O3    A    
C25   N2    A    
C10   C13   A    
C22   H18   S    
O6    Zn2   S    
C12   O4    A    
C19   H8    S    
C17   C21   A    
