data_mof_unit_26949.cif
_audit_creation_date              2013-03-05T16:19:44-0500
_audit_creation_method            fapswitch 2.2
_symmetry_space_group_name_H-M    P1
_symmetry_Int_Tables_number       1
_space_group_crystal_system       triclinic
_cell_length_a                    10.739392
_cell_length_b                    9.945975
_cell_length_c                    27.20253
_cell_angle_alpha                 89.703131
_cell_angle_beta                  90.206092
_cell_angle_gamma                 89.353644
_cell_volume                      2905.36024278

loop_
_atom_site_label
_atom_site_type_symbol
_atom_site_description
_atom_site_fract_x
_atom_site_fract_y
_atom_site_fract_z
_atom_type_partial_charge
O1    O     O_R   0.314910 0.616040 0.499990 -0.632571
O2    O     O_R   0.314910 0.383960 0.499990 -0.647750
C1    C     C_R   0.259127 0.500281 0.501639 0.888476
O3    O     O_R   0.500140 0.616020 0.428740 -0.532331
O4    O     O_R   0.500140 0.383980 0.428740 -0.549856
C2    C     C_R   0.495597 0.500899 0.405873 1.034870
Zn1   Zn    Zn3+2 0.500150 0.654960 0.499980 1.078264
Zn2   Zn    Zn3+2 0.500150 0.345040 0.499980 1.063041
O5    O     O_R   0.685320 0.616040 0.499970 -0.532462
O6    O     O_R   0.685320 0.383960 0.499970 -0.544426
O7    O     O_R   0.500090 0.616050 0.571230 -0.585604
O8    O     O_R   0.500090 0.383950 0.571230 -0.598890
C3    C     C_R   0.742600 0.499244 0.501593 1.012466
C4    C     C_R   0.496560 0.499989 0.593962 0.974959
C5    C     C_R   0.290576 0.439158 0.180404 0.649482
O9    O     O_2   0.246897 0.334894 0.206793 -0.414494
N1    N     N_R   0.365051 0.530938 0.202962 -0.338393
C6    C     C_R   0.407763 0.641699 0.178833 0.613400
C7    C     C_R   0.495206 0.431958 0.268739 0.393559
C8    C     C_R   0.530382 0.427421 0.318517 0.328454
C9    C     C_R   0.365639 0.590248 0.336992 0.353630
C10   C     C_R   0.331506 0.592912 0.287853 -0.123237
C11   C     C_R   0.395393 0.514902 0.253816 0.047978
C12   C     C_R   0.317923 0.558909 0.103421 -0.095591
C13   C     C_R   0.262431 0.452721 0.129882 -0.139194
C14   C     C_R   0.179082 0.368202 0.104778 0.447333
C15   C     C_R   0.383915 0.658391 0.128758 -0.087444
C16   C     C_R   0.464705 0.505807 0.353175 -0.296955
H1    H     H_    0.256214 0.658475 0.275575 0.221924
C17   C     C_R   0.465391 0.502991 0.646140 -0.185768
C18   C     C_R   0.254657 0.454143 0.973996 -0.026959
C19   C     C_R   0.374842 0.665746 0.974187 0.086729
C20   C     C_R   0.318258 0.558168 0.948346 0.047843
C21   C     C_R   0.214801 0.339976 0.946450 0.357949
C22   C     C_R   0.220867 0.340795 0.895372 -0.130557
C23   C     C_R   0.280132 0.443948 0.870155 -0.109442
C24   C     C_R   0.332655 0.550495 0.896578 -0.051846
C25   C     C_R   0.404627 0.646176 0.871353 -0.030887
C26   C     C_R   0.420855 0.634624 0.820571 0.597204
N2    N     N_R   0.367348 0.531243 0.795686 -0.337662
C27   C     C_R   0.297389 0.436990 0.819130 0.600935
C28   C     C_R   0.338077 0.603347 0.710025 0.487642
C29   C     C_R   0.374508 0.596680 0.661160 -0.298216
C30   C     C_R   0.518783 0.413608 0.680687 0.399000
C31   C     C_R   0.482856 0.421495 0.729791 -0.190237
C32   C     C_R   0.393587 0.516549 0.744573 0.135189
O10   O     O_2   0.246504 0.335968 0.793212 -0.492376
C33   C     C_R   0.244377 0.463508 0.026041 0.020125
C34   C     C_R   0.308435 0.565539 0.051537 0.048407
C35   C     C_R   0.362437 0.674554 0.025854 -0.032852
C36   C     C_R   0.167074 0.379074 0.053901 -0.150933
O11   O     O_2   0.474780 0.734225 0.203253 -0.469228
C37   C     C_R   0.419669 0.774913 0.104072 -0.107821
H2    H     H_    0.456590 0.859404 0.124238 0.237121
C38   C     C_R   0.454965 0.751908 0.948156 -0.113818
C39   C     C_R   0.466166 0.745435 0.897600 -0.103196
O12   O     O_2   0.491518 0.724425 0.796250 -0.488028
C40   C     C_R   0.401734 0.787526 0.053664 0.351172
C41   C     C_3   0.074679 0.600761 0.541334 -0.454734
C42   C     C_3   0.075975 0.357116 0.515851 -0.435915
H3    H     H_    0.117572 0.701452 0.536843 0.189907
H4    H     H_    0.098051 0.286197 0.485446 0.211519
C43   C     C_3   0.932818 0.615937 0.535424 0.276897
C44   C     C_3   0.934993 0.361404 0.523736 0.269510
C45   C     C_3   0.074689 0.541833 0.451485 -0.407852
C46   C     C_3   0.123724 0.499951 0.502677 -0.081223
C47   C     C_3   0.881041 0.498273 0.502755 -0.281972
C48   C     C_3   0.933336 0.518072 0.448575 0.546201
C49   C     C_3   0.370729 0.081298 0.494856 -0.467341
C50   C     C_3   0.375096 0.921849 0.485923 -0.440899
C51   C     C_3   0.568554 0.080055 0.455600 0.631589
C52   C     C_3   0.592648 0.922476 0.463041 0.599689
C53   C     C_3   0.546219 0.079350 0.546224 0.206600
C54   C     C_3   0.525417 0.921404 0.548969 0.236153
N3    N     N_3   0.499750 0.138610 0.498940 -0.192379
N4    N     N_3   0.499750 0.861390 0.498940 -0.184339
Cl1   Cl    Cl    0.280434 0.696597 0.376283 -0.547499
Cl2   Cl    Cl    0.578475 0.338644 0.224407 -0.376684
H5    H     H_    0.517176 0.819610 0.966442 0.202871
Cl3   Cl    Cl    0.635470 0.296658 0.664857 -0.392459
H6    H     H_    0.527944 0.815177 0.879447 0.209094
H7    H     H_    0.526360 0.355893 0.756901 0.200715
Cl4   Cl    Cl    0.405252 0.954001 0.030645 -0.492055
H8    H     H_    0.100048 0.563578 0.578772 0.243522
H9    H     H_    0.124804 0.317349 0.549166 0.225942
Cl5   Cl    Cl    0.863526 0.634318 0.594905 -0.363757
Cl6   Cl    Cl    0.904887 0.332267 0.587836 -0.368754
H10   H     H_    0.915239 0.712403 0.516184 0.211060
H11   H     H_    0.894789 0.274641 0.504096 0.228789
H12   H     H_    0.094791 0.650272 0.445759 0.247451
H13   H     H_    0.124990 0.485758 0.422140 0.232830
Cl7   Cl    Cl    0.863047 0.655035 0.415338 -0.392674
Cl8   Cl    Cl    0.909094 0.375141 0.410234 -0.410691
H14   H     H_    0.315166 0.132674 0.465719 0.267493
H15   H     H_    0.351820 0.899960 0.447017 0.287201
H16   H     H_    0.316364 0.102641 0.528816 0.184274
H17   H     H_    0.300956 0.873939 0.508138 0.212757
Cl9   Cl    Cl    0.482335 0.115440 0.398819 -0.424532
Cl10  Cl    Cl    0.594256 0.846398 0.403466 -0.327785
Cl11  Cl    Cl    0.701577 0.128099 0.559262 -0.340297
Cl12  Cl    Cl    0.642642 0.838756 0.585126 -0.344437
H18   H     H_    0.492469 0.124905 0.576939 0.151848
H19   H     H_    0.442250 0.905161 0.572663 0.102052
Cl13  Cl    Cl    0.710475 0.162769 0.442671 -0.334423
Cl14  Cl    Cl    0.750076 0.890003 0.482883 -0.401618
Cl15  Cl    Cl    0.081477 0.251521 0.134347 -0.377955
H20   H     H_    0.330568 0.664042 0.634680 0.192023
Cl16  Cl    Cl    0.223248 0.721328 0.727275 -0.458642
H21   H     H_    0.188032 0.253689 0.875568 0.234191
Cl17  Cl    Cl    0.183141 0.179427 0.971392 -0.497207
H22   H     H_    0.092964 0.323812 0.036910 0.224117
Cl18  Cl    Cl    0.663115 0.333077 0.335797 -0.266295

loop_
_geom_bond_atom_site_label_1
_geom_bond_atom_site_label_2
_geom_bond_distance
_ccdc_geom_bond_type
C53   Cl11  1.777745 S    
C38   C39   1.382697 A    
C10   H1    1.083744 S    
C43   H10   1.104587 S    
C53   C54   1.590632 S    
C7    C8    1.404837 A    
C12   C15   1.405586 A    
C52   N4    1.527296 S    
C49   H16   1.114656 S    
C14   Cl15  1.765324 S    
C6    O11   1.350548 S    
C39   H6    1.083679 S    
C37   H2    1.083999 S    
Zn1   O7    1.974478 S    
N1    C11   1.427791 S    
C54   N4    1.514517 S    
C23   C24   1.405810 A    
C41   C46   1.546465 S    
O4    C2    1.316287 A    
O7    C4    1.307703 A    
C5    C13   1.411554 A    
C31   H7    1.083281 S    
C5    O9    1.347746 S    
C26   O12   1.350589 S    
C42   H4    1.114230 S    
C21   C22   1.391192 A    
C28   C32   1.399941 A    
O5    C3    1.308795 A    
C8    Cl18  1.758940 S    
C33   C36   1.407992 A    
C2    C16   1.470682 S    
C22   C23   1.392414 A    
C51   Cl13  1.775571 S    
C18   C20   1.426795 A    
C49   N3    1.508162 S    
C19   C38   1.411007 A    
C22   H21   1.084195 S    
C50   H17   1.111400 S    
C37   C40   1.388830 A    
C42   C46   1.556300 S    
C9    C10   1.384838 A    
C53   N3    1.493900 S    
C17   C30   1.406491 A    
C23   C27   1.402943 A    
C44   H11   1.108163 S    
C4    C17   1.459852 S    
O3    Zn1   1.978197 S    
C45   H12   1.112590 S    
C51   Cl9   1.828583 S    
C43   C47   1.578105 S    
C41   H3    1.113374 S    
C47   C48   1.591162 S    
C35   C40   1.424830 A    
C44   C47   1.576819 S    
C30   Cl3   1.756414 S    
C41   H8    1.113550 S    
O3    C2    1.307188 A    
C49   H14   1.109468 S    
C26   N2    1.365067 A    
C8    C16   1.412143 A    
C13   C14   1.411651 A    
C31   C32   1.400300 A    
Zn2   N3    2.053543 S    
C20   C24   1.419575 A    
O1    C1    1.304495 A    
C7    Cl2   1.765209 S    
C7    C11   1.402801 A    
C24   C25   1.409808 A    
C38   H5    1.076313 S    
Zn2   O8    1.978408 S    
C45   C48   1.540787 S    
N1    C6    1.364145 A    
C27   O10   1.349885 S    
C18   C21   1.432319 A    
C29   H20   1.084377 S    
C12   C13   1.413541 A    
C19   C35   1.415322 A    
C54   Cl12  1.785318 S    
N2    C27   1.364962 A    
C9    C16   1.415508 A    
O8    C4    1.312398 A    
C34   C35   1.417507 A    
C18   C33   1.423910 A    
C43   Cl5   1.792724 S    
C50   N4    1.501773 S    
C21   Cl17  1.768748 S    
C17   C29   1.405051 A    
C1    C46   1.454561 S    
C28   C29   1.388675 A    
N2    C32   1.427580 S    
C30   C31   1.394063 A    
C3    C47   1.486909 S    
C12   C34   1.415850 A    
C45   H13   1.114001 S    
C33   C34   1.415513 A    
C36   H22   1.076586 S    
C44   Cl6   1.797188 S    
O1    Zn1   2.030959 S    
O2    Zn2   2.022387 S    
C6    C15   1.393864 A    
O6    C3    1.308181 A    
O4    Zn2   1.974261 S    
C42   H9    1.113954 S    
C15   C37   1.394745 A    
C5    N1    1.366849 A    
Zn1   N4    2.053153 S    
C41   C43   1.537042 S    
C48   Cl8   1.788357 S    
C42   C44   1.530098 S    
C19   C20   1.423942 A    
C50   H15   1.109813 S    
C51   C52   1.597330 S    
C14   C36   1.393035 A    
C51   N3    1.509560 S    
C25   C26   1.398144 A    
C48   Cl7   1.789427 S    
O2    C1    1.297872 A    
C49   C50   1.605816 S    
Zn1   O5    2.021649 S    
C25   C39   1.392762 A    
C52   Cl14  1.798159 S    
Zn2   O6    2.030221 S    
C45   C46   1.540702 S    
C9    Cl1   1.759375 S    
C10   C11   1.389248 A    
C40   Cl4   1.768026 S    
C28   Cl16  1.759295 S    
C53   H18   1.112709 S    
C54   H19   1.116072 S    
C52   Cl10  1.792147 S    
