data_mof_unit_46529.cif
_audit_creation_date              2012-12-10T17:52:26-0500
_audit_creation_method            fapswitch 2.2
_symmetry_space_group_name_H-M    P1
_symmetry_Int_Tables_number       1
_space_group_crystal_system       triclinic
_cell_length_a                    19.191324
_cell_length_b                    10.747024
_cell_length_c                    9.948964
_cell_angle_alpha                 90.44977
_cell_angle_beta                  90.961589
_cell_angle_gamma                 93.650388
_cell_volume                      2047.43666944

loop_
_atom_site_label
_atom_site_type_symbol
_atom_type_description
_atom_site_fract_x
_atom_site_fract_y
_atom_site_fract_z
_atom_type_partial_charge
C1    C     C_R   0.506707 0.261287 0.499748 0.898594
C2    C     C_R   0.855444 0.525980 0.504916 0.021136
C3    C     C_R   0.589451 0.139770 0.713347 -0.195772
C4    C     C_R   0.365849 0.505105 0.499176 0.904016
C5    C     C_R   0.623511 0.078756 0.815864 -0.187465
C6    C     C_R   0.625867 0.949965 0.812086 0.661773
C7    C     C_R   0.593063 0.881562 0.706912 -0.263277
C8    C     C_R   0.554217 0.940619 0.606435 0.036414
C9    C     C_R   0.553587 0.071976 0.607570 0.038281
C10   C     C_R   0.520820 0.130457 0.497703 -0.236288
C11   C     C_R   0.501900 0.061343 0.381168 0.585723
C12   C     C_R   0.291319 0.525667 0.499195 -0.232406
C13   C     C_R   0.497524 0.934409 0.385126 -0.302770
C14   C     C_R   0.518740 0.873389 0.500092 -0.162134
C15   C     C_R   0.412200 0.310258 0.125620 0.565013
C16   C     C_R   0.505872 0.739945 0.500634 0.877274
C17   C     C_R   0.384042 0.211927 0.042020 -0.326101
C18   C     C_R   0.380665 0.223767 0.905081 0.445159
C19   C     C_R   0.415316 0.325984 0.847794 -0.279930
C20   C     C_R   0.457899 0.412363 0.923347 0.041545
C21   C     C_R   0.457283 0.409125 0.067940 0.064899
C22   C     C_R   0.540251 0.583896 0.073655 -0.110263
C23   C     C_R   0.931578 0.535280 0.505520 0.304872
C24   C     C_R   0.540374 0.583482 0.931114 -0.109647
C25   C     C_R   0.634219 0.500079 0.501149 0.875174
C26   C     C_R   0.256907 0.522377 0.622356 -0.363889
C27   C     C_R   0.186619 0.543941 0.628683 0.514856
C28   C     C_R   0.148228 0.556829 0.508246 -0.112281
C29   C     C_R   0.182758 0.565707 0.385712 -0.321835
C30   C     C_R   0.254595 0.556108 0.380889 0.468479
C31   C     C_3   0.345432 0.223606 0.311530 0.135668
C32   C     C_3   0.268911 0.234255 0.266923 -0.410022
C33   C     C_3   0.219461 0.153633 0.353601 -0.968389
C34   C     C_R   0.072311 0.551747 0.508146 0.320453
C35   C     C_3   0.290828 0.172687 0.750578 0.048890
C36   C     C_3   0.232388 0.220778 0.837396 -0.402202
C37   C     C_3   0.165080 0.230905 0.755376 -0.837220
C38   C     C_3   0.140488 0.668328 0.788516 0.100085
C39   C     C_3   0.206668 0.753309 0.816198 -0.390358
C40   C     C_3   0.188214 0.880128 0.869185 -0.952430
C41   C     C_3   0.319642 0.682111 0.239825 0.154175
C42   C     C_3   0.267268 0.777539 0.200053 -0.425430
C43   C     C_3   0.304831 0.894031 0.143666 -0.952271
C44   C     C_3   0.708152 0.448129 0.825653 0.090323
C45   C     C_R   0.819922 0.459687 0.606523 -0.237184
C46   C     C_3   0.755936 0.398124 0.934497 -0.367324
C47   C     C_3   0.742564 0.455980 0.071485 -0.915547
C48   C     C_R   0.747322 0.451703 0.608507 0.481083
C49   C     C_R   0.709974 0.506558 0.503868 -0.122962
C50   C     C_R   0.745506 0.571985 0.402012 -0.268143
C51   C     C_R   0.817800 0.582229 0.402770 -0.163318
F1    F     F_    0.662196 0.891344 0.908141 -0.688561
F2    F     F_    0.486197 0.115116 0.262691 -0.680320
H1    H     H_    0.284533 0.504918 0.715512 0.202810
H2    H     H_    0.153916 0.577461 0.292586 0.189329
H3    H     H_    0.848268 0.412774 0.683930 0.161506
H4    H     H_    0.717261 0.616617 0.322503 0.183269
H5    H     H_    0.844008 0.633679 0.323050 0.169839
H6    H     H_    0.348178 0.236220 0.422463 0.135284
H7    H     H_    0.362997 0.128963 0.295243 0.153584
H8    H     H_    0.254932 0.331778 0.275678 0.278508
H9    H     H_    0.260306 0.205563 0.160553 0.204351
H10   H     H_    0.232982 0.054764 0.349846 0.270367
H11   H     H_    0.164959 0.159418 0.316084 0.281006
H12   H     H_    0.595111 0.240001 0.716184 0.223821
H13   H     H_    0.222634 0.187156 0.459466 0.259404
H14   H     H_    0.268768 0.092217 0.689368 0.181416
H15   H     H_    0.308955 0.244338 0.677003 0.115977
H16   H     H_    0.221701 0.156747 0.922665 0.228724
H17   H     H_    0.249268 0.314252 0.879313 0.226377
H18   H     H_    0.174928 0.288801 0.665153 0.268958
H19   H     H_    0.125643 0.274339 0.817806 0.288422
H20   H     H_    0.143671 0.137117 0.722256 0.242956
H21   H     H_    0.109340 0.662775 0.881646 0.178162
H22   H     H_    0.107165 0.710452 0.710741 0.133607
H23   H     H_    0.650399 0.132187 0.895883 0.168908
H24   H     H_    0.240889 0.708672 0.890171 0.240593
H25   H     H_    0.236179 0.768142 0.721913 0.219927
H26   H     H_    0.153939 0.925157 0.795698 0.264012
H27   H     H_    0.236838 0.940171 0.883977 0.296975
H28   H     H_    0.161145 0.870411 0.966670 0.269283
H29   H     H_    0.357783 0.674014 0.157828 0.178638
H30   H     H_    0.350312 0.715893 0.330632 0.116713
H31   H     H_    0.229556 0.736291 0.123864 0.247414
H32   H     H_    0.237669 0.803983 0.289842 0.213744
H33   H     H_    0.345915 0.930577 0.215833 0.262380
H34   H     H_    0.601716 0.783526 0.702042 0.164812
H35   H     H_    0.266872 0.966149 0.126478 0.271301
H36   H     H_    0.329548 0.872342 0.046808 0.289687
H37   H     H_    0.653371 0.434078 0.859353 0.181566
H38   H     H_    0.719114 0.551029 0.815184 0.138836
H39   H     H_    0.746726 0.295244 0.940842 0.241335
H40   H     H_    0.811365 0.419841 0.908466 0.219440
H41   H     H_    0.752423 0.558884 0.068165 0.267101
H42   H     H_    0.778163 0.418327 0.148016 0.277743
H43   H     H_    0.687797 0.433195 0.101840 0.273289
H44   H     H_    0.476140 0.883965 0.297430 0.190129
H45   H     H_    0.573414 0.652487 0.128677 0.165931
H46   H     H_    0.358184 0.128686 0.080812 0.180578
H47   H     H_    0.409313 0.332936 0.743047 0.230952
H48   H     H_    0.574030 0.651286 0.880021 0.161571
N1    N     N_R   0.036245 0.607834 0.410003 -0.185608
N2    N     N_R   0.966935 0.599927 0.408911 -0.179804
N3    N     N_R   0.967838 0.478802 0.603025 -0.183839
N4    N     N_R   0.037006 0.486603 0.604095 -0.129668
N5    N     N_R   0.499340 0.498800 0.142780 -0.107741
N6    N     N_R   0.499320 0.498720 0.857170 -0.105591
O1    O     O_R   0.500000 0.316780 0.614690 -0.661439
O2    O     O_3   0.346433 0.128857 0.829150 -0.629058
O3    O     O_3   0.156246 0.545216 0.753944 -0.640020
O4    O     O_3   0.286074 0.562503 0.256878 -0.641857
O5    O     O_3   0.713321 0.379203 0.704581 -0.661257
O6    O     O_R   0.499990 0.316750 0.385360 -0.505642
O7    O     O_R   0.398140 0.500000 0.614700 -0.653613
O8    O     O_R   0.398130 0.499970 0.385370 -0.525715
O9    O     O_R   0.500010 0.683250 0.614640 -0.618066
O10   O     O_R   0.500000 0.683220 0.385310 -0.642363
O11   O     O_R   0.601870 0.500030 0.614630 -0.626221
O12   O     O_R   0.601860 0.500000 0.385300 -0.625853
O13   O     O_3   0.391601 0.318755 0.257726 -0.563353
Zn1   Zn    Zn3+2 0.500000 0.500020 0.653130 0.925550
Zn2   Zn    Zn3+2 0.500000 0.499980 0.346870 1.002477

loop_
_geom_bond_atom_site_label_1
_geom_bond_atom_site_label_2
_ccdc_geom_bond_type
C22   H45   S    
C41   C42   S    
C4    O8    A    
C19   C20   A    
C18   O2    S    
O1    Zn1   S    
C25   O11   A    
C7    C8    A    
C26   C27   A    
C43   H36   S    
C43   H35   S    
C39   H24   S    
C4    O7    A    
C36   C37   S    
C32   H8    S    
C18   C19   A    
C38   C39   S    
C45   C48   A    
C46   H39   S    
C41   H30   S    
C26   H1    S    
C15   O13   S    
C24   H48   S    
C31   H6    S    
O7    Zn1   S    
C23   N2    A    
O6    Zn2   S    
C31   C32   S    
C27   O3    S    
C36   H17   S    
C8    C9    A    
C47   H43   S    
C40   H27   S    
C38   O3    S    
C9    C10   A    
C21   N5    A    
C11   F2    S    
C20   N6    A    
C28   C34   S    
O8    Zn2   S    
C13   C14   A    
C50   H4    S    
C3    H12   S    
C1    O6    A    
C16   O9    A    
N3    N4    A    
C44   C46   S    
C33   H13   S    
C50   C51   A    
C38   H22   S    
C2    C45   A    
C7    H34   S    
O9    Zn1   S    
C39   H25   S    
C42   H31   S    
C45   H3    S    
C10   C11   A    
C42   H32   S    
C39   C40   S    
C51   H5    S    
C29   H2    S    
C22   N5    A    
C12   C26   A    
O11   Zn1   S    
C31   H7    S    
O10   Zn2   S    
C29   C30   A    
C3    C9    A    
C23   N3    A    
C35   H14   S    
C33   H10   S    
N5    Zn2   S    
C17   C18   A    
C40   H26   S    
C24   N6    A    
C34   N1    A    
C17   H46   S    
C44   H38   S    
C44   O5    S    
C48   C49   A    
C48   O5    S    
C37   H18   S    
C14   C16   S    
C4    C12   S    
C42   C43   S    
N6    Zn1   S    
C27   C28   A    
C44   H37   S    
C36   H16   S    
C38   H21   S    
O12   Zn2   S    
C15   C17   A    
C37   H20   S    
C46   C47   S    
C28   C29   A    
C8    C14   A    
C12   C30   A    
C34   N4    A    
C40   H28   S    
C1    C10   S    
C3    C5    A    
C35   O2    S    
C19   H47   S    
C6    C7    A    
C25   O12   A    
C30   O4    S    
C32   C33   S    
C5    H23   S    
C32   H9    S    
C16   O10   A    
C11   C13   A    
C5    C6    A    
C46   H40   S    
C35   H15   S    
C33   H11   S    
C41   H29   S    
C47   H41   S    
C22   C24   A    
C13   H44   S    
N1    N2    A    
C25   C49   S    
C31   O13   S    
C43   H33   S    
C2    C51   A    
C1    O1    A    
C15   C21   A    
C20   C21   A    
C49   C50   A    
C41   O4    S    
C37   H19   S    
C2    C23   S    
C47   H42   S    
C35   C36   S    
C6    F1    S    
