data_mof_unit_21430.cif
_audit_creation_date              2012-12-11T14:58:25-0500
_audit_creation_method            fapswitch 2.2
_symmetry_space_group_name_H-M    P1
_symmetry_Int_Tables_number       1
_space_group_crystal_system       triclinic
_cell_length_a                    10.908356
_cell_length_b                    10.949046
_cell_length_c                    18.796202
_cell_angle_alpha                 90.50163
_cell_angle_beta                  90.341254
_cell_angle_gamma                 59.821189
_cell_volume                      1940.58928102

loop_
_atom_site_label
_atom_site_type_symbol
_atom_type_description
_atom_site_fract_x
_atom_site_fract_y
_atom_site_fract_z
_atom_type_partial_charge
C1    C     C_R   0.359186 0.772913 0.397727 0.541389
C2    C     C_R   0.613353 0.116458 0.166140 0.060430
C3    C     C_R   0.359682 0.330556 0.162698 -0.004553
C4    C     C_R   0.479486 0.237946 0.273991 -0.150900
C5    C     C_R   0.482687 0.232285 0.200471 -0.024614
C6    C     C_R   0.067435 0.709051 0.282592 -0.087112
C7    C     C_R   0.948022 0.823462 0.313289 -0.113699
C8    C     C_R   0.671428 0.976112 0.189443 -0.095858
C9    C     C_R   0.789054 0.866149 0.155188 -0.124815
C10   C     C_R   0.246267 0.441568 0.199358 -0.155449
C11   C     C_R   0.244686 0.449754 0.273456 -0.032041
C12   C     C_R   0.385967 0.354865 0.387395 0.529254
C13   C     C_R   0.877220 0.801401 0.368833 -0.116897
C14   C     C_R   0.925829 0.664846 0.393810 -0.102485
C15   C     C_R   0.044539 0.549882 0.362869 -0.049373
C16   C     C_R   0.118011 0.570847 0.307446 0.058734
C17   C     C_R   0.362582 0.343282 0.311513 -0.001808
C18   C     C_R   0.955933 0.301406 0.307714 -0.157774
C19   C     C_R   0.984819 0.292840 0.235540 -0.125267
C20   C     C_R   0.874944 0.332205 0.185874 0.039259
C21   C     C_R   0.735771 0.383222 0.207621 -0.152377
C22   C     C_R   0.706591 0.393832 0.279752 -0.117348
C23   C     C_R   0.778274 0.377919 0.403222 0.532473
C24   C     C_R   0.816698 0.353144 0.329492 0.039874
C25   C     C_R   0.471516 0.787774 0.286960 -0.141901
C26   C     C_R   0.459328 0.814466 0.214237 -0.154092
C27   C     C_R   0.324492 0.887901 0.184161 0.033656
C28   C     C_R   0.203074 0.945158 0.227675 -0.141366
C29   C     C_R   0.215134 0.920129 0.299644 -0.150015
C30   C     C_R   0.348504 0.835099 0.328835 0.029666
C31   C     C_R   0.402592 0.196770 0.694578 -0.168772
C32   C     C_R   0.397197 0.187721 0.767041 -0.139967
C33   C     C_R   0.298451 0.304240 0.807366 -0.015907
C34   C     C_R   0.344062 0.769580 0.604670 0.547092
C35   C     C_R   0.196300 0.426319 0.773055 -0.070903
C36   C     C_R   0.200330 0.436428 0.699290 0.232612
C37   C     C_R   0.313697 0.324549 0.660752 0.011197
C38   C     C_R   0.741970 0.475408 0.732189 -0.112612
C39   C     C_R   0.753123 0.461944 0.805076 -0.128463
C40   C     C_R   0.814765 0.327995 0.835669 0.027930
C41   C     C_R   0.849353 0.209150 0.792648 -0.129307
C42   C     C_R   0.833115 0.223673 0.718938 -0.135248
C43   C     C_R   0.785055 0.356415 0.688312 0.035562
C44   C     C_R   0.202908 0.826617 0.713841 -0.118386
C45   C     C_R   0.366318 0.349135 0.594343 0.541161
C46   C     C_R   0.196210 0.836262 0.787040 -0.133869
C47   C     C_R   0.303286 0.842758 0.825100 0.031732
C48   C     C_R   0.419346 0.835440 0.789103 -0.140795
C49   C     C_R   0.425815 0.826203 0.715703 -0.147365
C50   C     C_R   0.319133 0.818851 0.677771 0.029125
C51   C     C_R   0.910963 0.316133 0.111869 0.532411
C52   C     C_R   0.329729 0.295008 0.092029 0.537707
C53   C     C_R   0.301243 0.910678 0.108355 0.548435
C54   C     C_R   0.879016 0.310223 0.905755 0.542801
C55   C     C_R   0.292366 0.283876 0.883253 0.549555
C56   C     C_R   0.757177 0.380212 0.612319 0.546751
C57   C     C_R   0.276426 0.892999 0.897982 0.549066
C58   C     C_R   0.850430 0.894834 0.097539 -0.113117
C59   C     C_R   0.793992 0.033507 0.073954 -0.085990
C60   C     C_R   0.677385 0.144263 0.108567 -0.057897
Cr1   Cr    Cr6+3 0.601770 0.606860 0.505860 0.998317
Cr2   Cr    Cr6+3 0.291380 0.601660 0.495070 1.035948
Cr3   Cr    Cr6+3 0.606880 0.291510 0.499120 1.011476
Cr4   Cr    Cr6+3 0.062440 0.063090 0.008210 0.983847
Cr5   Cr    Cr6+3 0.062880 0.375170 0.998920 1.008833
Cr6   Cr    Cr6+3 0.374700 0.061720 0.992470 1.022472
H1    H     H_    0.573921 0.161167 0.301972 0.141124
H2    H     H_    0.784967 0.890155 0.392637 0.111799
H3    H     H_    0.872045 0.648353 0.437590 0.132300
H4    H     H_    0.081357 0.445205 0.383407 0.094603
H5    H     H_    0.040957 0.268006 0.346111 0.096202
H6    H     H_    0.092944 0.253824 0.218180 0.125340
H7    H     H_    0.650631 0.416063 0.169285 0.099294
H8    H     H_    0.597852 0.436454 0.297025 0.125497
H9    H     H_    0.576305 0.721494 0.309217 0.144950
H10   H     H_    0.553409 0.771849 0.181392 0.122395
H11   H     H_    0.097287 0.005669 0.205602 0.150615
H12   H     H_    0.832172 0.758516 0.173185 0.123286
H13   H     H_    0.120176 0.959352 0.331590 0.128731
H14   H     H_    0.485586 0.106956 0.666075 0.139553
H15   H     H_    0.472703 0.088397 0.791311 0.145736
H16   H     H_    0.113116 0.512898 0.803167 0.145162
H17   H     H_    0.699527 0.579963 0.710235 0.140411
H18   H     H_    0.724198 0.555336 0.837121 0.126388
H19   H     H_    0.897668 0.104406 0.815278 0.129649
H20   H     H_    0.862036 0.131484 0.685981 0.121665
H21   H     H_    0.119274 0.820013 0.685887 0.168327
H22   H     H_    0.910205 0.929339 0.293863 0.114996
H23   H     H_    0.104445 0.844130 0.813407 0.129782
H24   H     H_    0.502594 0.842145 0.817399 0.120204
H25   H     H_    0.516255 0.820366 0.688907 0.119260
H26   H     H_    0.941053 0.809501 0.070810 0.109839
H27   H     H_    0.839803 0.054930 0.028279 0.143721
H28   H     H_    0.634153 0.250858 0.089028 0.091641
H29   H     H_    0.120937 0.728346 0.239564 0.116486
H30   H     H_    0.624429 0.951368 0.233517 0.109515
H31   H     H_    0.152764 0.517375 0.170356 0.134051
O1    O     O_R   0.748800 0.497470 0.428000 -0.532233
O2    O     O_R   0.300070 0.471040 0.567100 -0.487134
O3    O     O_R   0.491670 0.258900 0.574910 -0.522084
O4    O     O_R   0.718780 0.304180 0.577850 -0.499056
O5    O     O_3   0.500010 0.500010 0.500020 -0.247045
O6    O     O_R   0.186690 0.923650 0.086970 -0.532278
O7    O     O_R   0.957250 0.194250 0.084630 -0.519947
O8    O     O_R   0.934970 0.407490 0.085330 -0.517331
O9    O     O_R   0.203780 0.365190 0.067090 -0.509235
O10   O     O_R   0.417600 0.174890 0.067840 -0.504533
O11   O     O_R   0.375320 0.946260 0.070860 -0.495169
O12   O     O_R   0.476420 0.724060 0.429470 -0.512834
O13   O     O_R   0.160600 0.919630 0.926660 -0.529818
O14   O     O_R   0.933060 0.190520 0.936020 -0.520076
O15   O     O_R   0.908880 0.403460 0.925020 -0.519628
O16   O     O_R   0.179600 0.361450 0.918490 -0.503993
O17   O     O_R   0.391510 0.170860 0.907530 -0.526680
O18   O     O_R   0.351130 0.942530 0.922260 -0.507884
O19   O     O_3   0.166667 0.166667 0.999870 -0.245049
O20   O     O_R   0.264580 0.744340 0.416750 -0.507115
O21   O     O_R   0.309380 0.472470 0.418200 -0.497850
O22   O     O_R   0.501710 0.260430 0.414300 -0.533285
O23   O     O_R   0.728090 0.305600 0.428960 -0.502950
O24   O     O_R   0.738760 0.495930 0.588610 -0.527293
O25   O     O_R   0.467110 0.722640 0.578360 -0.510516
O26   O     O_R   0.254530 0.742800 0.577360 -0.508555
O27   O     O_3   0.095379 0.557269 0.667610 -0.705513
H32   H     H_    0.079337 0.531626 0.619163 0.332138

loop_
_geom_bond_atom_site_label_1
_geom_bond_atom_site_label_2
_ccdc_geom_bond_type
C33   C55   S    
Cr4   O6    S    
C34   O26   A    
Cr4   O19   S    
C38   H17   S    
C41   C42   A    
C35   C36   A    
C8    H30   S    
Cr6   O10   S    
Cr3   O4    S    
Cr1   O12   S    
C31   H14   S    
C57   O18   A    
C46   H23   S    
C32   H15   S    
C28   C29   A    
C26   C27   A    
Cr3   O3    S    
Cr6   O19   S    
C18   C24   A    
C36   C37   A    
C36   O27   S    
C56   O4    A    
C18   C19   A    
C20   C51   S    
C38   C39   A    
C33   C35   A    
C2    C60   A    
C15   C16   A    
C21   H7    S    
C18   H5    S    
Cr1   O24   S    
C9    C58   A    
C7    H22   S    
Cr2   O20   S    
C1    O12   A    
C11   C17   A    
C19   C20   A    
C52   O10   A    
C8    C9    A    
C12   C17   S    
C26   H10   S    
C23   C24   S    
C42   H20   S    
C44   H21   S    
C52   O9    A    
C59   C60   A    
C34   O25   A    
C48   H24   S    
C21   C22   A    
C19   H6    S    
C49   H25   S    
Cr3   O5    S    
Cr5   O8    S    
Cr2   O26   S    
C35   H16   S    
C44   C46   A    
C34   C50   S    
Cr6   O18   S    
C45   O2    A    
C23   O23   A    
Cr4   O14   S    
C55   O16   A    
C51   O7    A    
C31   C37   A    
Cr1   O25   S    
C25   H9    S    
C10   H31   S    
Cr5   O15   S    
C29   C30   A    
C47   C57   S    
C12   O22   A    
Cr3   O22   S    
C11   C16   S    
Cr4   O13   S    
C47   C48   A    
C29   H13   S    
C51   O8    A    
C54   O15   A    
C1    O20   A    
C28   H11   S    
C12   O21   A    
C4    C17   A    
C40   C41   A    
C49   C50   A    
C40   C54   S    
C14   H3    S    
C22   C24   A    
C58   C59   A    
C2    C5    S    
C42   C43   A    
C22   H8    S    
C37   C45   S    
Cr5   O9    S    
C39   C40   A    
C44   C50   A    
C25   C30   A    
Cr4   O7    S    
C15   H4    S    
C46   C47   A    
C48   C49   A    
Cr6   O17   S    
Cr5   O16   S    
C31   C32   A    
C2    C8    A    
Cr6   O11   S    
C4    C5    A    
C3    C5    A    
C45   O3    A    
C39   H18   S    
C4    H1    S    
C3    C52   S    
C27   C53   S    
C57   O13   A    
C6    C7    A    
C55   O17   A    
C41   H19   S    
C56   O24   A    
Cr1   O5    S    
C25   C26   A    
C38   C43   A    
C3    C10   A    
C32   C33   A    
Cr3   O23   S    
Cr1   O1    S    
C53   O6    A    
C53   O11   A    
C1    C30   S    
Cr5   O19   S    
C54   O14   A    
C9    H12   S    
Cr2   O21   S    
C10   C11   A    
C6    C16   A    
Cr2   O2    S    
C43   C56   S    
C7    C13   A    
C23   O1    A    
C20   C21   A    
C6    H29   S    
C27   C28   A    
C14   C15   A    
C59   H27   S    
C13   C14   A    
C58   H26   S    
O27   H32   S    
Cr2   O5    S    
C13   H2    S    
C60   H28   S    
