data_mof_unit_28558.cif
_audit_creation_date              2012-12-10T17:21:42-0500
_audit_creation_method            fapswitch 2.2
_symmetry_space_group_name_H-M    P1
_symmetry_Int_Tables_number       1
_space_group_crystal_system       triclinic
_cell_length_a                    10.761421
_cell_length_b                    10.858676
_cell_length_c                    9.567429
_cell_angle_alpha                 90.353444
_cell_angle_beta                  90.002029
_cell_angle_gamma                 92.791284
_cell_volume                      1116.65209572

loop_
_atom_site_label
_atom_site_type_symbol
_atom_type_description
_atom_site_fract_x
_atom_site_fract_y
_atom_site_fract_z
_atom_type_partial_charge
C1    C     C_R   0.509995 0.263112 0.500350 0.800562
C2    C     C_3   0.878111 0.501185 0.499640 -0.037716
C3    C     C_3   0.931383 0.614309 0.416855 -0.379556
C4    C     C_3   0.924736 0.379497 0.434521 0.267063
C5    C     C_R   0.580862 0.122661 0.755071 -0.153263
C6    C     C_R   0.566289 0.064635 0.883857 -0.154360
C7    C     C_R   0.504599 0.949625 0.891121 -0.140538
C8    C     C_R   0.469119 0.887435 0.768515 -0.124650
C9    C     C_R   0.496229 0.939502 0.635497 0.084934
C10   C     C_R   0.533828 0.065452 0.630975 0.089067
C11   C     C_R   0.521097 0.129338 0.503062 -0.111464
C12   C     C_R   0.260150 0.503727 0.500029 0.832104
C13   C     C_R   0.501718 0.063051 0.378470 -0.189043
C14   C     C_R   0.490841 0.935786 0.379959 -0.202126
C15   C     C_R   0.487943 0.872233 0.506961 -0.102734
C16   C     C_R   0.665627 0.664506 0.145345 -0.141176
C17   C     C_R   0.746836 0.744561 0.073449 -0.175828
C18   C     C_R   0.747007 0.744300 0.929456 -0.154419
C19   C     C_R   0.665782 0.664165 0.856616 -0.168486
C20   C     C_R   0.581493 0.580804 0.925618 0.201395
C21   C     C_R   0.581434 0.580854 0.075374 0.233734
C22   C     C_R   0.422510 0.423051 0.073462 0.001528
C23   C     C_R   0.492974 0.737575 0.501527 0.787315
C24   C     C_R   0.422534 0.423098 0.925332 -0.020928
C25   C     C_R   0.740070 0.499864 0.500023 0.785992
C26   C     C_3   0.071506 0.520563 0.652371 0.183766
C27   C     C_3   0.928550 0.512814 0.651730 -0.463192
C28   C     C_3   0.074769 0.612867 0.408076 0.271772
C29   C     C_3   0.068281 0.380229 0.441859 -0.442354
C30   C     C_3   0.122097 0.505559 0.499912 -0.081279
Cu1   Cu    Cu3+1 0.499990 0.499990 0.640660 0.946792
Cu2   Cu    Cu3+1 0.500010 0.500010 0.359340 0.989656
H1    H     H_    0.890009 0.615438 0.310557 0.241163
H2    H     H_    0.494827 0.109494 0.279065 0.167095
H3    H     H_    0.631447 0.211087 0.754089 0.165569
H4    H     H_    0.599620 0.110555 0.978388 0.155119
H5    H     H_    0.486523 0.907208 0.991684 0.148997
H6    H     H_    0.416697 0.801056 0.781168 0.207753
H7    H     H_    0.482644 0.887209 0.280881 0.170854
H8    H     H_    0.359060 0.360081 0.128525 0.142366
H9    H     H_    0.103682 0.444274 0.718484 0.154643
H10   H     H_    0.673462 0.672379 0.255505 0.186573
H11   H     H_    0.810139 0.807269 0.130225 0.167468
H12   H     H_    0.810218 0.806994 0.873422 0.174389
H13   H     H_    0.359144 0.360109 0.869330 0.142561
H14   H     H_    0.894819 0.431489 0.713947 0.174519
H15   H     H_    0.892032 0.595719 0.703328 0.233927
H16   H     H_    0.115394 0.702451 0.447827 0.143142
H17   H     H_    0.904614 0.700764 0.469640 0.130062
H18   H     H_    0.108571 0.360909 0.337396 0.257317
H19   H     H_    0.096151 0.304322 0.511181 0.121789
H20   H     H_    0.885606 0.299911 0.495864 0.090037
N1    N     N_R   0.501200 0.501210 0.147910 -0.196038
N2    N     N_R   0.501250 0.501290 0.852040 -0.204388
O1    O     O_R   0.499990 0.319640 0.618810 -0.599114
O2    O     O_R   0.500000 0.319660 0.381240 -0.575912
O3    O     O_R   0.317680 0.499970 0.618790 -0.557542
O4    O     O_R   0.317700 0.499990 0.381210 -0.536895
O5    O     O_R   0.500000 0.680340 0.618760 -0.610586
O6    O     O_R   0.500010 0.680360 0.381190 -0.600031
O7    O     O_R   0.682300 0.500010 0.618790 -0.619609
O8    O     O_R   0.682320 0.500030 0.381210 -0.552506
Cl1   Cl    Cl    0.127619 0.662236 0.734696 -0.618436
Cl2   Cl    Cl    0.874449 0.353590 0.256968 -0.582971
Cl3   Cl    Cl    0.120483 0.604245 0.227331 -0.551350
H21   H     H_    0.672994 0.672303 0.746510 0.197469

loop_
_geom_bond_atom_site_label_1
_geom_bond_atom_site_label_2
_ccdc_geom_bond_type
C4    C29   S    
C2    C4    S    
C26   Cl1   S    
C17   H11   S    
C24   H13   S    
C16   C21   A    
Cu1   O7    S    
C18   H12   S    
C2    C25   S    
C9    C10   A    
C4    Cl2   S    
C19   C20   A    
C1    C11   S    
Cu2   O4    S    
C29   H18   S    
C2    C27   S    
C12   O4    A    
Cu1   O3    S    
C15   C23   S    
C2    C3    S    
C3    H17   S    
C22   H8    S    
C5    C10   A    
C25   O7    A    
C13   C14   A    
C21   N1    A    
C11   C13   A    
C20   N2    A    
C26   C27   S    
C29   C30   S    
C8    H6    S    
C4    H20   S    
C5    C6    A    
C12   O3    A    
C5    H3    S    
C27   H14   S    
C28   C30   S    
C3    C28   S    
C1    O2    A    
C6    H4    S    
C26   C30   S    
C22   N1    A    
C25   O8    A    
Cu1   N2    S    
C7    H5    S    
C23   O6    A    
C22   C24   A    
C1    O1    A    
Cu1   O1    S    
C16   C17   A    
C10   C11   A    
C3    H1    S    
Cu2   O8    S    
C16   H10   S    
Cu2   N1    S    
C7    C8    A    
C20   C21   A    
C26   H9    S    
C19   H21   S    
C17   C18   A    
C18   C19   A    
C29   H19   S    
C27   H15   S    
Cu2   O6    S    
C14   C15   A    
C28   H16   S    
C13   H2    S    
C23   O5    A    
C12   C30   S    
C14   H7    S    
C9    C15   A    
C24   N2    A    
Cu2   O2    S    
C6    C7    A    
Cu1   Cu2   S    
C28   Cl3   S    
C8    C9    A    
Cu1   O5    S    
