data_mof_unit_62257.cif
_audit_creation_date              2012-12-10T18:19:14-0500
_audit_creation_method            fapswitch 2.2
_symmetry_space_group_name_H-M    P1
_symmetry_Int_Tables_number       1
_space_group_crystal_system       triclinic
_cell_length_a                    18.71244
_cell_length_b                    18.632662
_cell_length_c                    18.520395
_cell_angle_alpha                 109.342117
_cell_angle_beta                  109.436032
_cell_angle_gamma                 109.812891
_cell_volume                      4959.9027122

loop_
_atom_site_label
_atom_site_type_symbol
_atom_type_description
_atom_site_fract_x
_atom_site_fract_y
_atom_site_fract_z
_atom_type_partial_charge
C1    C     C_R   0.620283 0.499251 0.621599 0.859039
C2    C     C_3   0.844818 0.747013 0.524717 -0.025714
C3    C     C_3   0.222888 0.149510 0.449440 -0.525188
C4    C     C_3   0.788820 0.851352 0.562786 -0.526502
C5    C     C_3   0.706051 0.554545 0.783507 -0.380259
C6    C     C_3   0.229921 0.407740 0.251060 -0.407862
C7    C     C_3   0.778841 0.553661 0.852280 -0.458646
C8    C     C_3   0.156957 0.406465 0.179837 -0.453375
C9    C     C_3   0.660694 0.400801 0.668052 0.058310
C10   C     C_3   0.347481 0.528376 0.249975 0.027571
C11   C     C_3   0.773711 0.538527 0.687062 -0.504129
C12   C     C_R   0.380285 0.501237 0.378282 0.853841
C13   C     C_3   0.287415 0.568063 0.351739 -0.450843
C14   C     C_3   0.687782 0.497965 0.689238 0.149592
C15   C     C_3   0.313129 0.500918 0.308671 0.140624
C16   C     C_R   0.379987 0.378646 0.501308 0.852709
C17   C     C_R   0.621334 0.621390 0.500069 0.850858
C18   C     C_3   0.811007 0.496382 0.806219 0.104205
C19   C     C_3   0.190392 0.498533 0.186686 0.122538
C20   C     C_3   0.731846 0.401195 0.740802 -0.397210
C21   C     C_3   0.271102 0.517508 0.172885 -0.367140
C22   C     C_3   0.847058 0.535481 0.754213 -0.029932
C23   C     C_3   0.298197 0.218636 0.451322 -0.403691
C24   C     C_3   0.215286 0.567265 0.280120 -0.061511
C25   C     C_3   0.998391 0.310347 0.808817 0.191255
C26   C     C_3   0.996751 0.689761 0.186275 0.185085
C27   C     C_R   0.001730 0.122721 0.621713 0.822722
C28   C     C_R   0.000676 0.879667 0.378342 0.821667
C29   C     C_R   0.120940 0.124742 0.503380 0.836269
C30   C     C_R   0.878981 0.874664 0.495883 0.836982
C31   C     C_R   0.997264 0.621377 0.118562 0.829685
C32   C     C_R   0.998043 0.378482 0.876773 0.816803
C33   C     C_R   0.878915 0.497131 0.875625 0.829694
C34   C     C_3   0.716709 0.783086 0.565161 -0.399213
C35   C     C_R   0.121231 0.496949 0.118077 0.843874
C36   C     C_3   0.915277 0.149408 0.690607 -0.411600
C37   C     C_3   0.076960 0.796796 0.349716 -0.364791
C38   C     C_3   0.080604 0.230727 0.783409 -0.376529
C39   C     C_3   0.008162 0.839175 0.240706 -0.399214
C40   C     C_3   0.002756 0.335153 0.737618 -0.403063
C41   C     C_3   0.911629 0.651283 0.191057 -0.365147
C42   C     C_3   0.079887 0.303276 0.853043 -0.415598
C43   C     C_3   0.002826 0.765398 0.165972 -0.399334
C44   C     C_3   0.914272 0.219247 0.762634 -0.379355
C45   C     C_3   0.311458 0.311468 0.501919 0.118731
C46   C     C_3   0.076917 0.727641 0.276673 -0.438487
C47   C     C_3   0.001908 0.190944 0.690086 0.186983
C48   C     C_3   0.999728 0.811567 0.309180 0.188242
C49   C     C_3   0.008093 0.266188 0.669242 -0.408220
C50   C     C_3   0.912099 0.724225 0.261416 -0.430834
C51   C     C_3   0.336875 0.335849 0.599166 -0.404074
C52   C     C_3   0.654194 0.674931 0.404436 -0.412839
C53   C     C_3   0.269476 0.262288 0.601445 0.062412
C54   C     C_3   0.723577 0.746256 0.401591 0.072261
C55   C     C_3   0.224520 0.309675 0.456637 -0.438606
C56   C     C_3   0.689580 0.688485 0.499155 0.121716
C57   C     C_3   0.770985 0.677011 0.524742 -0.428672
C58   C     C_3   0.569308 0.347975 0.654949 -0.992467
C59   C     C_3   0.391386 0.480531 0.213941 -0.923083
C60   C     C_3   0.883996 0.484836 0.707306 -0.418163
C61   C     C_3   0.941455 0.539146 0.680821 -0.342729
C62   C     C_3   0.974122 0.487494 0.631407 -0.908265
C63   C     C_3   0.234208 0.661276 0.297770 -0.412906
C64   C     C_3   0.315250 0.719071 0.297099 -0.300051
C65   C     C_3   0.342433 0.816246 0.344130 -0.931437
C66   C     C_3   0.248695 0.300112 0.674567 -0.998541
C67   C     C_3   0.188939 0.195213 0.505276 0.127110
C68   C     C_3   0.732518 0.706209 0.319810 -0.979745
C69   C     C_3   0.106783 0.286242 0.501646 -0.395488
C70   C     C_3   0.037719 0.291847 0.433794 -0.365182
C71   C     C_3   0.998590 0.340062 0.476397 -0.905543
C72   C     C_3   0.883995 0.704933 0.473313 -0.411237
C73   C     C_3   0.945975 0.682699 0.527888 -0.361110
C74   C     C_3   0.980430 0.636988 0.475331 -0.894185
C75   C     C_3   0.810825 0.804226 0.493978 0.124787
C76   C     C_3   0.151310 0.242601 0.460090 -0.019334
H1    H     H_    0.061249 0.400927 0.768269 0.183443
H2    H     H_    0.848297 0.894413 0.629919 0.175496
H3    H     H_    0.024934 0.621864 0.516498 0.247797
H4    H     H_    0.002680 0.744189 0.588915 0.218684
H5    H     H_    0.910750 0.638506 0.547535 0.218268
H6    H     H_    0.831158 0.643222 0.410863 0.210007
H7    H     H_    0.921415 0.750341 0.456228 0.210679
H8    H     H_    0.204933 0.290602 0.386394 0.137864
H9    H     H_    0.795231 0.683892 0.591705 0.129616
H10   H     H_    0.100117 0.190845 0.390224 0.154028
H11   H     H_    0.898878 0.792317 0.594882 0.157435
H12   H     H_    0.645598 0.529684 0.788037 0.177658
H13   H     H_    0.244774 0.357209 0.218868 0.187129
H14   H     H_    0.727228 0.623876 0.798997 0.174297
H15   H     H_    0.206191 0.389165 0.293439 0.147424
H16   H     H_    0.834473 0.622338 0.900640 0.156331
H17   H     H_    0.852777 0.621206 0.125601 0.157129
H18   H     H_    0.098756 0.387954 0.188936 0.185803
H19   H     H_    0.753271 0.527577 0.889941 0.179847
H20   H     H_    0.136051 0.354833 0.113146 0.166349
H21   H     H_    0.071018 0.297899 0.670421 0.155008
H22   H     H_    0.855949 0.732496 0.229069 0.179563
H23   H     H_    0.704631 0.374966 0.777475 0.205100
H24   H     H_    0.250231 0.461738 0.108706 0.164502
H25   H     H_    0.761174 0.502765 0.618693 0.180381
H26   H     H_    0.346327 0.635042 0.396880 0.179839
H27   H     H_    0.795244 0.608187 0.703561 0.145652
H28   H     H_    0.282307 0.200856 0.382113 0.190554
H29   H     H_    0.262456 0.550319 0.393809 0.168594
H30   H     H_    0.901598 0.604701 0.802856 0.162391
H31   H     H_    0.155796 0.540955 0.286357 0.127551
H32   H     H_    0.657943 0.365143 0.604665 0.161999
H33   H     H_    0.399025 0.599284 0.291519 0.123196
H34   H     H_    0.753260 0.356485 0.710386 0.122068
H35   H     H_    0.294636 0.576458 0.165927 0.153846
H36   H     H_    0.910496 0.198424 0.811716 0.179904
H37   H     H_    0.138246 0.759484 0.275489 0.178011
H38   H     H_    0.908564 0.093631 0.703138 0.150827
H39   H     H_    0.741403 0.793603 0.633518 0.182462
H40   H     H_    0.140729 0.859632 0.386944 0.166296
H41   H     H_    0.953730 0.239993 0.602132 0.181549
H42   H     H_    0.903118 0.704478 0.309641 0.154800
H43   H     H_    0.857944 0.122496 0.625124 0.174926
H44   H     H_    0.070910 0.774124 0.397037 0.174236
H45   H     H_    0.854658 0.223619 0.732521 0.157300
H46   H     H_    0.075590 0.674104 0.291471 0.152696
H47   H     H_    0.943447 0.338573 0.703927 0.151745
H48   H     H_    0.906805 0.598688 0.208417 0.181972
H49   H     H_    0.143707 0.258923 0.783949 0.167004
H50   H     H_    0.359651 0.218111 0.484189 0.177248
H51   H     H_    0.954803 0.852197 0.211637 0.179323
H52   H     H_    0.076600 0.178467 0.801106 0.176508
H53   H     H_    0.071789 0.901107 0.273707 0.149216
H54   H     H_    0.079110 0.287755 0.905999 0.149103
H55   H     H_    0.061992 0.793449 0.160002 0.181376
H56   H     H_    0.141031 0.367227 0.884601 0.171457
H57   H     H_    0.944316 0.739585 0.101858 0.149283
H58   H     H_    0.340274 0.399519 0.633721 0.198355
H59   H     H_    0.636107 0.607755 0.356981 0.192589
H60   H     H_    0.403235 0.345658 0.635448 0.140117
H61   H     H_    0.658922 0.792567 0.547688 0.179942
H62   H     H_    0.592989 0.678585 0.383612 0.127508
H63   H     H_    0.301619 0.226221 0.621637 0.173691
H64   H     H_    0.697816 0.790164 0.391634 0.168115
H65   H     H_    0.234286 0.377033 0.488659 0.175170
H66   H     H_    0.752055 0.609154 0.478123 0.184463
H67   H     H_    0.566226 0.378248 0.715648 0.248479
H68   H     H_    0.517746 0.343451 0.599203 0.242367
H69   H     H_    0.554231 0.279670 0.638411 0.246037
H70   H     H_    0.349246 0.407943 0.179993 0.256736
H71   H     H_    0.403995 0.497962 0.165823 0.230736
H72   H     H_    0.246574 0.111021 0.475269 0.181477
H73   H     H_    0.456405 0.502217 0.267814 0.254719
H74   H     H_    0.015336 0.470994 0.674192 0.261216
H75   H     H_    0.917706 0.425776 0.570559 0.266567
H76   H     H_    0.014319 0.527964 0.612170 0.250489
H77   H     H_    0.903664 0.557678 0.637553 0.215584
H78   H     H_    0.999064 0.600663 0.741081 0.216096
H79   H     H_    0.924653 0.469053 0.751405 0.207588
H80   H     H_    0.829136 0.421118 0.647473 0.198601
H81   H     H_    0.288467 0.826443 0.310638 0.260319
H82   H     H_    0.359713 0.839652 0.414326 0.260932
H83   H     H_    0.766382 0.894900 0.546062 0.175378
H84   H     H_    0.400797 0.856068 0.342433 0.247663
H85   H     H_    0.372229 0.712799 0.330127 0.206675
H86   H     H_    0.299533 0.700059 0.228036 0.227700
H87   H     H_    0.176078 0.654708 0.247799 0.198304
H88   H     H_    0.240067 0.696366 0.362996 0.200968
H89   H     H_    0.232367 0.351389 0.672896 0.241186
H90   H     H_    0.194248 0.247842 0.670811 0.250362
H91   H     H_    0.307525 0.331582 0.740239 0.247145
H92   H     H_    0.735870 0.645773 0.309233 0.241144
H93   H     H_    0.673666 0.687127 0.259741 0.243801
H94   H     H_    0.168761 0.101916 0.379741 0.170154
H95   H     H_    0.790673 0.753984 0.323995 0.253500
H96   H     H_    0.966128 0.304857 0.504387 0.261676
H97   H     H_    0.050815 0.408375 0.529854 0.265275
H98   H     H_    0.948960 0.343099 0.425911 0.250607
H99   H     H_    0.068163 0.327544 0.404874 0.218399
H100  H     H_    0.984010 0.224333 0.379507 0.221189
H101  H     H_    0.074250 0.248622 0.527853 0.214103
H102  H     H_    0.156381 0.354050 0.557640 0.206629
H103  H     H_    0.925157 0.574309 0.414712 0.258196
H104  H     H_    0.017603 0.680394 0.456322 0.255464
O1    O     O_R   0.592570 0.552270 0.644860 -0.631128
O2    O     O_R   0.407350 0.552250 0.459650 -0.637733
O3    O     O_R   0.407370 0.459660 0.552260 -0.630585
O4    O     O_R   0.592630 0.540340 0.447740 -0.636826
O5    O     O_R   0.407450 0.355140 0.447760 -0.631062
O6    O     O_R   0.592550 0.644860 0.552240 -0.631512
O7    O     O_R   0.052270 0.092540 0.644860 -0.631571
O8    O     O_R   0.947730 0.907460 0.355140 -0.631305
O9    O     O_R   0.947710 0.092600 0.540380 -0.629140
O10   O     O_R   0.052290 0.907400 0.459620 -0.632680
O11   O     O_R   0.144880 0.092570 0.552230 -0.625895
O12   O     O_R   0.407430 0.447730 0.355140 -0.618254
O13   O     O_R   0.855120 0.907430 0.447770 -0.624347
O14   O     O_R   0.040310 0.092630 0.447750 -0.636555
O15   O     O_R   0.959690 0.907370 0.552250 -0.633201
O16   O     O_R   0.052260 0.644880 0.092510 -0.628151
O17   O     O_R   0.947740 0.355120 0.907490 -0.632249
O18   O     O_R   0.947720 0.540390 0.092600 -0.628580
O19   O     O_R   0.052280 0.459610 0.907400 -0.633651
O20   O     O_R   0.959660 0.552230 0.907350 -0.636112
O21   O     O_R   0.040340 0.447770 0.092650 -0.630276
O22   O     O_R   0.855120 0.447750 0.907440 -0.628676
O23   O     O_R   0.144880 0.552250 0.092560 -0.630991
O24   O     O_R   0.592650 0.447750 0.540350 -0.635824
Zn1   Zn    Zn3+2 0.499940 0.569790 0.569780 0.910101
Zn2   Zn    Zn3+2 0.500060 0.430210 0.430220 0.909890
Zn3   Zn    Zn3+2 0.069820 0.999960 0.569760 0.912158
Zn4   Zn    Zn3+2 0.930180 0.000040 0.430240 0.910970
Zn5   Zn    Zn3+2 0.069800 0.569760 0.999940 0.907500
Zn6   Zn    Zn3+2 0.930200 0.430240 0.000060 0.910982

loop_
_geom_bond_atom_site_label_1
_geom_bond_atom_site_label_2
_ccdc_geom_bond_type
C66   H89   S    
C34   C56   S    
C23   C45   S    
C73   C74   S    
C44   H45   S    
C3    C23   S    
C8    H20   S    
C65   H82   S    
C36   H38   S    
C61   H78   S    
C58   H69   S    
C47   C49   S    
C37   H40   S    
C9    H32   S    
C63   H87   S    
C20   H23   S    
O18   Zn6   S    
C62   H76   S    
C57   H66   S    
C10   H33   S    
C55   H65   S    
C41   H48   S    
C19   C21   S    
C38   C42   S    
C32   O19   A    
C10   C15   S    
C28   O8    A    
C25   C40   S    
C22   C60   S    
C31   O16   A    
C68   H95   S    
C4    H83   S    
C54   C68   S    
C45   C51   S    
O9    Zn4   S    
C40   C49   S    
C33   O22   A    
O4    Zn2   S    
C56   C57   S    
C69   C76   S    
C9    C58   S    
C68   H93   S    
C43   H57   S    
C36   H43   S    
C4    C75   S    
O17   Zn6   S    
C69   H101  S    
C6    C15   S    
C29   C67   S    
C5    H12   S    
C58   H67   S    
C71   H96   S    
C54   H64   S    
C74   H103  S    
C30   O15   A    
C42   H56   S    
C52   H62   S    
C29   O11   A    
C70   C71   S    
C70   H99   S    
C5    H14   S    
C46   H37   S    
C25   C32   S    
C48   C50   S    
C26   C31   S    
O13   Zn4   S    
C50   H42   S    
C28   C48   S    
C61   C62   S    
C16   O3    A    
O22   Zn6   S    
C65   H84   S    
C2    C72   S    
C25   C44   S    
C73   H5    S    
C21   H35   S    
C52   C54   S    
C26   C43   S    
C59   H73   S    
C10   C21   S    
C63   H88   S    
C12   O12   A    
C4    C34   S    
C2    C57   S    
C8    C19   S    
C39   H51   S    
C62   H75   S    
C66   H90   S    
C63   C64   S    
C8    H18   S    
C13   H29   S    
C50   H22   S    
C5    C7    S    
C21   H24   S    
C1    O1    A    
C35   O21   A    
C6    C8    S    
C39   H53   S    
C33   O20   A    
C66   H91   S    
C34   H39   S    
C22   H30   S    
C71   H97   S    
C13   C24   S    
C61   H77   S    
C60   C61   S    
O19   Zn5   S    
C41   C50   S    
C16   C45   S    
O1    Zn1   S    
C9    C14   S    
C60   H80   S    
C4    H2    S    
C32   O17   A    
C69   H102  S    
C51   H60   S    
C9    C20   S    
C38   H52   S    
C23   H28   S    
C12   C15   S    
C17   O6    A    
C7    C18   S    
C5    C14   S    
O15   Zn3   S    
C2    H11   S    
C11   H25   S    
C24   H31   S    
C27   O7    A    
C12   O2    A    
C37   C48   S    
C53   C66   S    
C17   C56   S    
C38   C47   S    
C23   H50   S    
C20   H34   S    
O16   Zn5   S    
C44   H36   S    
C64   H86   S    
O24   Zn2   S    
C24   C63   S    
C74   H3    S    
C13   C15   S    
O3    Zn1   S    
C49   H41   S    
C36   C47   S    
C36   C44   S    
C6    H15   S    
C55   C76   S    
C51   H58   S    
C6    H13   S    
C76   H10   S    
O21   Zn6   S    
C38   H49   S    
C7    H19   S    
C27   C47   S    
C40   H47   S    
O8    Zn4   S    
C62   H74   S    
O6    Zn1   S    
C18   C22   S    
O12   Zn2   S    
O5    Zn2   S    
C3    C67   S    
C72   C73   S    
C28   O10   A    
C25   C42   S    
C39   C43   S    
C3    H94   S    
C1    C14   S    
O11   Zn3   S    
C65   H81   S    
O14   Zn4   S    
C34   H61   S    
O20   Zn5   S    
C42   H54   S    
C71   H98   S    
C16   O5    A    
O2    Zn1   S    
C41   H17   S    
C64   C65   S    
C43   H55   S    
C10   C59   S    
C13   H26   S    
C60   H79   S    
C19   C35   S    
C30   C75   S    
C17   O4    A    
C35   O23   A    
C64   H85   S    
C37   H44   S    
C52   C56   S    
C7    H16   S    
C11   C14   S    
C73   H4    S    
C57   H9    S    
C19   C24   S    
C18   C20   S    
C69   C70   S    
C53   C67   S    
C18   C33   S    
C68   H92   S    
C72   H7    S    
C53   H63   S    
C26   C46   S    
C49   H21   S    
C54   C75   S    
C30   O13   A    
C59   H70   S    
C58   H68   S    
O10   Zn3   S    
C3    H72   S    
C74   H104  S    
C45   C55   S    
C11   C22   S    
O7    Zn3   S    
C52   H59   S    
C46   H46   S    
C40   H1    S    
O23   Zn5   S    
C11   H27   S    
C67   C76   S    
C27   O9    A    
C51   C53   S    
C37   C46   S    
C1    O24   A    
C70   H100  S    
C55   H8    S    
C31   O18   A    
C72   H6    S    
C2    C75   S    
C29   O14   A    
C26   C41   S    
C39   C48   S    
C59   H71   S    
