data_mof_unit_40164.cif
_audit_creation_date              2012-12-10T19:50:48-0500
_audit_creation_method            fapswitch 2.2
_symmetry_space_group_name_H-M    P1
_symmetry_Int_Tables_number       1
_space_group_crystal_system       triclinic
_cell_length_a                    15.080739
_cell_length_b                    14.295956
_cell_length_c                    11.526024
_cell_angle_alpha                 90.353815
_cell_angle_beta                  91.775582
_cell_angle_gamma                 89.807051
_cell_volume                      2483.68376587

loop_
_atom_site_label
_atom_site_type_symbol
_atom_type_description
_atom_site_fract_x
_atom_site_fract_y
_atom_site_fract_z
_atom_type_partial_charge
C1    C     C_R   0.327732 0.500451 0.502263 0.993277
C2    C     C_R   0.500176 0.500232 0.717959 0.879028
C3    C     C_R   0.494625 0.105134 0.394391 0.376048
C4    C     C_R   0.556219 0.895918 0.573008 0.356978
C5    C     C_R   0.500950 0.105285 0.603538 0.370791
C6    C     C_R   0.441803 0.892945 0.421192 0.244580
C7    C     C_1   0.499924 0.499398 0.161571 -0.142036
C8    C     C_1   0.500157 0.500587 0.838433 -0.135441
C9    C     C_1   0.500018 0.499674 0.059342 0.012221
C10   C     C_1   0.500109 0.500290 0.940664 0.013317
C11   C     C_R   0.483789 0.203127 0.398734 0.327897
C12   C     C_R   0.671840 0.500077 0.492992 0.962849
C13   C     C_R   0.552506 0.797728 0.577545 0.318920
C14   C     C_R   0.514813 0.202809 0.600580 0.324478
C15   C     C_R   0.447580 0.793095 0.419804 0.371887
C16   C     C_R   0.096414 0.575248 0.426269 0.343830
C17   C     C_R   0.904021 0.424362 0.426991 0.369501
C18   C     C_R   0.905617 0.583791 0.503766 0.369484
C19   C     C_R   0.090660 0.428915 0.533626 0.374725
C20   C     C_R   0.185774 0.582175 0.457686 0.336526
C21   C     C_R   0.812812 0.419628 0.443660 0.282439
C22   C     C_R   0.814005 0.586210 0.490700 0.267853
C23   C     C_R   0.231206 0.502169 0.499179 -0.410274
C24   C     C_R   0.183106 0.423866 0.535227 0.255472
C25   C     C_3   0.586148 0.045493 0.259929 0.123212
C26   C     C_3   0.589353 0.985930 0.150442 -0.752431
C27   C     C_3   0.700239 0.939114 0.607624 0.139876
C28   C     C_3   0.761956 0.991447 0.692081 -0.808388
C29   C     C_3   0.411354 0.041520 0.737404 0.121216
C30   C     C_3   0.411270 0.969043 0.833383 -0.748187
C31   C     C_3   0.298223 0.938999 0.390846 0.093808
C32   C     C_3   0.238790 0.003242 0.317809 -0.797475
C33   C     C_3   0.036895 0.621109 0.251286 0.128636
C34   C     C_R   0.767202 0.501436 0.476515 -0.418645
C35   C     C_3   0.020834 0.707880 0.177832 -0.821087
C36   C     C_3   0.956830 0.358627 0.262717 0.116635
C37   C     C_3   0.993209 0.268503 0.211787 -0.814058
C38   C     C_3   0.943567 0.674386 0.661424 0.127302
C39   C     C_3   0.958604 0.776530 0.693919 -0.805901
C40   C     C_3   0.031573 0.389107 0.705146 0.126428
C41   C     C_3   0.976013 0.316659 0.765622 -0.841705
C42   C     C_3   0.195247 0.727956 0.540905 0.195344
C43   C     C_3   0.270384 0.755207 0.625598 -0.880440
C44   C     C_3   0.782625 0.269724 0.495691 0.210348
C45   C     C_R   0.047416 0.501425 0.472064 -0.166144
C46   C     C_3   0.747887 0.177228 0.448245 -0.864515
C47   C     C_3   0.767347 0.700296 0.368685 0.206536
C48   C     C_3   0.735698 0.801019 0.359195 -0.878355
C49   C     C_3   0.219927 0.270172 0.515740 0.212755
C50   C     C_3   0.261465 0.187516 0.579024 -0.883687
C51   C     C_R   0.951046 0.503778 0.466355 -0.167961
C52   C     C_R   0.497182 0.052933 0.498403 -0.189765
C53   C     C_R   0.498176 0.946136 0.497400 -0.134030
C54   C     C_R   0.499826 0.499769 0.282038 0.888949
H1    H     H_    0.622896 0.007279 0.330492 0.106093
H2    H     H_    0.738006 0.064321 0.704175 0.267119
H3    H     H_    0.372317 0.012304 0.662010 0.100084
H4    H     H_    0.378212 0.106011 0.768965 0.163521
H5    H     H_    0.447331 0.996312 0.911822 0.266240
H6    H     H_    0.341949 0.952850 0.855930 0.191010
H7    H     H_    0.443992 0.903734 0.803874 0.266878
H8    H     H_    0.299216 0.964867 0.482182 0.112572
H9    H     H_    0.269294 0.867779 0.386847 0.174561
H10   H     H_    0.232717 0.976102 0.227422 0.259670
H11   H     H_    0.171759 0.006747 0.354895 0.198375
H12   H     H_    0.619941 0.113073 0.243654 0.161333
H13   H     H_    0.267346 0.074744 0.316514 0.263781
H14   H     H_    0.407187 0.290093 0.322946 0.344582
H15   H     H_    0.609654 0.688701 0.643405 0.395101
H16   H     H_    0.592119 0.288996 0.677342 0.346097
H17   H     H_    0.374470 0.780120 0.278291 0.349843
H18   H     H_    0.975387 0.578505 0.247330 0.106729
H19   H     H_    0.092362 0.580694 0.212819 0.118729
H20   H     H_    0.081557 0.751683 0.178861 0.262296
H21   H     H_    0.003819 0.687095 0.086869 0.193558
H22   H     H_    0.965198 0.749550 0.212535 0.252491
H23   H     H_    0.555821 0.023067 0.076959 0.269028
H24   H     H_    0.004530 0.415587 0.245460 0.103366
H25   H     H_    0.891739 0.374076 0.218210 0.147656
H26   H     H_    0.946773 0.209976 0.226868 0.259813
H27   H     H_    0.001184 0.276552 0.116906 0.201307
H28   H     H_    0.058811 0.251850 0.253269 0.244804
H29   H     H_    0.995442 0.631109 0.706117 0.099938
H30   H     H_    0.877331 0.654206 0.693727 0.146334
H31   H     H_    0.906589 0.820731 0.651169 0.264537
H32   H     H_    0.955276 0.785571 0.789445 0.200235
H33   H     H_    0.024697 0.799748 0.665866 0.235920
H34   H     H_    0.659437 0.972217 0.128626 0.195825
H35   H     H_    0.996263 0.457527 0.709581 0.100650
H36   H     H_    0.096882 0.394586 0.752544 0.165447
H37   H     H_    0.009108 0.247203 0.762418 0.263802
H38   H     H_    0.968021 0.337264 0.857778 0.201940
H39   H     H_    0.909385 0.311708 0.722259 0.235234
H40   H     H_    0.141406 0.697495 0.593225 0.131175
H41   H     H_    0.167120 0.792124 0.500296 0.153605
H42   H     H_    0.322464 0.793596 0.580376 0.242342
H43   H     H_    0.244379 0.801433 0.694553 0.199427
H44   H     H_    0.299691 0.691769 0.666755 0.270099
H45   H     H_    0.555658 0.918077 0.164174 0.257176
H46   H     H_    0.747412 0.287372 0.576422 0.115775
H47   H     H_    0.854384 0.259992 0.518065 0.182773
H48   H     H_    0.776781 0.161926 0.362676 0.260484
H49   H     H_    0.767222 0.120630 0.508885 0.206118
H50   H     H_    0.674618 0.179915 0.438421 0.231543
H51   H     H_    0.719764 0.655215 0.318256 0.130839
H52   H     H_    0.833448 0.696272 0.328016 0.138095
H53   H     H_    0.668996 0.808471 0.395837 0.235854
H54   H     H_    0.783378 0.847940 0.405909 0.245078
H55   H     H_    0.731472 0.821828 0.266522 0.210329
H56   H     H_    0.702620 0.972607 0.520941 0.097093
H57   H     H_    0.256627 0.282039 0.434788 0.117416
H58   H     H_    0.149988 0.251747 0.492114 0.177183
H59   H     H_    0.223983 0.171909 0.658014 0.258188
H60   H     H_    0.260595 0.125131 0.521689 0.198346
H61   H     H_    0.330968 0.204280 0.604670 0.255397
H62   H     H_    0.724892 0.865901 0.601537 0.202977
H63   H     H_    0.764152 0.955780 0.777464 0.266829
H64   H     H_    0.829966 0.993050 0.657882 0.192248
N1    N     N_R   0.500000 0.252470 0.500000 -0.231972
N2    N     N_R   0.500000 0.747530 0.500000 -0.193578
O1    O     O_R   0.369060 0.579480 0.500010 -0.529590
O2    O     O_3   0.613471 0.942484 0.649474 -0.501194
O3    O     O_3   0.499860 0.061920 0.710387 -0.494810
O4    O     O_3   0.383750 0.938191 0.344946 -0.539302
O5    O     O_3   0.454990 0.246983 0.299181 -0.687170
O6    O     O_3   0.604135 0.755133 0.662481 -0.725987
O7    O     O_3   0.544685 0.245873 0.700760 -0.687426
O8    O     O_3   0.399135 0.739606 0.340768 -0.677485
O9    O     O_3   0.056597 0.648911 0.366858 -0.538321
O10   O     O_3   0.947858 0.347253 0.383165 -0.559790
O11   O     O_3   0.950284 0.663730 0.540029 -0.541283
O12   O     O_R   0.630940 0.420520 0.499990 -0.594871
O13   O     O_3   0.042719 0.360899 0.588974 -0.563083
O14   O     O_3   0.227331 0.668275 0.452020 -0.534693
O15   O     O_3   0.767020 0.339500 0.411164 -0.560510
O16   O     O_3   0.772177 0.672547 0.486612 -0.555057
O17   O     O_3   0.225827 0.349501 0.589223 -0.565894
O18   O     O_R   0.630940 0.579480 0.499990 -0.613711
O19   O     O_R   0.369060 0.420520 0.500010 -0.610220
O20   O     O_R   0.500010 0.579480 0.334450 -0.569167
O21   O     O_R   0.499990 0.420520 0.665550 -0.584036
O22   O     O_R   0.499990 0.579480 0.665550 -0.640991
O23   O     O_R   0.500010 0.420520 0.334450 -0.589295
O24   O     O_3   0.496747 0.061502 0.287227 -0.494352
Zn1   Zn    Zn3+2 0.500000 0.606140 0.500000 1.005079
Zn2   Zn    Zn3+2 0.500000 0.393860 0.500000 0.983204

loop_
_geom_bond_atom_site_label_1
_geom_bond_atom_site_label_2
_ccdc_geom_bond_type
H16   O7    S    
O23   Zn2   S    
O19   Zn2   S    
C49   O17   S    
C38   H29   S    
O22   Zn1   S    
C43   H44   S    
C39   H33   S    
C11   N1    A    
C17   C51   A    
C28   H2    S    
C35   H20   S    
N1    Zn2   S    
C46   H48   S    
C35   H21   S    
C36   C37   S    
C11   O5    S    
C31   O4    S    
C28   H63   S    
C38   C39   S    
C47   O16   S    
C48   H53   S    
C45   C51   S    
O18   Zn1   S    
C15   N2    A    
C50   H61   S    
C4    C13   A    
C49   C50   S    
C33   H18   S    
C6    C15   A    
C54   O20   A    
C47   C48   S    
C27   H56   S    
C47   H51   S    
C30   H6    S    
C23   C24   A    
C5    C52   A    
C44   H47   S    
C6    O4    S    
C40   H35   S    
C9    C10   S    
C1    O19   A    
C26   H45   S    
C49   H57   S    
C27   H62   S    
C44   O15   S    
C48   H55   S    
N2    Zn1   S    
C18   C22   A    
C31   H8    S    
C37   H27   S    
C18   O11   S    
C27   O2    S    
C44   C46   S    
C18   C51   A    
C22   C34   A    
C37   H26   S    
C41   H39   S    
C35   H22   S    
C26   H23   S    
C3    O24   S    
C42   H41   S    
C31   H9    S    
C32   H10   S    
C21   C34   A    
C25   C26   S    
C46   H50   S    
C17   C21   A    
C14   O7    S    
C22   O16   S    
C50   H60   S    
C16   C45   A    
C29   C30   S    
C36   O10   S    
C31   C32   S    
C20   C23   A    
C16   C20   A    
C47   H52   S    
C30   H5    S    
C43   H42   S    
C4    O2    S    
C16   O9    S    
C5    C14   A    
O21   Zn2   S    
C32   H13   S    
C13   O6    S    
C33   H19   S    
C40   C41   S    
C41   H37   S    
C29   H3    S    
H15   O6    S    
C1    C23   S    
C15   O8    S    
C49   H58   S    
C2    O22   A    
O1    Zn1   S    
C37   H28   S    
C25   O24   S    
C42   C43   S    
C39   H31   S    
C6    C53   A    
C12   C34   S    
C13   N2    A    
C52   C53   S    
C40   O13   S    
C33   O9    S    
C7    C9    T    
C20   O14   S    
C12   O12   A    
C38   H30   S    
C17   O10   S    
C42   H40   S    
C8    C10   T    
C2    C8    S    
C25   H12   S    
C43   H43   S    
C36   H25   S    
O20   Zn1   S    
C3    C52   A    
C19   C45   A    
C24   O17   S    
C19   O13   S    
C46   H49   S    
C5    O3    S    
C7    C54   S    
C42   O14   S    
C50   H59   S    
O12   Zn2   S    
C38   O11   S    
C19   C24   A    
C28   H64   S    
C44   H46   S    
C48   H54   S    
C29   O3    S    
C33   C35   S    
C25   H1    S    
C54   O23   A    
C12   O18   A    
H17   O8    S    
C1    O1    A    
C4    C53   A    
C3    C11   A    
C41   H38   S    
C29   H4    S    
C26   H34   S    
C14   N1    A    
C30   H7    S    
C27   C28   S    
C2    O21   A    
C36   H24   S    
C39   H32   S    
C40   H36   S    
H14   O5    S    
C21   O15   S    
C32   H11   S    
