data_mof_unit_33678.cif
_audit_creation_date              2012-12-10T19:21:59-0500
_audit_creation_method            fapswitch 2.2
_symmetry_space_group_name_H-M    P1
_symmetry_Int_Tables_number       1
_space_group_crystal_system       triclinic
_cell_length_a                    8.885057
_cell_length_b                    17.742289
_cell_length_c                    16.49801
_cell_angle_alpha                 89.257653
_cell_angle_beta                  97.519898
_cell_angle_gamma                 91.536058
_cell_volume                      2577.3552666

loop_
_atom_site_label
_atom_site_type_symbol
_atom_type_description
_atom_site_fract_x
_atom_site_fract_y
_atom_site_fract_z
_atom_type_partial_charge
C1    C     C_R   0.504450 0.355275 0.500735 0.958356
C2    C     C_R   0.495377 0.644907 0.499432 0.956500
C3    C     C_1   0.530160 0.966238 0.526200 0.139555
C4    C     C_1   0.532048 0.033845 0.525928 0.133421
C5    C     C_R   0.583471 0.553252 0.834744 -0.469787
C6    C     C_R   0.416125 0.445738 0.165719 -0.470265
C7    C     C_R   0.581756 0.554254 0.748047 0.652801
C8    C     C_R   0.415189 0.446452 0.252306 0.652186
C9    C     C_R   0.414196 0.446477 0.737226 0.502794
C10   C     C_R   0.589629 0.551641 0.262717 0.482123
C11   C     C_R   0.414872 0.444225 0.824240 0.314018
C12   C     C_R   0.581245 0.555599 0.175275 0.299568
C13   C     C_R   0.500227 0.498758 0.873393 -0.071695
C14   C     C_R   0.500787 0.499479 0.126950 -0.060455
C15   C     C_1   0.504080 0.498533 0.963245 0.062013
C16   C     C_1   0.502924 0.498290 0.037553 0.056404
C17   C     C_R   0.203845 0.497719 0.479368 0.816910
C18   C     C_R   0.796126 0.502846 0.520636 0.828402
C19   C     C_2   0.038275 0.496079 0.467471 0.245832
C20   C     C_2   0.961797 0.505466 0.532574 0.240365
C21   C     C_R   0.425704 0.844056 0.566655 0.360622
C22   C     C_R   0.636696 0.154184 0.479863 0.356537
C23   C     C_R   0.403831 0.765870 0.553831 0.310704
C24   C     C_R   0.624390 0.232848 0.467315 0.305627
C25   C     C_R   0.490974 0.728583 0.500709 -0.402385
C26   C     C_R   0.512516 0.271947 0.503316 -0.404492
C27   C     C_R   0.581725 0.772372 0.452926 0.317763
C28   C     C_R   0.408979 0.230890 0.545881 0.345569
C29   C     C_R   0.606429 0.849736 0.468037 0.344529
C30   C     C_R   0.421329 0.152861 0.557316 0.366285
C31   C     C_R   0.524451 0.885516 0.522429 -0.246943
C32   C     C_R   0.531994 0.114661 0.522452 -0.253744
Cu1   Cu    Cu3+1 0.499990 0.499980 0.580420 1.083926
Cu2   Cu    Cu3+1 0.500010 0.500020 0.419580 1.082578
H1    H     H_    0.652071 0.593723 0.872857 0.183988
H2    H     H_    0.348803 0.404774 0.127719 0.174177
N1    N     N_R   0.499960 0.499970 0.701210 -0.260714
N2    N     N_R   0.500040 0.500030 0.298790 -0.258129
O1    O     O_R   0.499990 0.391240 0.567930 -0.537991
O2    O     O_R   0.500010 0.608760 0.432070 -0.543125
O3    O     O_R   0.500000 0.391270 0.432120 -0.500194
O4    O     O_R   0.500000 0.608730 0.567880 -0.506099
O5    O     O_R   0.274830 0.499990 0.552240 -0.501863
O6    O     O_R   0.725170 0.500010 0.447760 -0.491653
O7    O     O_R   0.274840 0.500020 0.416420 -0.592451
O8    O     O_R   0.725160 0.499980 0.583580 -0.597074
O9    O     O_3   0.960636 0.496481 0.388456 -0.610799
C33   C     C_3   0.001144 0.437195 0.340078 -0.169695
H3    H     H_    0.058271 0.390058 0.375632 0.156406
H4    H     H_    0.073324 0.460309 0.295285 0.184338
H5    H     H_    0.896347 0.413709 0.304410 0.206812
O10   O     O_3   0.039700 0.507241 0.611556 -0.619529
C34   C     C_3   0.994144 0.566275 0.658660 -0.173866
H6    H     H_    0.917521 0.542985 0.701101 0.186980
H7    H     H_    0.940614 0.613805 0.621632 0.170578
H8    H     H_    0.095650 0.589180 0.697520 0.206672
O11   O     O_3   0.342540 0.881315 0.618241 -0.497332
C35   C     C_3   0.427805 0.884269 0.696523 -0.236504
H9    H     H_    0.360730 0.913447 0.738251 0.177525
H10   H     H_    0.536126 0.917050 0.695469 0.116169
H11   H     H_    0.450992 0.826719 0.721993 0.168254
O12   O     O_3   0.746044 0.114990 0.446603 -0.495776
C36   C     C_3   0.868679 0.102195 0.508437 -0.152547
H12   H     H_    0.837523 0.059551 0.553665 0.116838
H13   H     H_    0.910306 0.155164 0.540347 0.147995
H14   H     H_    0.964090 0.079643 0.479763 0.196571
S1    S     S_3+6 0.254358 0.717830 0.596511 -0.009946
O13   O     O_2   0.179670 0.661076 0.536451 -0.349654
O14   O     O_2   0.318985 0.678271 0.673799 -0.334971
O15   O     O_3   0.122015 0.777933 0.617997 -0.505933
H15   H     H_    0.050431 0.746944 0.646501 0.340963
S2    S     S_3+6 0.750563 0.281780 0.408546 -0.019738
O16   O     O_2   0.661069 0.315098 0.333699 -0.296292
O17   O     O_2   0.828870 0.344027 0.459798 -0.393224
O18   O     O_3   0.882303 0.226050 0.378158 -0.512658
H16   H     H_    0.940299 0.258798 0.343581 0.340975
O19   O     O_3   0.646223 0.740473 0.390386 -0.526434
C37   C     C_3   0.554943 0.757804 0.315964 -0.153579
H17   H     H_    0.521105 0.817859 0.310457 0.151757
H18   H     H_    0.451814 0.720376 0.307916 0.148126
H19   H     H_    0.620886 0.748290 0.264854 0.173331
O20   O     O_3   0.290893 0.266460 0.574839 -0.543095
C38   C     C_3   0.166874 0.266014 0.512171 -0.220117
H20   H     H_    0.065417 0.284918 0.537732 0.204347
H21   H     H_    0.139338 0.208534 0.487239 0.187238
H22   H     H_    0.189397 0.305404 0.462114 0.131130
O21   O     O_3   0.701157 0.891677 0.423559 -0.553357
C39   C     C_3   0.850808 0.887189 0.463782 -0.175316
H23   H     H_    0.891465 0.828323 0.465056 0.197431
H24   H     H_    0.860370 0.909710 0.527000 0.140847
H25   H     H_    0.926777 0.922316 0.429582 0.186109
O22   O     O_3   0.314750 0.113076 0.596032 -0.553911
C40   C     C_3   0.366409 0.110792 0.680489 -0.247175
H26   H     H_    0.376693 0.168411 0.706909 0.188495
H27   H     H_    0.476531 0.081619 0.693291 0.134186
H28   H     H_    0.282011 0.078200 0.711625 0.178720
O23   O     O_3   0.669545 0.605390 0.708503 -0.562306
C41   C     C_3   0.688322 0.676495 0.746441 -0.361364
H29   H     H_    0.783935 0.675669 0.797036 0.151854
H30   H     H_    0.582523 0.695501 0.768442 0.194313
H31   H     H_    0.718579 0.718697 0.700651 0.177388
O24   O     O_3   0.324573 0.397160 0.292491 -0.568535
C42   C     C_3   0.295123 0.326945 0.253632 -0.332282
H32   H     H_    0.257479 0.286000 0.298727 0.182761
H33   H     H_    0.398185 0.303964 0.232179 0.211325
H34   H     H_    0.200722 0.331451 0.202681 0.146942
O25   O     O_3   0.338723 0.391198 0.687442 -0.517521
C43   C     C_3   0.187384 0.378117 0.702793 -0.069202
H35   H     H_    0.138711 0.425879 0.732841 0.131150
H36   H     H_    0.179742 0.325514 0.739300 0.170488
H37   H     H_    0.114921 0.369167 0.643781 0.186028
O26   O     O_3   0.676646 0.602658 0.313567 -0.527512
C44   C     C_3   0.821549 0.618617 0.289772 -0.069964
H38   H     H_    0.819290 0.669926 0.250681 0.161222
H39   H     H_    0.867486 0.570795 0.258410 0.148146
H40   H     H_    0.901685 0.631968 0.345364 0.196339
O27   O     O_3   0.347010 0.383209 0.860151 -0.565921
C45   C     C_3   0.223099 0.406353 0.899011 -0.342793
H41   H     H_    0.180484 0.463343 0.879884 0.136060
H42   H     H_    0.254550 0.404631 0.966292 0.187967
H43   H     H_    0.127244 0.365372 0.884227 0.175782
O28   O     O_3   0.653444 0.613755 0.137623 -0.588697
C46   C     C_3   0.545736 0.668382 0.109315 -0.341493
H44   H     H_    0.607379 0.721318 0.095856 0.183639
H45   H     H_    0.469487 0.681648 0.155422 0.136196
H46   H     H_    0.476627 0.650030 0.051638 0.178149

loop_
_geom_bond_atom_site_label_1
_geom_bond_atom_site_label_2
_ccdc_geom_bond_type
O21   C39   S    
C36   H13   S    
C40   H26   S    
C27   C29   A    
S2    O17   D    
C19   C20   D    
O23   C41   S    
C46   H44   S    
O19   C37   S    
C21   C31   A    
Cu1   O1    S    
C22   C32   A    
Cu2   O2    S    
Cu1   O4    S    
C24   C26   A    
C37   H18   S    
C46   H45   S    
C22   O12   S    
C35   H10   S    
C15   C16   T    
C43   H35   S    
C18   C20   S    
C23   S1    S    
C45   H41   S    
C33   H5    S    
O9    C33   S    
C43   H36   S    
O25   C43   S    
C10   O26   S    
O15   H15   S    
C2    C25   S    
C5    C13   A    
C44   H40   S    
C35   H11   S    
C33   H4    S    
C36   H14   S    
C40   H27   S    
Cu1   O8    S    
Cu2   O3    S    
C8    N2    A    
S2    O18   S    
C18   O8    A    
O26   C44   S    
C34   H7    S    
C28   O20   S    
S1    O13   D    
Cu1   O5    S    
Cu2   O6    S    
C30   O22   S    
C5    C7    A    
C37   H17   S    
C46   H46   S    
C6    C8    A    
C35   H9    S    
C34   H6    S    
Cu1   N1    S    
S1    O14   D    
C45   H43   S    
O18   H16   S    
C17   O5    A    
C21   O11   S    
O12   C36   S    
C18   O6    A    
C6    C14   A    
C38   H20   S    
C39   H25   S    
C9    N1    A    
Cu1   Cu2   S    
C7    N1    A    
C42   H33   S    
Cu2   O7    S    
C3    C31   S    
C9    C11   A    
C4    C32   S    
C10   C12   A    
C1    O3    A    
C33   H3    S    
C38   H21   S    
C39   H24   S    
O20   C38   S    
C40   H28   S    
C41   H30   S    
C13   C15   S    
C1    C26   S    
C14   C16   S    
C9    O25   S    
C3    C4    T    
C11   O27   S    
O10   C34   S    
C24   S2    S    
C44   H38   S    
C34   H8    S    
C7    O23   S    
Cu2   N2    S    
C17   O7    A    
S2    O16   D    
C27   O19   S    
C25   C27   A    
C41   H31   S    
C26   C28   A    
C43   H37   S    
C10   N2    A    
S1    O15   S    
C21   C23   A    
C12   C14   A    
C29   C31   A    
O27   C45   S    
C30   C32   A    
C11   C13   A    
C37   H19   S    
O11   C35   S    
C2    O4    A    
C5    H1    S    
C28   C30   A    
O22   C40   S    
C17   C19   S    
C6    H2    S    
C42   H34   S    
C22   C24   A    
C23   C25   A    
O24   C42   S    
C45   H42   S    
C29   O21   S    
C1    O1    A    
C36   H12   S    
C2    O2    A    
C38   H22   S    
C12   O28   S    
C39   H23   S    
C20   O10   S    
C41   H29   S    
C19   O9    S    
C42   H32   S    
O28   C46   S    
C8    O24   S    
C44   H39   S    
