data_mof_unit_56485.cif
_audit_creation_date              2012-12-10T19:01:22-0500
_audit_creation_method            fapswitch 2.2
_symmetry_space_group_name_H-M    P1
_symmetry_Int_Tables_number       1
_space_group_crystal_system       triclinic
_cell_length_a                    9.558454
_cell_length_b                    10.878273
_cell_length_c                    15.486967
_cell_angle_alpha                 89.800244
_cell_angle_beta                  74.556163
_cell_angle_gamma                 90.440442
_cell_volume                      1552.10945102

loop_
_atom_site_label
_atom_site_type_symbol
_atom_type_description
_atom_site_fract_x
_atom_site_fract_y
_atom_site_fract_z
_atom_type_partial_charge
C1    C     C_R   0.998972 0.262839 0.500953 0.812501
C2    C     C_R   0.676410 0.506417 0.908316 0.093714
C3    C     C_R   0.776855 0.473228 0.957041 0.166320
C4    C     C_R   0.527764 0.525591 0.954428 0.068372
C5    C     C_R   0.480348 0.503737 0.048608 0.068727
C6    C     C_R   0.585133 0.472499 0.094544 -0.225296
C7    C     C_R   0.730133 0.457997 0.049465 -0.240141
C8    C     C_R   0.425301 0.567003 0.909697 -0.223450
C9    C     C_R   0.280546 0.582128 0.954701 -0.239401
C10   C     C_R   0.231526 0.556476 0.045752 0.168142
C11   C     C_R   0.330078 0.516016 0.093790 0.093027
C12   C     C_R   0.918446 0.499212 0.672079 0.806250
C13   C     C_R   0.084280 0.572221 0.089502 -0.217746
C14   C     C_R   0.032978 0.548957 0.180851 -0.199012
C15   C     C_R   0.274144 0.489987 0.185646 -0.257938
C16   C     C_R   0.117325 0.063737 0.506060 0.100889
C17   C     C_R   0.995742 0.130406 0.503259 -0.121122
C18   C     C_R   0.869148 0.063710 0.501908 -0.213490
C19   C     C_R   0.870119 0.934654 0.501395 -0.213775
C20   C     C_R   0.998011 0.870268 0.501647 -0.078948
C21   C     C_R   0.119219 0.939886 0.504194 0.049848
C22   C     C_3   0.276053 0.934697 0.501799 -0.536227
C23   C     C_R   0.000185 0.737404 0.500100 0.811210
C24   C     C_3   0.273222 0.076380 0.504140 0.346835
C25   C     C_R   0.606978 0.524525 0.423229 0.253096
C26   C     C_R   0.541878 0.464235 0.573613 -0.107602
C27   C     C_R   0.393324 0.464824 0.573742 -0.060416
C28   C     C_R   0.459787 0.522721 0.422919 0.249556
C29   C     C_3   0.476887 0.636344 0.367443 -0.501287
C30   C     C_3   0.634392 0.640683 0.369659 -0.503807
C31   C     C_R   0.081803 0.500638 0.327890 0.791006
C32   C     C_R   0.873636 0.495292 0.770384 -0.048773
C33   C     C_R   0.128219 0.510189 0.229747 -0.044410
C34   C     C_R   0.923468 0.454309 0.912627 -0.212797
C35   C     C_R   0.971916 0.466347 0.819907 -0.185277
C36   C     C_R   0.727891 0.515611 0.814599 -0.252828
Cu1   Cu    Cu3+1 0.140670 0.499980 0.500000 0.954865
Cu2   Cu    Cu3+1 0.859330 0.500020 0.500000 0.937009
H1    H     H_    0.806134 0.433197 0.087410 0.148698
H2    H     H_    0.009142 0.604919 0.053295 0.143088
H3    H     H_    0.770299 0.110500 0.500328 0.156362
H4    H     H_    0.771396 0.886148 0.499978 0.157070
H5    H     H_    0.294296 0.890276 0.562605 0.223107
H6    H     H_    0.343630 0.901014 0.436808 0.151284
H7    H     H_    0.337355 0.123674 0.441986 0.067417
H8    H     H_    0.569908 0.435592 0.633664 0.143885
H9    H     H_    0.311968 0.437429 0.633797 0.150202
H10   H     H_    0.463068 0.618589 0.299573 0.194713
H11   H     H_    0.341525 0.453892 0.225123 0.142512
H12   H     H_    0.411314 0.712368 0.403792 0.216017
H13   H     H_    0.709893 0.628071 0.302509 0.187463
H14   H     H_    0.660506 0.719795 0.408081 0.209717
H15   H     H_    0.919958 0.564173 0.213325 0.142804
H16   H     H_    0.206194 0.614379 0.917682 0.149894
H17   H     H_    0.000354 0.428117 0.949514 0.144950
H18   H     H_    0.085059 0.449639 0.786911 0.150638
H19   H     H_    0.656087 0.535328 0.773633 0.144788
H20   H     H_    0.559985 0.460169 0.165996 0.136213
H21   H     H_    0.453047 0.591627 0.839834 0.140994
N1    N     N_R   0.648210 0.500930 0.499430 -0.183520
N2    N     N_R   0.352300 0.500890 0.499430 -0.184894
O1    O     O_R   0.118810 0.319640 0.500000 -0.563525
O2    O     O_R   0.881230 0.319680 0.499990 -0.588992
O3    O     O_R   0.055580 0.499970 0.629840 -0.586648
O4    O     O_R   0.818000 0.500010 0.629830 -0.593921
O5    O     O_R   0.118770 0.680320 0.500010 -0.575019
O6    O     O_R   0.881190 0.680360 0.500000 -0.585944
O7    O     O_R   0.182000 0.499990 0.370170 -0.589484
O8    O     O_R   0.944420 0.500030 0.370160 -0.583364
O9    O     O_3   0.288668 0.125048 0.585502 -0.539457
C37   C     C_3   0.437640 0.139043 0.579658 -0.308292
H22   H     H_    0.491242 0.203847 0.524862 0.152317
H23   H     H_    0.493689 0.048870 0.570050 0.156844
H24   H     H_    0.449132 0.178303 0.643448 0.184460

loop_
_geom_bond_atom_site_label_1
_geom_bond_atom_site_label_2
_ccdc_geom_bond_type
C8    C9    A    
C30   H13   S    
C16   C21   A    
C6    H20   S    
C19   C20   A    
C4    C8    A    
C1    O1    A    
C14   C33   A    
Cu1   O1    S    
C24   O9    S    
C25   C28   A    
C26   C27   A    
C29   C30   S    
C24   H7    S    
C32   C36   A    
C23   O5    A    
C28   C29   S    
C5    C11   A    
C3    C7    A    
C8    H21   S    
C5    C6    A    
C12   O3    A    
C27   H9    S    
Cu1   O7    S    
C34   C35   A    
C23   O6    A    
C13   H2    S    
C27   N2    A    
C11   C15   A    
C22   H6    S    
C16   C17   A    
C31   C33   S    
O9    C37   S    
C25   N1    A    
C9    C10   A    
C19   H4    S    
C28   N2    A    
Cu2   O8    S    
C34   H17   S    
C16   C24   S    
C13   C14   A    
C12   C32   S    
C1    O2    A    
C29   H12   S    
C31   O7    A    
C29   H10   S    
C32   C35   A    
C36   H19   S    
C18   H3    S    
C37   H23   S    
C18   C19   A    
C3    C34   A    
C20   C23   S    
C2    C4    A    
Cu1   Cu2   S    
C22   H5    S    
Cu2   O4    S    
Cu1   O5    S    
C17   C18   A    
Cu2   O6    S    
Cu2   N1    S    
C22   C24   S    
Cu1   O3    S    
Cu2   O2    S    
C2    C36   A    
C25   C30   S    
C30   H14   S    
C35   H18   S    
C4    C5    A    
C10   C13   A    
C37   H24   S    
Cu1   N2    S    
C6    C7    A    
C12   O4    A    
C1    C17   S    
C2    C3    A    
C37   H22   S    
C15   H11   S    
C10   C11   A    
C26   H8    S    
C31   O8    A    
C14   H15   S    
C20   C21   A    
C7    H1    S    
C9    H16   S    
C21   C22   S    
C26   N1    A    
C15   C33   A    
