data_mof_unit_55761.cif
_audit_creation_date              2012-12-10T20:40:05-0500
_audit_creation_method            fapswitch 2.2
_symmetry_space_group_name_H-M    P1
_symmetry_Int_Tables_number       1
_space_group_crystal_system       triclinic
_cell_length_a                    23.443233
_cell_length_b                    10.673137
_cell_length_c                    9.849546
_cell_angle_alpha                 90.012298
_cell_angle_beta                  90.622608
_cell_angle_gamma                 90.113903
_cell_volume                      2464.33241042

loop_
_atom_site_label
_atom_site_type_symbol
_atom_type_description
_atom_site_fract_x
_atom_site_fract_y
_atom_site_fract_z
_atom_type_partial_charge
C1    C     C_R   0.501628 0.259938 0.500101 0.868358
C2    C     C_R   0.972266 0.280794 0.553042 0.458196
C3    C     C_R   0.031559 0.284017 0.548199 -0.149158
C4    C     C_R   0.060751 0.397519 0.531975 -0.112252
C5    C     C_R   0.030183 0.510252 0.520567 -0.020709
C6    C     C_R   0.059528 0.624783 0.505543 -0.007861
C7    C     C_R   0.028843 0.737191 0.496053 -0.145642
C8    C     C_R   0.969551 0.735895 0.499623 -0.135963
C9    C     C_R   0.120231 0.401201 0.528541 0.541602
C10   C     C_R   0.119070 0.623536 0.499065 0.520697
C11   C     C_R   0.240954 0.575198 0.602190 -0.087032
C12   C     C_R   0.389443 0.497987 0.499549 0.865488
C13   C     C_R   0.299983 0.569024 0.599786 -0.268837
C14   C     C_R   0.327367 0.498285 0.499748 -0.164024
C15   C     C_R   0.294717 0.431410 0.401816 0.416541
C16   C     C_R   0.235695 0.443346 0.401835 -0.080367
C17   C     C_R   0.208737 0.512736 0.503060 0.201722
C18   C     C_R   0.762204 0.450730 0.619816 -0.096926
C19   C     C_R   0.703218 0.439435 0.614913 0.422844
C20   C     C_R   0.672797 0.491879 0.503387 -0.167214
C21   C     C_R   0.702647 0.545888 0.395326 -0.257042
C22   C     C_R   0.761794 0.551119 0.398955 -0.081841
C23   C     C_R   0.501698 0.740063 0.500085 0.886354
C24   C     C_R   0.791577 0.504651 0.511759 0.207623
C25   C     C_R   0.507799 0.063965 0.623794 0.057030
C26   C     C_R   0.510397 0.128602 0.501332 -0.082063
C27   C     C_R   0.523490 0.064868 0.381147 -0.203289
C28   C     C_R   0.523495 0.935302 0.381129 -0.185411
C29   C     C_R   0.510489 0.871464 0.501354 -0.137969
C30   C     C_R   0.508178 0.936021 0.623914 0.044266
C31   C     C_3   0.464759 0.929623 0.734653 0.295491
C32   C     C_3   0.464745 0.072033 0.734548 -0.539727
C33   C     C_R   0.472338 0.407582 0.070417 0.180242
C34   C     C_R   0.610610 0.496610 0.500837 0.867729
C35   C     C_R   0.531720 0.584090 0.072896 -0.098623
C36   C     C_R   0.531801 0.583946 0.928784 -0.035599
C37   C     C_R   0.472253 0.407766 0.927746 0.197928
C38   C     C_3   0.410066 0.379366 0.920083 -0.489461
C39   C     C_3   0.410150 0.378897 0.074060 -0.440424
C40   C     C_R   0.880404 0.618798 0.511049 0.523716
C41   C     C_R   0.881027 0.394875 0.521204 0.520594
C42   C     C_R   0.940751 0.393189 0.534105 -0.144386
C43   C     C_R   0.970210 0.508421 0.522569 -0.062247
C44   C     C_R   0.939894 0.622034 0.511166 -0.004144
H1    H     H_    0.680204 0.585727 0.308871 0.180572
H2    H     H_    0.784537 0.591556 0.314413 0.166911
H3    H     H_    0.529840 0.114027 0.286262 0.173628
H4    H     H_    0.529828 0.886183 0.286219 0.174131
H5    H     H_    0.423573 0.886723 0.701961 0.136628
H6    H     H_    0.423572 0.112724 0.699079 0.178679
H7    H     H_    0.482839 0.115085 0.828428 0.216032
H8    H     H_    0.556398 0.653535 0.128027 0.141623
H9    H     H_    0.054705 0.196861 0.560344 0.214129
H10   H     H_    0.556617 0.653125 0.874950 0.162210
H11   H     H_    0.384725 0.457394 0.875438 0.228222
H12   H     H_    0.401294 0.285745 0.875159 0.205319
H13   H     H_    0.384837 0.456692 0.117940 0.251167
H14   H     H_    0.401681 0.284714 0.117593 0.220576
H15   H     H_    0.050479 0.826365 0.485350 0.203016
H16   H     H_    0.947055 0.824180 0.491407 0.215662
H17   H     H_    0.220166 0.627716 0.681612 0.168007
H18   H     H_    0.324343 0.619969 0.676004 0.177201
N1    N     N_R   0.852454 0.506434 0.514485 -0.346445
N2    N     N_R   0.147977 0.512744 0.510191 -0.346169
N3    N     N_R   0.499610 0.499140 0.142800 -0.110112
N4    N     N_R   0.499610 0.499180 0.857150 -0.110150
O1    O     O_R   0.500010 0.316790 0.614690 -0.616254
O2    O     O_2   0.851471 0.286645 0.510546 -0.517210
O3    O     O_2   0.150287 0.294304 0.544407 -0.546273
O4    O     O_2   0.147876 0.731659 0.480244 -0.544895
O5    O     O_R   0.500000 0.316760 0.385350 -0.628990
O6    O     O_R   0.416160 0.499980 0.614700 -0.617552
O7    O     O_R   0.416150 0.499940 0.385360 -0.607075
O8    O     O_R   0.500000 0.683240 0.614650 -0.599627
O9    O     O_R   0.499990 0.683210 0.385310 -0.620080
O10   O     O_R   0.583850 0.500060 0.614640 -0.604733
O11   O     O_R   0.583840 0.500020 0.385300 -0.616699
O12   O     O_2   0.850574 0.726821 0.507232 -0.538687
Zn1   Zn    Zn3+2 0.500000 0.500020 0.653130 0.974699
Zn2   Zn    Zn3+2 0.500000 0.499980 0.346870 0.959560
O13   O     O_3   0.947167 0.166826 0.579787 -0.715214
H19   H     H_    0.917892 0.181208 0.649879 0.367605
O14   O     O_3   0.677458 0.374409 0.718642 -0.745452
H20   H     H_    0.643752 0.329974 0.680738 0.341174
O15   O     O_3   0.486342 0.877379 0.855990 -0.744417
H21   H     H_    0.524920 0.912689 0.874284 0.337194
O16   O     O_3   0.318053 0.349740 0.309354 -0.769342
H22   H     H_    0.354796 0.318450 0.346178 0.330894
H23   H     H_    0.210346 0.393410 0.326684 0.174585
H24   H     H_    0.785680 0.412957 0.705845 0.167744

loop_
_geom_bond_atom_site_label_1
_geom_bond_atom_site_label_2
_ccdc_geom_bond_type
O16   H22   S    
C31   O15   S    
C9    N2    A    
C3    H9    S    
C41   C42   A    
C19   C20   A    
O10   Zn1   S    
O13   H19   S    
C33   N3    A    
C7    C8    A    
O15   H21   S    
N4    Zn1   S    
C26   C27   A    
C33   C39   S    
C40   N1    A    
C18   C24   A    
C5    C6    A    
C23   C29   S    
C21   C22   A    
C28   C29   A    
C9    O3    S    
O6    Zn1   S    
C17   N2    S    
C30   C31   S    
C36   N4    A    
C35   N3    A    
C15   C16   A    
C39   H13   S    
C18   C19   A    
C11   C17   A    
C38   H11   S    
C31   C32   S    
C16   C17   A    
C29   C30   A    
O9    Zn2   S    
C20   C34   S    
C25   C32   S    
C12   O6    A    
C16   H23   S    
N3    Zn2   S    
C13   C14   A    
C31   H5    S    
C19   O14   S    
C7    H15   S    
O5    Zn2   S    
C41   O2    S    
C21   H1    S    
C13   H18   S    
C18   H24   S    
O1    Zn1   S    
C25   C26   A    
C39   H14   S    
C33   C37   A    
C35   C36   A    
C43   C44   A    
C32   H7    S    
C37   C38   S    
O14   H20   S    
C37   N4    A    
C1    O5    A    
C32   H6    S    
C10   O4    S    
C22   H2    S    
C12   C14   S    
C24   N1    S    
O8    Zn1   S    
C1    C26   S    
C22   C24   A    
C42   C43   A    
C41   N1    A    
C23   O8    A    
C3    C4    A    
C35   H8    S    
C15   O16   S    
O11   Zn2   S    
C27   H3    S    
C25   C30   A    
C28   H4    S    
C10   N2    A    
C8    C44   A    
C23   O9    A    
C4    C5    A    
C11   H17   S    
C6    C10   A    
C6    C7    A    
C2    C3    A    
C34   O11   A    
C8    H16   S    
C11   C13   A    
C38   C39   S    
C2    C42   A    
C1    O1    A    
O7    Zn2   S    
C40   O12   S    
C5    C43   A    
C36   H10   S    
C40   C44   A    
C38   H12   S    
C20   C21   A    
C27   C28   A    
C14   C15   A    
C2    O13   S    
C4    C9    A    
C12   O7    A    
C34   O10   A    
