data_mof_unit_52541.cif
_audit_creation_date              2012-12-10T19:32:17-0500
_audit_creation_method            fapswitch 2.2
_symmetry_space_group_name_H-M    P1
_symmetry_Int_Tables_number       1
_space_group_crystal_system       triclinic
_cell_length_a                    23.473323
_cell_length_b                    15.733416
_cell_length_c                    14.947924
_cell_angle_alpha                 90.177586
_cell_angle_beta                  89.530894
_cell_angle_gamma                 90.402843
_cell_volume                      5520.15384007

loop_
_atom_site_label
_atom_site_type_symbol
_atom_type_description
_atom_site_fract_x
_atom_site_fract_y
_atom_site_fract_z
_atom_type_partial_charge
C1    C     C_R   0.499400 0.337725 0.500040 0.929178
C2    C     C_R   0.500943 0.662348 0.500067 0.930985
C3    C     C_R   0.235457 0.543701 0.555451 -0.152733
C4    C     C_R   0.764481 0.467008 0.572009 -0.046953
C5    C     C_R   0.295411 0.550585 0.554414 -0.118774
C6    C     C_R   0.704341 0.463358 0.571995 -0.146903
C7    C     C_R   0.327429 0.493883 0.500426 -0.152468
C8    C     C_R   0.673883 0.499893 0.499599 -0.168624
C9    C     C_R   0.300037 0.429903 0.449619 -0.053257
C10   C     C_R   0.704194 0.537623 0.427327 -0.037424
C11   C     C_R   0.241068 0.426827 0.448041 -0.091131
C12   C     C_R   0.763185 0.536876 0.426906 -0.147456
C13   C     C_R   0.208837 0.483594 0.498820 0.186052
C14   C     C_R   0.793169 0.502451 0.497683 0.227101
C15   C     C_3   0.489150 0.969270 0.587765 -0.080830
C16   C     C_3   0.508738 0.031105 0.424201 -0.066380
C17   C     C_3   0.538703 0.030287 0.562629 -0.065260
C18   C     C_3   0.459265 0.970501 0.449547 -0.106926
C19   C     C_1   0.497538 0.249330 0.501235 -0.106951
C20   C     C_1   0.502585 0.750927 0.500197 -0.104841
C21   C     C_3   0.446784 0.023766 0.534658 -0.113101
C22   C     C_3   0.551354 0.976824 0.477536 -0.087978
C23   C     C_R   0.389369 0.498332 0.500249 0.925608
C24   C     C_R   0.611090 0.499406 0.499775 0.888355
C25   C     C_3   0.496340 0.083889 0.508971 0.011508
C26   C     C_3   0.501634 0.916688 0.502808 -0.012872
C27   C     C_1   0.496245 0.174418 0.504882 0.033299
C28   C     C_1   0.503137 0.826017 0.500886 0.086772
C29   C     C_3   0.501658 0.420823 0.972428 -0.003533
C30   C     C_3   0.497198 0.583462 0.026720 0.009931
C31   C     C_3   0.547161 0.466069 0.031324 -0.284011
C32   C     C_3   0.451976 0.538416 0.967622 -0.236334
C33   C     C_3   0.454061 0.460373 0.030825 0.009082
C34   C     C_3   0.544843 0.544080 0.968024 -0.010866
C35   C     C_3   0.498861 0.505342 0.089770 -0.006934
C36   C     C_3   0.499982 0.498743 0.909615 -0.038910
C37   C     C_1   0.499493 0.502176 0.189892 0.057689
C38   C     C_1   0.499836 0.499573 0.809945 0.148676
C39   C     C_R   0.884374 0.572050 0.485576 0.592939
C40   C     C_R   0.117843 0.411921 0.508314 0.528967
C41   C     C_R   0.878943 0.420901 0.482503 0.519634
C42   C     C_R   0.122979 0.554283 0.455444 0.530885
C43   C     C_R   0.938687 0.414391 0.485719 -0.041344
C44   C     C_R   0.063335 0.561811 0.459004 -0.040618
C45   C     C_R   0.971103 0.490388 0.476626 -0.020922
C46   C     C_R   0.030966 0.487050 0.475916 -0.022218
C47   C     C_R   0.943489 0.569974 0.469480 -0.100663
C48   C     C_R   0.058688 0.409152 0.493557 -0.080237
C49   C     C_R   0.966629 0.335272 0.496781 -0.105566
C50   C     C_R   0.035530 0.640717 0.446230 -0.097096
C51   C     C_R   0.026605 0.332627 0.500187 -0.064788
C52   C     C_R   0.975620 0.644644 0.450632 -0.061316
H1    H     H_    0.586806 0.436867 0.056620 0.154634
H2    H     H_    0.412470 0.567824 0.942028 0.182463
H3    H     H_    0.219734 0.380007 0.406499 0.173731
H4    H     H_    0.786563 0.563203 0.370420 0.162525
N1    N     N_R   0.853800 0.498366 0.489540 -0.335342
N2    N     N_R   0.148348 0.483224 0.487654 -0.350834
N3    N     N_1   0.500020 0.500000 0.268010 -0.091939
N4    N     N_1   0.499980 0.500000 0.731990 -0.076496
O1    O     O_R   0.500000 0.376780 0.574460 -0.607696
O2    O     O_R   0.500000 0.623220 0.425540 -0.617683
O3    O     O_R   0.500010 0.376780 0.425520 -0.613474
O4    O     O_R   0.499990 0.623220 0.574480 -0.585824
O5    O     O_R   0.416150 0.499970 0.574490 -0.620476
O6    O     O_R   0.583850 0.500030 0.425510 -0.606337
O7    O     O_R   0.416160 0.499980 0.425550 -0.610702
O8    O     O_R   0.583840 0.500020 0.574450 -0.592794
O9    O     O_2   0.857333 0.646382 0.499548 -0.521427
O10   O     O_2   0.144799 0.345557 0.545650 -0.548149
O11   O     O_2   0.845636 0.351357 0.472447 -0.555273
O12   O     O_2   0.155950 0.616720 0.420639 -0.539552
Zn1   Zn    Zn3+2 0.499990 0.500000 0.599450 1.037775
Zn2   Zn    Zn3+2 0.500010 0.500000 0.400550 0.997997
C53   C     C_R   0.933984 0.254844 0.509180 0.177519
C54   C     C_R   0.908825 0.236085 0.592442 -0.018281
C55   C     C_R   0.877735 0.160717 0.603931 -0.079625
C56   C     C_R   0.871854 0.103627 0.532672 -0.090672
C57   C     C_R   0.897109 0.121769 0.449805 -0.106158
C58   C     C_R   0.928145 0.197150 0.437938 -0.098384
H5    H     H_    0.913041 0.280062 0.647931 0.135670
H6    H     H_    0.858158 0.146604 0.668034 0.151749
H7    H     H_    0.847744 0.045337 0.541660 0.139518
H8    H     H_    0.892556 0.077468 0.394746 0.140837
H9    H     H_    0.947444 0.210804 0.373463 0.135174
C59   C     C_R   0.068324 0.721049 0.434061 0.161563
C60   C     C_R   0.093266 0.761308 0.508172 -0.004091
C61   C     C_R   0.124276 0.836774 0.496909 -0.078598
C62   C     C_R   0.130251 0.872615 0.411857 -0.105905
C63   C     C_R   0.105209 0.833054 0.337920 -0.102607
C64   C     C_R   0.074269 0.757455 0.348838 -0.092314
H10   H     H_    0.088815 0.733989 0.574303 0.161752
H11   H     H_    0.143679 0.867461 0.554081 0.146556
H12   H     H_    0.154251 0.931057 0.403260 0.142883
H13   H     H_    0.109823 0.860940 0.272141 0.147469
H14   H     H_    0.055088 0.727165 0.291198 0.138933
C65   C     C_R   0.505219 0.326946 0.951496 0.145737
C66   C     C_R   0.514103 0.269473 0.021786 -0.101731
C67   C     C_R   0.517136 0.182157 0.004868 -0.130187
C68   C     C_R   0.511247 0.151319 0.917670 -0.072439
C69   C     C_R   0.502100 0.207753 0.847363 -0.087859
C70   C     C_R   0.498982 0.295155 0.864035 -0.139535
H15   H     H_    0.518477 0.292337 0.089840 0.122805
H16   H     H_    0.523961 0.138401 0.059434 0.152686
H17   H     H_    0.513563 0.083710 0.904630 0.170102
H18   H     H_    0.497165 0.183735 0.779878 0.174171
H19   H     H_    0.491079 0.336768 0.808473 0.136867
C71   C     C_R   0.493031 0.677184 0.047819 0.112197
C72   C     C_R   0.496561 0.736221 0.977559 -0.122014
C73   C     C_R   0.493963 0.823453 0.995185 -0.115792
C74   C     C_R   0.487534 0.852572 0.083041 -0.084249
C75   C     C_R   0.483111 0.794450 0.153223 -0.137379
C76   C     C_R   0.485286 0.707136 0.135796 -0.155664
H20   H     H_    0.501686 0.714678 0.909087 0.140635
H21   H     H_    0.497091 0.868480 0.940720 0.154495
H22   H     H_    0.485811 0.920116 0.096715 0.166683
H23   H     H_    0.478094 0.817063 0.221247 0.173778
H24   H     H_    0.481390 0.663961 0.191384 0.155084
C77   C     C_2   0.596492 0.590127 0.932278 0.888977
O13   O     O_2   0.628440 0.627013 0.983632 -0.651214
O14   O     O_R   0.607669 0.591216 0.840351 -0.779615
H25   H     H_    0.643562 0.624322 0.824625 0.371641
C78   C     C_2   0.400110 0.418621 0.062774 0.867913
O15   O     O_2   0.390213 0.344269 0.044426 -0.620489
O16   O     O_R   0.360590 0.466210 0.111628 -0.802497
H26   H     H_    0.325271 0.432034 0.128032 0.349466
C79   C     C_2   0.055216 0.248617 0.504494 0.996164
O17   O     O_2   0.045588 0.200659 0.567138 -0.615146
O18   O     O_R   0.093061 0.224797 0.436342 -0.780676
H27   H     H_    0.109898 0.166483 0.446492 0.345875
C80   C     C_2   0.947162 0.726313 0.429470 0.990773
O19   O     O_2   0.956485 0.789637 0.474850 -0.613984
O20   O     O_R   0.909795 0.730194 0.357260 -0.786395
H28   H     H_    0.892957 0.788845 0.349464 0.343545
C81   C     C_2   0.199956 0.600872 0.612504 1.000136
O21   O     O_2   0.207872 0.677627 0.610261 -0.558987
O22   O     O_R   0.156828 0.568423 0.667974 -0.766539
H29   H     H_    0.155816 0.504069 0.669267 0.319032
C82   C     C_2   0.798262 0.432252 0.647373 0.965614
O23   O     O_2   0.785739 0.363494 0.680331 -0.607110
O24   O     O_R   0.845483 0.477573 0.678967 -0.790029
H30   H     H_    0.865704 0.446900 0.728954 0.346499
C83   C     C_2   0.324629 0.616955 0.608798 0.977853
O25   O     O_2   0.313985 0.623737 0.688719 -0.601166
O26   O     O_R   0.364454 0.671349 0.568303 -0.790173
H31   H     H_    0.381561 0.713613 0.612011 0.355845
C84   C     C_2   0.674002 0.419865 0.646705 1.014281
O27   O     O_2   0.643383 0.358393 0.631347 -0.593870
O28   O     O_R   0.680816 0.449121 0.734396 -0.765682
H32   H     H_    0.657757 0.414718 0.779273 0.351726
C85   C     C_R   0.331551 0.360984 0.403415 0.081834
C86   C     C_R   0.359981 0.375674 0.321861 -0.084241
C87   C     C_R   0.390786 0.310428 0.280589 -0.110538
C88   C     C_R   0.391414 0.229388 0.318362 -0.080169
C89   C     C_R   0.361560 0.213557 0.397807 -0.126536
C90   C     C_R   0.332011 0.279160 0.440644 -0.179461
H33   H     H_    0.359167 0.437963 0.291408 0.177040
H34   H     H_    0.414305 0.322543 0.219477 0.154474
H35   H     H_    0.414836 0.178830 0.285904 0.189373
H36   H     H_    0.361503 0.150504 0.426185 0.182992
H37   H     H_    0.309488 0.266356 0.502710 0.159297
C91   C     C_R   0.676133 0.576823 0.349478 0.145752
C92   C     C_R   0.684386 0.541875 0.263857 -0.162204
C93   C     C_R   0.656771 0.576407 0.190285 -0.097992
C94   C     C_R   0.620558 0.645710 0.201697 -0.100482
C95   C     C_R   0.611665 0.680332 0.286734 -0.157285
C96   C     C_R   0.640372 0.647466 0.360310 -0.072088
H38   H     H_    0.711698 0.487317 0.254358 0.144962
H39   H     H_    0.663255 0.548814 0.124708 0.178029
H40   H     H_    0.599365 0.672602 0.144747 0.183019
H41   H     H_    0.582456 0.732557 0.295543 0.132492
H42   H     H_    0.633562 0.675310 0.425865 0.110600
C97   C     C_2   0.579240 0.064600 0.631407 0.892192
O29   O     O_2   0.604068 0.015490 0.680591 -0.623561
O30   O     O_R   0.587747 0.152200 0.640007 -0.772746
H43   H     H_    0.615505 0.167249 0.689280 0.365081
C98   C     C_2   0.415225 0.938035 0.385301 0.930617
O31   O     O_2   0.383925 0.988255 0.347967 -0.611176
O32   O     O_R   0.409747 0.850891 0.369150 -0.813791
H44   H     H_    0.378542 0.837151 0.324800 0.355754
C99   C     C_2   0.477836 0.935359 0.680210 0.958436
O33   O     O_2   0.468300 0.984895 0.741577 -0.644630
O34   O     O_R   0.478149 0.847865 0.695771 -0.800305
H45   H     H_    0.469932 0.833243 0.760636 0.340313
C100  C     C_2   0.521209 0.068675 0.333655 0.888046
O35   O     O_2   0.492924 0.047521 0.268948 -0.651090
O36   O     O_R   0.565917 0.127072 0.323989 -0.781553
H46   H     H_    0.570367 0.147987 0.260211 0.337289
C101  C     C_R   0.607148 0.948389 0.436324 0.142143
C102  C     C_R   0.659934 0.968223 0.475270 -0.087641
C103  C     C_R   0.710772 0.943555 0.433574 -0.120678
C104  C     C_R   0.709507 0.899997 0.352108 -0.085773
C105  C     C_R   0.657379 0.880989 0.312231 -0.130697
C106  C     C_R   0.606425 0.904272 0.354443 -0.163642
H47   H     H_    0.662601 0.003345 0.536981 0.160968
H48   H     H_    0.751232 0.958986 0.464077 0.140360
H49   H     H_    0.748907 0.881518 0.319602 0.143174
H50   H     H_    0.656473 0.848335 0.248434 0.151450
H51   H     H_    0.566327 0.889155 0.322543 0.130493
C107  C     C_R   0.388712 0.045305 0.572216 0.123005
C108  C     C_R   0.344626 0.984463 0.569492 -0.109374
C109  C     C_R   0.290809 0.003196 0.604759 -0.113914
C110  C     C_R   0.280832 0.082146 0.644656 -0.084899
C111  C     C_R   0.324872 0.142024 0.650332 -0.137126
C112  C     C_R   0.378711 0.123597 0.614929 -0.141184
H52   H     H_    0.351834 0.922336 0.540443 0.152989
H53   H     H_    0.256917 0.956294 0.601555 0.150128
H54   H     H_    0.239166 0.096566 0.672028 0.155329
H55   H     H_    0.317360 0.202720 0.682452 0.151304
H56   H     H_    0.412292 0.170299 0.622058 0.137120

loop_
_geom_bond_atom_site_label_1
_geom_bond_atom_site_label_2
_ccdc_geom_bond_type
C55   C56   A    
C60   C61   A    
C94   C95   A    
C16   C25   S    
C18   C21   S    
C11   C13   A    
C108  C109  A    
C92   C93   A    
C18   C26   S    
O34   H45   S    
C42   N2    A    
O26   H31   S    
C100  O35   D    
O28   H32   S    
C81   O21   D    
C99   O33   D    
C29   C36   S    
C68   H17   S    
C69   C70   A    
C40   O10   S    
C30   C35   S    
C32   C36   S    
C93   C94   A    
C84   O28   S    
C91   C92   A    
C59   C64   A    
C57   H8    S    
C78   O16   S    
C83   O25   D    
O6    Zn2   S    
C107  C112  A    
C29   C33   S    
N4    Zn1   S    
C69   H18   S    
O5    Zn1   S    
C71   C72   A    
C83   O26   S    
C23   O7    A    
C87   H34   S    
C103  H48   S    
C34   C77   S    
C33   C35   S    
C64   H14   S    
C73   C74   A    
C101  C106  A    
C48   C51   A    
C84   O27   D    
C18   C98   S    
C17   C97   S    
C107  C108  A    
C98   O32   S    
C111  H55   S    
C50   C52   A    
O4    Zn1   S    
C49   C53   S    
C74   H22   S    
C5    C83   S    
C19   C27   T    
C53   C58   A    
C3    C81   S    
C65   C70   A    
C3    C13   A    
C24   O6    A    
C41   O11   S    
C30   C71   S    
C61   C62   A    
C45   C47   A    
C67   H16   S    
C85   C86   A    
C95   H41   S    
C10   C91   S    
C81   O22   S    
C60   H10   S    
C41   C43   A    
C93   H39   S    
C101  C102  A    
C42   C44   A    
C1    O3    A    
C32   H2    S    
C75   C76   A    
C44   C46   A    
C65   C66   A    
C7    C9    A    
C97   O30   S    
C82   O23   D    
C46   C48   A    
C1    C19   S    
C40   N2    A    
C109  C110  A    
C30   C34   S    
C2    C20   S    
C103  C104  A    
C78   O15   D    
C54   C55   A    
C2    O4    A    
C4    C6    A    
C99   O34   S    
C5    C7    A    
C61   H11   S    
C56   C57   A    
C43   C49   A    
C15   C26   S    
C6    C8    A    
C13   N2    S    
C20   C28   T    
C49   C51   A    
O8    Zn1   S    
C97   O29   D    
C24   O8    A    
C91   C96   A    
C32   C33   S    
C71   C76   A    
C47   C52   A    
C53   C54   A    
C79   O18   S    
C102  C103  A    
C58   H9    S    
C9    C11   A    
C56   H7    S    
C67   C68   A    
C108  H52   S    
C42   O12   S    
C39   O9    S    
C31   C34   S    
C70   H19   S    
O7    Zn2   S    
C37   N3    T    
C85   C90   A    
C31   H1    S    
C22   C101  S    
C43   C45   A    
N3    Zn2   S    
C88   C89   A    
C12   H4    S    
C77   O14   S    
C10   C12   A    
C72   H20   S    
C98   O31   D    
C38   N4    T    
C102  H47   S    
C112  H56   S    
C12   C14   A    
C90   H37   S    
C66   C67   A    
C109  H53   S    
O20   H28   S    
C31   C35   S    
C57   C58   A    
C21   C107  S    
C79   O17   D    
C3    C5    A    
C11   H3    S    
C39   C47   A    
O18   H27   S    
C110  H54   S    
C44   C50   A    
C94   H40   S    
C40   C48   A    
C14   N1    S    
C21   C25   S    
C86   H33   S    
C9    C85   S    
C16   C22   S    
C74   C75   A    
C35   C37   S    
C89   H36   S    
C59   C60   A    
C52   C80   S    
C16   C18   S    
C66   H15   S    
C17   C25   S    
C80   O20   S    
C1    O1    A    
C54   H5    S    
C62   H12   S    
C77   O13   D    
O14   H25   S    
C15   C17   S    
C96   H42   S    
O3    Zn2   S    
O32   H44   S    
C25   C27   S    
O22   H29   S    
C26   C28   S    
C17   C22   S    
C29   C65   S    
C75   H23   S    
C16   C100  S    
O1    Zn1   S    
C104  C105  A    
C23   O5    A    
C36   C38   S    
C92   H38   S    
C87   C88   A    
C51   C79   S    
C88   H35   S    
C29   C31   S    
O30   H43   S    
O24   H30   S    
C104  H49   S    
C4    C82   S    
C30   C32   S    
C6    C84   S    
C82   O24   S    
C63   C64   A    
O16   H26   S    
C95   C96   A    
C55   H6    S    
C7    C23   S    
C15   C99   S    
C68   C69   A    
C8    C24   S    
C34   C36   S    
C4    C14   A    
C80   O19   D    
C100  O36   S    
C50   C59   S    
C41   N1    A    
C76   H24   S    
C106  H51   S    
C45   C46   A    
C15   C21   S    
C111  C112  A    
C8    C10   A    
C105  C106  A    
C22   C26   S    
C89   C90   A    
C33   C78   S    
O2    Zn2   S    
O36   H46   S    
C86   C87   A    
C110  C111  A    
C62   C63   A    
C72   C73   A    
C2    O2    A    
C73   H21   S    
C63   H13   S    
C105  H50   S    
C39   N1    A    
