data_mof_unit_65489.cif
_audit_creation_date              2012-12-10T19:31:14-0500
_audit_creation_method            fapswitch 2.2
_symmetry_space_group_name_H-M    P1
_symmetry_Int_Tables_number       1
_space_group_crystal_system       triclinic
_cell_length_a                    30.381844
_cell_length_b                    29.135819
_cell_length_c                    30.905874
_cell_angle_alpha                 89.643974
_cell_angle_beta                  90.081264
_cell_angle_gamma                 90.67041
_cell_volume                      27355.4511481

loop_
_atom_site_label
_atom_site_type_symbol
_atom_type_description
_atom_site_fract_x
_atom_site_fract_y
_atom_site_fract_z
_atom_type_partial_charge
C1    C     C_R   0.310292 0.000903 0.690282 0.881416
C2    C     C_R   0.689842 0.999857 0.690336 0.872641
C3    C     C_R   0.810216 0.501622 0.690379 0.867297
C4    C     C_R   0.189677 0.499299 0.690376 0.861553
C5    C     C_R   0.810292 0.000902 0.190282 0.881472
C6    C     C_R   0.189843 0.999857 0.190336 0.872639
C7    C     C_R   0.310292 0.500902 0.190282 0.881464
C8    C     C_R   0.689842 0.499857 0.190336 0.872568
C9    C     C_R   0.369920 0.029214 0.588744 -0.237795
C10   C     C_R   0.623525 0.964695 0.595373 -0.226402
C11   C     C_R   0.886270 0.457927 0.607366 -0.224381
C12   C     C_R   0.128273 0.532556 0.592151 -0.259395
C13   C     C_R   0.869926 0.029223 0.088750 -0.237767
C14   C     C_R   0.123515 0.964681 0.095384 -0.226426
C15   C     C_R   0.369925 0.529220 0.088748 -0.237861
C16   C     C_R   0.623518 0.464687 0.095380 -0.226353
C17   C     C_R   0.404845 0.998424 0.591781 -0.075110
C18   C     C_R   0.592748 0.000345 0.594158 -0.082554
C19   C     C_R   0.902753 0.499431 0.590285 -0.104449
C20   C     C_R   0.094529 0.499539 0.592397 -0.092571
C21   C     C_R   0.904845 0.998425 0.091782 -0.075136
C22   C     C_R   0.092753 0.000345 0.094154 -0.082603
C23   C     C_R   0.404846 0.498424 0.091782 -0.075127
C24   C     C_R   0.592749 0.500345 0.094157 -0.082605
C25   C     C_R   0.405946 0.966147 0.625097 0.067636
C26   C     C_R   0.598006 0.037742 0.621440 0.072739
C27   C     C_R   0.884173 0.540727 0.603022 0.060179
C28   C     C_R   0.093710 0.465056 0.623570 0.064660
C29   C     C_R   0.905936 0.966136 0.125090 0.067686
C30   C     C_R   0.098029 0.037753 0.121419 0.072768
C31   C     C_R   0.405937 0.466137 0.125090 0.067713
C32   C     C_R   0.598018 0.537748 0.121430 0.072759
C33   C     C_3   0.443386 0.952795 0.653591 -0.543745
C34   C     C_3   0.566040 0.065063 0.647163 -0.517402
C35   C     C_3   0.905398 0.585625 0.613775 -0.502327
C36   C     C_3   0.055698 0.449604 0.650459 -0.537703
C37   C     C_3   0.943368 0.952762 0.153586 -0.543749
C38   C     C_3   0.066080 0.065112 0.147126 -0.517301
C39   C     C_3   0.443369 0.452763 0.153586 -0.543663
C40   C     C_3   0.566066 0.565096 0.147143 -0.517414
C41   C     C_3   0.411856 0.957693 0.692336 0.222679
C42   C     C_3   0.598978 0.061841 0.685026 0.199993
C43   C     C_3   0.875097 0.586870 0.653575 0.183010
C44   C     C_3   0.087176 0.451938 0.689256 0.213231
C45   C     C_3   0.911834 0.957655 0.192328 0.222710
C46   C     C_3   0.099020 0.061898 0.184989 0.200035
C47   C     C_3   0.411833 0.457652 0.192328 0.222614
C48   C     C_3   0.599006 0.561878 0.185005 0.200006
C49   C     C_R   0.166346 0.985924 0.883648 0.081665
C50   C     C_R   0.842635 0.031680 0.874931 0.061130
C51   C     C_R   0.666339 0.485914 0.883641 0.080840
C52   C     C_R   0.342623 0.531663 0.874942 0.060236
C53   C     C_R   0.666339 0.985892 0.383639 0.081676
C54   C     C_R   0.342630 0.031675 0.374936 0.061005
C55   C     C_R   0.165967 0.479913 0.383970 0.083361
C56   C     C_R   0.843839 0.533020 0.373740 0.058710
C57   C     C_R   0.156288 0.998435 0.841733 -0.167909
C58   C     C_R   0.844146 0.000445 0.841293 -0.158295
C59   C     C_R   0.656288 0.498447 0.841731 -0.168437
C60   C     C_R   0.344145 0.500440 0.841294 -0.158545
C61   C     C_R   0.656288 0.998432 0.341731 -0.167994
C62   C     C_R   0.344147 0.000447 0.341293 -0.158358
C63   C     C_R   0.155910 0.494268 0.341970 -0.169006
C64   C     C_R   0.844063 0.500337 0.341308 -0.155942
C65   C     C_R   0.113180 0.012831 0.832351 -0.253436
C66   C     C_R   0.881331 0.972985 0.835937 -0.255557
C67   C     C_R   0.613186 0.512862 0.832353 -0.252584
C68   C     C_R   0.381338 0.472994 0.835931 -0.255236
C69   C     C_R   0.613186 0.012850 0.332355 -0.253422
C70   C     C_R   0.381338 0.972996 0.335932 -0.255525
C71   C     C_R   0.112258 0.505769 0.331564 -0.249071
C72   C     C_R   0.880156 0.471216 0.336895 -0.255377
C73   C     C_R   0.081775 0.014367 0.865454 0.417349
C74   C     C_R   0.913788 0.972398 0.867792 0.417865
C75   C     C_R   0.581778 0.514394 0.865455 0.417275
C76   C     C_R   0.413795 0.472409 0.867787 0.417760
C77   C     C_R   0.581781 0.014386 0.365459 0.417401
C78   C     C_R   0.413794 0.972409 0.367787 0.417828
C79   C     C_R   0.080911 0.508921 0.364256 0.408903
C80   C     C_R   0.912658 0.470616 0.368700 0.421125
C81   C     C_R   0.094095 0.001878 0.907956 -0.231853
C82   C     C_R   0.908941 0.000511 0.904374 -0.218706
C83   C     C_R   0.594092 0.501879 0.907952 -0.231869
C84   C     C_R   0.408940 0.500509 0.904375 -0.218630
C85   C     C_R   0.594096 0.001874 0.407956 -0.231928
C86   C     C_R   0.408942 0.000511 0.404374 -0.218644
C87   C     C_R   0.093908 0.501580 0.407349 -0.225507
C88   C     C_R   0.909051 0.500488 0.404217 -0.221115
C89   C     C_R   0.250050 0.914249 0.749865 0.883987
C90   C     C_R   0.750079 0.085734 0.749762 0.874468
C91   C     C_R   0.749821 0.914259 0.750149 0.877695
C92   C     C_R   0.250067 0.085757 0.750045 0.883420
C93   C     C_R   0.749949 0.414243 0.749939 0.881691
C94   C     C_R   0.250172 0.585739 0.749825 0.885540
C95   C     C_R   0.250108 0.414271 0.750379 0.866887
C96   C     C_R   0.750094 0.585753 0.750007 0.862559
C97   C     C_R   0.750030 0.914245 0.249872 0.883884
C98   C     C_R   0.250094 0.085737 0.249765 0.874339
C99   C     C_R   0.249817 0.914263 0.250160 0.877764
C100  C     C_R   0.750058 0.085754 0.250047 0.883550
C101  C     C_R   0.250035 0.414245 0.249866 0.885875
C102  C     C_R   0.750095 0.585737 0.249767 0.873693
C103  C     C_R   0.749817 0.414263 0.250160 0.877805
C104  C     C_R   0.250054 0.585754 0.250052 0.883459
C105  C     C_R   0.137411 0.990186 0.915958 -0.005285
C106  C     C_R   0.874367 0.031366 0.906233 0.015408
C107  C     C_R   0.637403 0.490167 0.915952 -0.004914
C108  C     C_R   0.374355 0.531349 0.906245 0.015460
C109  C     C_R   0.637405 0.990149 0.415952 -0.005145
C110  C     C_R   0.374362 0.031358 0.406239 0.015351
C111  C     C_R   0.136410 0.487563 0.416284 0.007721
C112  C     C_R   0.875688 0.532847 0.404916 0.017961
C113  C     C_3   0.170178 0.975081 0.949592 0.197788
C114  C     C_3   0.842244 0.043594 0.941375 0.185525
C115  C     C_3   0.670164 0.475034 0.949580 0.197574
C116  C     C_3   0.342225 0.543548 0.941390 0.185665
C117  C     C_3   0.670171 0.975021 0.449579 0.197799
C118  C     C_3   0.342236 0.043572 0.441383 0.185530
C119  C     C_3   0.171615 0.502498 0.447947 0.188166
C120  C     C_3   0.844358 0.548374 0.439566 0.187770
C121  C     C_3   0.202621 0.968409 0.911394 -0.478479
C122  C     C_3   0.806886 0.044360 0.905665 -0.469978
C123  C     C_3   0.702607 0.468372 0.911381 -0.477959
C124  C     C_3   0.306868 0.544317 0.905679 -0.469794
C125  C     C_3   0.702611 0.968357 0.411377 -0.478732
C126  C     C_3   0.306879 0.044344 0.405672 -0.469806
C127  C     C_3   0.204755 0.488695 0.412889 -0.488419
C128  C     C_3   0.808791 0.548636 0.404009 -0.476876
C129  C     C_R   0.939825 0.999962 0.938874 1.015049
C130  C     C_R   0.062925 0.000464 0.941867 0.977306
C131  C     C_R   0.439825 0.499962 0.938875 1.015002
C132  C     C_R   0.562921 0.500464 0.941861 0.977294
C133  C     C_R   0.439825 0.999962 0.438875 1.015059
C134  C     C_R   0.562926 0.000463 0.441867 0.977289
C135  C     C_R   0.939836 0.499956 0.438841 1.015245
C136  C     C_R   0.062417 0.500492 0.441191 0.974639
C137  C     C_R   0.439272 0.999661 0.560651 0.878957
C138  C     C_R   0.558154 0.999977 0.563029 0.867140
C139  C     C_R   0.938640 0.499744 0.560262 0.884513
C140  C     C_R   0.060947 0.500059 0.560410 0.884045
C141  C     C_R   0.939274 0.999661 0.060653 0.878956
C142  C     C_R   0.058158 0.999977 0.063027 0.867110
C143  C     C_R   0.439274 0.499661 0.060653 0.878942
C144  C     C_R   0.558154 0.499977 0.063030 0.867147
C145  C     C_R   0.189722 0.999103 0.809672 0.921686
C146  C     C_R   0.810232 0.999603 0.809691 0.917865
C147  C     C_R   0.689722 0.499112 0.809672 0.922010
C148  C     C_R   0.310231 0.499598 0.809691 0.918295
C149  C     C_R   0.689722 0.999103 0.309672 0.921670
C150  C     C_R   0.310232 0.999603 0.309691 0.917789
C151  C     C_R   0.189656 0.498523 0.309831 0.915614
C152  C     C_R   0.810208 0.499681 0.309690 0.918014
C153  C     C_1   0.250194 0.863438 0.749582 -0.208334
C154  C     C_1   0.750163 0.136551 0.749324 -0.210482
C155  C     C_1   0.749589 0.863426 0.750424 -0.203491
C156  C     C_1   0.250099 0.136583 0.750232 -0.204297
C157  C     C_1   0.749876 0.363416 0.749738 -0.207330
C158  C     C_1   0.250511 0.636569 0.749481 -0.207068
C159  C     C_1   0.250078 0.363452 0.750702 -0.202733
C160  C     C_1   0.750231 0.636564 0.750054 -0.220499
C161  C     C_1   0.750079 0.863428 0.249595 -0.209036
C162  C     C_1   0.250249 0.136561 0.249318 -0.210687
C163  C     C_1   0.249546 0.863438 0.250497 -0.203272
C164  C     C_1   0.750037 0.136574 0.250246 -0.203924
C165  C     C_1   0.250088 0.363428 0.249581 -0.207127
C166  C     C_1   0.750251 0.636561 0.249326 -0.211152
C167  C     C_1   0.749547 0.363439 0.250494 -0.202517
C168  C     C_1   0.250031 0.636573 0.250255 -0.206502
C169  C     C_1   0.250375 0.821134 0.749420 -0.006223
C170  C     C_1   0.750051 0.178857 0.749205 -0.006684
C171  C     C_1   0.749663 0.821111 0.750406 0.000446
C172  C     C_1   0.250087 0.178896 0.750381 0.000547
C173  C     C_1   0.749837 0.321103 0.749561 -0.001225
C174  C     C_1   0.250638 0.678886 0.749342 -0.000970
C175  C     C_1   0.250099 0.321143 0.750729 -0.003198
C176  C     C_1   0.750235 0.678868 0.750067 -0.006765
C177  C     C_1   0.750127 0.821120 0.249389 -0.006957
C178  C     C_1   0.250243 0.178871 0.249146 -0.007105
C179  C     C_1   0.249525 0.821127 0.250592 0.001038
C180  C     C_1   0.749935 0.178882 0.250379 0.001225
C181  C     C_1   0.250137 0.321120 0.249369 -0.005293
C182  C     C_1   0.750243 0.678872 0.249161 -0.007763
C183  C     C_1   0.749527 0.321127 0.250586 0.001934
C184  C     C_1   0.249928 0.678881 0.250391 -0.000145
C185  C     C_1   0.250576 0.771171 0.749312 0.002078
C186  C     C_1   0.749902 0.228821 0.749246 -0.000038
C187  C     C_1   0.749890 0.771139 0.750263 0.004033
C188  C     C_1   0.250063 0.228868 0.750543 0.005123
C189  C     C_1   0.749837 0.271130 0.749366 0.003877
C190  C     C_1   0.250659 0.728861 0.749288 0.002973
C191  C     C_1   0.250066 0.271178 0.750654 0.003953
C192  C     C_1   0.750087 0.728831 0.750142 0.004846
C193  C     C_1   0.750180 0.771152 0.249207 0.002024
C194  C     C_1   0.250212 0.228842 0.249111 -0.000349
C195  C     C_1   0.249630 0.771158 0.250582 0.004975
C196  C     C_1   0.749770 0.228849 0.250503 0.005846
C197  C     C_1   0.250187 0.271152 0.249185 0.003101
C198  C     C_1   0.750208 0.728842 0.249131 -0.001130
C199  C     C_1   0.749634 0.271158 0.250572 0.006059
C200  C     C_1   0.249764 0.728849 0.250515 0.004629
C201  C     C_R   0.377101 0.969453 0.659004 0.057991
C202  C     C_R   0.627836 0.035867 0.654367 0.042418
C203  C     C_R   0.855922 0.541774 0.637578 0.048527
C204  C     C_R   0.123153 0.465979 0.657448 0.071612
C205  C     C_R   0.877089 0.969440 0.158995 0.057972
C206  C     C_R   0.127859 0.035881 0.154346 0.042345
C207  C     C_R   0.377089 0.469440 0.158995 0.057925
C208  C     C_R   0.627849 0.535874 0.154356 0.042391
C209  C     C_R   0.343390 0.001464 0.657741 -0.124396
C210  C     C_R   0.657003 0.999705 0.657841 -0.112652
C211  C     C_R   0.843273 0.501066 0.658126 -0.088897
C212  C     C_R   0.156368 0.499690 0.658104 -0.112232
C213  C     C_R   0.843387 0.001461 0.157740 -0.124402
C214  C     C_R   0.157005 0.999705 0.157840 -0.112731
C215  C     C_R   0.343387 0.501461 0.157739 -0.124450
C216  C     C_R   0.657004 0.499705 0.157840 -0.112735
C217  C     C_R   0.338258 0.029640 0.621154 -0.201740
C218  C     C_R   0.656676 0.965243 0.626476 -0.220140
C219  C     C_R   0.855946 0.458828 0.641054 -0.203461
C220  C     C_R   0.160147 0.531597 0.624210 -0.203036
C221  C     C_R   0.838263 0.029648 0.121158 -0.201798
C222  C     C_R   0.156665 0.965227 0.126489 -0.220009
C223  C     C_R   0.338261 0.529645 0.121157 -0.201787
C224  C     C_R   0.656669 0.465234 0.126483 -0.219979
H1    H     H_    0.311141 0.053357 0.618740 0.154829
H2    H     H_    0.680297 0.937678 0.627575 0.152556
H3    H     H_    0.843618 0.426846 0.654731 0.143907
H4    H     H_    0.186422 0.557084 0.623796 0.155834
H5    H     H_    0.811152 0.053372 0.118749 0.154774
H6    H     H_    0.180273 0.937652 0.127602 0.152736
H7    H     H_    0.311149 0.553368 0.118747 0.154801
H8    H     H_    0.680283 0.437664 0.127589 0.152789
H9    H     H_    0.367751 0.053323 0.562057 0.149408
H10   H     H_    0.621504 0.936273 0.573076 0.156407
H11   H     H_    0.898174 0.425176 0.596191 0.166130
H12   H     H_    0.129616 0.559350 0.567963 0.167362
H13   H     H_    0.867763 0.053339 0.062068 0.149399
H14   H     H_    0.121483 0.936248 0.073099 0.156489
H15   H     H_    0.367760 0.553333 0.062064 0.149423
H16   H     H_    0.621491 0.436260 0.073089 0.156482
H17   H     H_    0.454563 0.917384 0.647110 0.196394
H18   H     H_    0.562495 0.100165 0.633379 0.192124
H19   H     H_    0.534069 0.046913 0.652026 0.171612
H20   H     H_    0.470726 0.978402 0.651421 0.160221
H21   H     H_    0.941066 0.581691 0.621013 0.187516
H22   H     H_    0.028155 0.474328 0.650495 0.184547
H23   H     H_    0.044652 0.414516 0.641079 0.188937
H24   H     H_    0.899231 0.612042 0.588589 0.188422
H25   H     H_    0.954536 0.917350 0.147094 0.196386
H26   H     H_    0.062554 0.100206 0.133320 0.192100
H27   H     H_    0.034101 0.046984 0.152003 0.171637
H28   H     H_    0.970716 0.978362 0.151429 0.160225
H29   H     H_    0.454539 0.417352 0.147093 0.196424
H30   H     H_    0.562534 0.600194 0.133345 0.192076
H31   H     H_    0.534089 0.546963 0.152016 0.171630
H32   H     H_    0.470716 0.478365 0.151432 0.160208
H33   H     H_    0.104053 0.023271 0.799885 0.200566
H34   H     H_    0.884000 0.950462 0.808304 0.189837
H35   H     H_    0.604064 0.523321 0.799890 0.200655
H36   H     H_    0.384014 0.450480 0.808293 0.190123
H37   H     H_    0.604063 0.023310 0.299893 0.200606
H38   H     H_    0.384011 0.950480 0.308295 0.189971
H39   H     H_    0.103029 0.514723 0.298735 0.201619
H40   H     H_    0.881874 0.447495 0.310084 0.188455
H41   H     H_    0.231789 0.991783 0.910784 0.190197
H42   H     H_    0.780713 0.017671 0.908271 0.195451
H43   H     H_    0.794066 0.079027 0.897892 0.182644
H44   H     H_    0.210803 0.932399 0.903678 0.181429
H45   H     H_    0.731781 0.491737 0.910782 0.190470
H46   H     H_    0.280704 0.517618 0.908274 0.195518
H47   H     H_    0.294039 0.578982 0.897919 0.182575
H48   H     H_    0.710779 0.432364 0.903649 0.181549
H49   H     H_    0.731783 0.991725 0.410774 0.190284
H50   H     H_    0.280709 0.017652 0.408272 0.195434
H51   H     H_    0.294057 0.079012 0.397907 0.182723
H52   H     H_    0.710786 0.932349 0.403647 0.181228
H53   H     H_    0.226831 0.516699 0.400977 0.198273
H54   H     H_    0.781787 0.523041 0.407944 0.196172
H55   H     H_    0.797089 0.583351 0.394759 0.183312
H56   H     H_    0.222852 0.456585 0.419872 0.184990
O1    O     O_R   0.321670 1.000000 0.730060 -0.631867
O2    O     O_R   0.678330 1.000000 0.730060 -0.630520
O3    O     O_R   0.821670 0.500000 0.730060 -0.622397
O4    O     O_R   0.178330 0.500000 0.730060 -0.637506
O5    O     O_R   0.821670 0.000000 0.230060 -0.631815
O6    O     O_R   0.178330 0.000000 0.230060 -0.630515
O7    O     O_R   0.321670 0.500000 0.230060 -0.631693
O8    O     O_R   0.678330 0.500000 0.230060 -0.630552
O9    O     O_R   0.269940 1.000000 0.678340 -0.614411
O10   O     O_R   0.730060 1.000000 0.678340 -0.613098
O11   O     O_R   0.769940 0.500000 0.678340 -0.613423
O12   O     O_R   0.230060 0.500000 0.678340 -0.610074
O13   O     O_R   0.769940 0.000000 0.178340 -0.614421
O14   O     O_R   0.230060 0.000000 0.178340 -0.613043
O15   O     O_R   0.269940 0.500000 0.178340 -0.614482
O16   O     O_R   0.730060 0.500000 0.178340 -0.613020
O17   O     O_R   0.275870 0.936860 0.775860 -0.614691
O18   O     O_R   0.724130 0.063140 0.775860 -0.611048
O19   O     O_R   0.724130 0.936860 0.775860 -0.599725
O20   O     O_R   0.275870 0.063140 0.775860 -0.599803
O21   O     O_R   0.775870 0.436860 0.775860 -0.601281
O22   O     O_R   0.224130 0.563140 0.775860 -0.600036
O23   O     O_R   0.224130 0.436860 0.775860 -0.614348
O24   O     O_R   0.775870 0.563140 0.775860 -0.613549
O25   O     O_R   0.775870 0.936860 0.275860 -0.614706
O26   O     O_R   0.224130 0.063140 0.275860 -0.610764
O27   O     O_R   0.224130 0.936860 0.275860 -0.600164
O28   O     O_R   0.775870 0.063140 0.275860 -0.599707
O29   O     O_R   0.275870 0.436860 0.275860 -0.612955
O30   O     O_R   0.724130 0.563140 0.275860 -0.611118
O31   O     O_R   0.724130 0.436860 0.275860 -0.599744
O32   O     O_R   0.275870 0.563140 0.275860 -0.601190
O33   O     O_R   0.224140 0.936870 0.724140 -0.593567
O34   O     O_R   0.775860 0.063130 0.724140 -0.592154
O35   O     O_R   0.775860 0.936870 0.724140 -0.600870
O36   O     O_R   0.224140 0.063130 0.724140 -0.600047
O37   O     O_R   0.724140 0.436870 0.724140 -0.595568
O38   O     O_R   0.275860 0.563130 0.724140 -0.596670
O39   O     O_R   0.275860 0.436870 0.724140 -0.594954
O40   O     O_R   0.724140 0.563130 0.724140 -0.594101
O41   O     O_R   0.724140 0.936870 0.224140 -0.593797
O42   O     O_R   0.275860 0.063130 0.224140 -0.592462
O43   O     O_R   0.275860 0.936870 0.224140 -0.600313
O44   O     O_R   0.724140 0.063130 0.224140 -0.599975
O45   O     O_R   0.224140 0.436870 0.224140 -0.594031
O46   O     O_R   0.775860 0.563130 0.224140 -0.592582
O47   O     O_R   0.775860 0.436870 0.224140 -0.600236
O48   O     O_R   0.224140 0.563130 0.224140 -0.598901
O49   O     O_R   0.230060 0.000000 0.821670 -0.619069
O50   O     O_R   0.769940 0.000000 0.821670 -0.622509
O51   O     O_R   0.730060 0.500000 0.821670 -0.617612
O52   O     O_R   0.269940 0.500000 0.821670 -0.622091
O53   O     O_R   0.730060 0.000000 0.321670 -0.619016
O54   O     O_R   0.269940 0.000000 0.321670 -0.622537
O55   O     O_R   0.230060 0.500000 0.321670 -0.622883
O56   O     O_R   0.769940 0.500000 0.321670 -0.622239
O57   O     O_R   0.178330 0.000000 0.769950 -0.616507
O58   O     O_R   0.821670 0.000000 0.769950 -0.607307
O59   O     O_R   0.678330 0.500000 0.769950 -0.616509
O60   O     O_R   0.321670 0.500000 0.769950 -0.607331
O61   O     O_R   0.678330 0.000000 0.269950 -0.616590
O62   O     O_R   0.321670 0.000000 0.269950 -0.607307
O63   O     O_R   0.178330 0.500000 0.269950 -0.615193
O64   O     O_R   0.821670 0.500000 0.269950 -0.606579
O65   O     O_R   0.954170 0.964330 0.954180 -0.585805
O66   O     O_R   0.045830 0.035670 0.954180 -0.604325
O67   O     O_R   0.045830 0.964330 0.954180 -0.598853
O68   O     O_R   0.954170 0.035670 0.954180 -0.624826
O69   O     O_R   0.454170 0.464330 0.954180 -0.585848
O70   O     O_R   0.545830 0.535670 0.954180 -0.604168
O71   O     O_R   0.545830 0.464330 0.954180 -0.599000
O72   O     O_R   0.454170 0.535670 0.954180 -0.624822
O73   O     O_R   0.454170 0.964330 0.454180 -0.585893
O74   O     O_R   0.545830 0.035670 0.454180 -0.604155
O75   O     O_R   0.545830 0.964330 0.454180 -0.598972
O76   O     O_R   0.454170 0.035670 0.454180 -0.624789
O77   O     O_R   0.954170 0.464330 0.454180 -0.582965
O78   O     O_R   0.045830 0.535670 0.454180 -0.623266
O79   O     O_R   0.045830 0.464330 0.454180 -0.598293
O80   O     O_R   0.954170 0.535670 0.454180 -0.628605
O81   O     O_R   0.454180 0.964360 0.545790 -0.628441
O82   O     O_R   0.545820 0.035640 0.545790 -0.625817
O83   O     O_R   0.545820 0.964360 0.545790 -0.643598
O84   O     O_R   0.454180 0.035640 0.545790 -0.639202
O85   O     O_R   0.954180 0.464360 0.545790 -0.635054
O86   O     O_R   0.045820 0.535640 0.545790 -0.639606
O87   O     O_R   0.045820 0.464360 0.545790 -0.623681
O88   O     O_R   0.954180 0.535640 0.545790 -0.633581
O89   O     O_R   0.954180 0.964360 0.045790 -0.628401
O90   O     O_R   0.045820 0.035640 0.045790 -0.625858
O91   O     O_R   0.045820 0.964360 0.045790 -0.643587
O92   O     O_R   0.954180 0.035640 0.045790 -0.639216
O93   O     O_R   0.454180 0.464360 0.045790 -0.628401
O94   O     O_R   0.545820 0.535640 0.045790 -0.625837
O95   O     O_R   0.545820 0.464360 0.045790 -0.643567
O96   O     O_R   0.454180 0.535640 0.045790 -0.639242
Zn1   Zn    Zn3+2 0.284540 0.000000 0.784540 0.922690
Zn2   Zn    Zn3+2 0.715460 0.000000 0.784540 0.929381
Zn3   Zn    Zn3+2 0.784540 0.500000 0.784540 0.937754
Zn4   Zn    Zn3+2 0.215460 0.500000 0.784540 0.919276
Zn5   Zn    Zn3+2 0.784540 0.000000 0.284540 0.922729
Zn6   Zn    Zn3+2 0.215460 0.000000 0.284540 0.929298
Zn7   Zn    Zn3+2 0.284540 0.500000 0.284540 0.921317
Zn8   Zn    Zn3+2 0.715460 0.500000 0.284540 0.929815
Zn9   Zn    Zn3+2 0.215460 0.000000 0.715470 0.967550
Zn10  Zn    Zn3+2 0.784540 0.000000 0.715470 0.971113
Zn11  Zn    Zn3+2 0.715460 0.500000 0.715470 0.968463
Zn12  Zn    Zn3+2 0.284540 0.500000 0.715470 0.971173
Zn13  Zn    Zn3+2 0.715460 0.000000 0.215470 0.967325
Zn14  Zn    Zn3+2 0.284540 0.000000 0.215470 0.971414
Zn15  Zn    Zn3+2 0.215460 0.500000 0.215470 0.967737
Zn16  Zn    Zn3+2 0.784540 0.500000 0.215470 0.972062
Zn17  Zn    Zn3+2 1.000000 0.952400 0.999990 0.983028
Zn18  Zn    Zn3+2 1.000000 0.047600 0.999990 0.963981
Zn19  Zn    Zn3+2 0.500000 0.452400 0.999990 0.982865
Zn20  Zn    Zn3+2 0.500000 0.547600 0.999990 0.964084
Zn21  Zn    Zn3+2 0.500000 0.952400 0.499990 0.982710
Zn22  Zn    Zn3+2 0.500000 0.047600 0.499990 0.964219
Zn23  Zn    Zn3+2 1.000000 0.452400 0.499990 0.994148
Zn24  Zn    Zn3+2 1.000000 0.547600 0.499990 0.948676
C225  C     C_3   0.402222 0.911511 0.716639 -0.383480
C226  C     C_3   0.381125 0.873058 0.689133 -0.362360
C227  C     C_3   0.373686 0.829604 0.716119 -0.865876
H57   H     H_    0.405585 0.816423 0.728276 0.261617
H58   H     H_    0.351856 0.836764 0.744017 0.265336
H59   H     H_    0.357795 0.802760 0.695862 0.256141
H60   H     H_    0.348712 0.884344 0.676495 0.222545
H61   H     H_    0.402377 0.864394 0.661285 0.225171
H62   H     H_    0.433561 0.898994 0.730815 0.198707
H63   H     H_    0.379027 0.917909 0.743568 0.205130
C228  C     C_3   0.621154 0.108201 0.697007 -0.415768
C229  C     C_3   0.590098 0.141067 0.720345 -0.360502
C230  C     C_3   0.612578 0.187390 0.728262 -0.848194
H64   H     H_    0.642534 0.182915 0.748445 0.265728
H65   H     H_    0.621933 0.203849 0.697035 0.260607
H66   H     H_    0.589652 0.210340 0.745513 0.252581
H67   H     H_    0.559982 0.146550 0.700637 0.227223
H68   H     H_    0.580224 0.126295 0.752141 0.217534
H69   H     H_    0.649993 0.101318 0.718185 0.199503
H70   H     H_    0.633865 0.125402 0.667182 0.202530
C231  C     C_3   0.580831 0.034471 0.724910 -0.359672
C232  C     C_3   0.567203 0.984044 0.716766 -0.330739
C233  C     C_3   0.548999 0.961681 0.757881 -0.907408
H71   H     H_    0.574898 0.960506 0.783257 0.266973
H72   H     H_    0.520567 0.981176 0.770217 0.264253
H73   H     H_    0.537890 0.926058 0.750815 0.253969
H74   H     H_    0.541646 0.981860 0.691225 0.209118
H75   H     H_    0.595765 0.963673 0.706318 0.243630
H76   H     H_    0.605736 0.035412 0.751232 0.216676
H77   H     H_    0.551413 0.052660 0.737080 0.183149
C234  C     C_3   0.426459 0.999287 0.721504 -0.372252
C235  C     C_3   0.419381 0.993350 0.770572 -0.368236
C236  C     C_3   0.433365 0.036584 0.794923 -0.887095
H78   H     H_    0.468591 0.044849 0.788753 0.253564
H79   H     H_    0.412961 0.066098 0.784594 0.268456
H80   H     H_    0.428766 0.031034 0.830212 0.249574
H81   H     H_    0.384333 0.986251 0.778083 0.251427
H82   H     H_    0.439229 0.964193 0.782758 0.211039
H83   H     H_    0.462230 0.006205 0.717149 0.195533
H84   H     H_    0.409720 0.031067 0.710611 0.208380
C237  C     C_3   0.903584 0.583104 0.695580 -0.425779
C238  C     C_3   0.880213 0.596326 0.737601 -0.351291
C239  C     C_3   0.907347 0.583210 0.777281 -0.845185
H85   H     H_    0.912051 0.545469 0.778554 0.257823
H86   H     H_    0.940007 0.600730 0.776321 0.255785
H87   H     H_    0.889848 0.593807 0.807045 0.250092
H88   H     H_    0.874876 0.634000 0.738068 0.214529
H89   H     H_    0.847883 0.578974 0.739581 0.254966
H90   H     H_    0.916513 0.547633 0.698644 0.215328
H91   H     H_    0.932704 0.606412 0.692423 0.201313
C240  C     C_3   0.072803 0.488330 0.723237 -0.359459
C241  C     C_3   0.069873 0.538442 0.706911 -0.325088
C242  C     C_3   0.045071 0.568096 0.739072 -0.914466
H92   H     H_    0.010562 0.555576 0.742529 0.260789
H93   H     H_    0.061540 0.567304 0.771177 0.268097
H94   H     H_    0.044526 0.604140 0.727211 0.256117
H95   H     H_    0.103425 0.553279 0.703032 0.236308
H96   H     H_    0.052869 0.540807 0.675253 0.222959
H97   H     H_    0.040040 0.477323 0.735847 0.193416
H98   H     H_    0.095649 0.488181 0.751188 0.202560
C243  C     C_3   0.093033 0.403204 0.708914 -0.462167
C244  C     C_3   0.132504 0.398875 0.739458 -0.303149
C245  C     C_3   0.134651 0.350644 0.758895 -0.871766
H99   H     H_    0.103483 0.341909 0.775968 0.259064
H100  H     H_    0.140493 0.325025 0.733122 0.262891
H101  H     H_    0.161954 0.348988 0.782711 0.260730
H102  H     H_    0.163118 0.405848 0.720943 0.220872
H103  H     H_    0.130264 0.423609 0.766443 0.229709
H104  H     H_    0.062417 0.393510 0.726611 0.206563
H105  H     H_    0.097322 0.377778 0.682535 0.207407
C246  C     C_3   0.841673 0.627095 0.653190 -0.377496
C247  C     C_3   0.811446 0.629854 0.613177 -0.367574
C248  C     C_3   0.778281 0.668458 0.617761 -0.871268
H106  H     H_    0.756833 0.662199 0.646327 0.269844
H107  H     H_    0.795648 0.701971 0.621453 0.262623
H108  H     H_    0.757260 0.670003 0.588376 0.249156
H109  H     H_    0.831039 0.636644 0.583627 0.227743
H110  H     H_    0.792931 0.597066 0.609019 0.228483
H111  H     H_    0.819832 0.623428 0.681772 0.188434
H112  H     H_    0.860293 0.659980 0.656397 0.203529
C249  C     C_3   0.902176 0.911467 0.216613 -0.383639
C250  C     C_3   0.881083 0.873027 0.189086 -0.362244
C251  C     C_3   0.873581 0.829580 0.216067 -0.865985
H113  H     H_    0.905455 0.816382 0.228271 0.261343
H114  H     H_    0.851713 0.836755 0.243931 0.265320
H115  H     H_    0.857706 0.802743 0.195790 0.256414
H116  H     H_    0.848692 0.884335 0.176410 0.222588
H117  H     H_    0.902362 0.864346 0.161263 0.225183
H118  H     H_    0.933503 0.898936 0.230801 0.198548
H119  H     H_    0.878968 0.917863 0.243531 0.205136
C252  C     C_3   0.121227 0.108252 0.196934 -0.416092
C253  C     C_3   0.090197 0.141159 0.220253 -0.360930
C254  C     C_3   0.112707 0.187476 0.228125 -0.846043
H120  H     H_    0.142669 0.183001 0.248298 0.265871
H121  H     H_    0.122057 0.203902 0.196881 0.260275
H122  H     H_    0.089801 0.210456 0.245366 0.253215
H123  H     H_    0.060079 0.146643 0.200548 0.227286
H124  H     H_    0.080325 0.126422 0.252064 0.217840
H125  H     H_    0.150066 0.101365 0.218113 0.199523
H126  H     H_    0.133945 0.125420 0.167096 0.202466
C255  C     C_3   0.080863 0.034570 0.224893 -0.359524
C256  C     C_3   0.067198 0.984146 0.216783 -0.330675
C257  C     C_3   0.049014 0.961816 0.257922 -0.907878
H127  H     H_    0.074933 0.960636 0.283278 0.266923
H128  H     H_    0.020605 0.981336 0.270272 0.264332
H129  H     H_    0.037877 0.926197 0.250880 0.253819
H130  H     H_    0.041618 0.981968 0.191264 0.209057
H131  H     H_    0.095736 0.963749 0.206321 0.243606
H132  H     H_    0.105776 0.035510 0.251209 0.216744
H133  H     H_    0.051462 0.052790 0.237061 0.183231
C258  C     C_3   0.926440 0.999234 0.221514 -0.372130
C259  C     C_3   0.919361 0.993275 0.270579 -0.368599
C260  C     C_3   0.933312 0.036512 0.294944 -0.886383
H134  H     H_    0.968528 0.044817 0.288770 0.253597
H135  H     H_    0.912878 0.066009 0.284632 0.268537
H136  H     H_    0.928726 0.030941 0.330233 0.249546
H137  H     H_    0.884316 0.986150 0.278086 0.251411
H138  H     H_    0.939227 0.964128 0.282757 0.210978
H139  H     H_    0.962212 0.006151 0.217162 0.195522
H140  H     H_    0.909705 0.031021 0.210633 0.208406
C261  C     C_3   0.402175 0.411460 0.216608 -0.383426
C262  C     C_3   0.381084 0.373024 0.189076 -0.362850
C263  C     C_3   0.373586 0.329572 0.216049 -0.865110
H141  H     H_    0.405462 0.316374 0.228250 0.261720
H142  H     H_    0.351719 0.336741 0.243917 0.265343
H143  H     H_    0.357712 0.302737 0.195769 0.256242
H144  H     H_    0.348691 0.384332 0.176404 0.222442
H145  H     H_    0.402362 0.364350 0.161250 0.225289
H146  H     H_    0.433503 0.398928 0.230795 0.198739
H147  H     H_    0.378966 0.417853 0.243526 0.205165
C264  C     C_3   0.621207 0.608233 0.196962 -0.415697
C265  C     C_3   0.590173 0.641127 0.220293 -0.360735
C266  C     C_3   0.612680 0.687442 0.228186 -0.848003
H148  H     H_    0.642641 0.682959 0.248359 0.265834
H149  H     H_    0.622032 0.703882 0.196949 0.260603
H150  H     H_    0.589772 0.710411 0.245435 0.252502
H151  H     H_    0.560056 0.646617 0.200589 0.227185
H152  H     H_    0.580300 0.626375 0.252098 0.217515
H153  H     H_    0.650048 0.601344 0.218137 0.199534
H154  H     H_    0.633920 0.625413 0.167128 0.202482
C267  C     C_3   0.580853 0.534536 0.224903 -0.359672
C268  C     C_3   0.567199 0.484111 0.216780 -0.330788
C269  C     C_3   0.549011 0.461769 0.257912 -0.907284
H155  H     H_    0.574924 0.460590 0.283274 0.266990
H156  H     H_    0.520594 0.481281 0.270259 0.264237
H157  H     H_    0.537882 0.426149 0.250861 0.253989
H158  H     H_    0.541626 0.481932 0.191255 0.209078
H159  H     H_    0.595745 0.463723 0.206321 0.243645
H160  H     H_    0.605764 0.535475 0.251220 0.216684
H161  H     H_    0.551447 0.552746 0.237072 0.183132
C270  C     C_3   0.426439 0.499227 0.221518 -0.372329
C271  C     C_3   0.419357 0.493263 0.270583 -0.367815
C272  C     C_3   0.433312 0.536494 0.294954 -0.887660
H162  H     H_    0.468531 0.544793 0.288784 0.253625
H163  H     H_    0.412884 0.565996 0.284642 0.268334
H164  H     H_    0.428722 0.530920 0.330241 0.249514
H165  H     H_    0.384312 0.486140 0.278088 0.251445
H166  H     H_    0.439220 0.464112 0.282757 0.211108
H167  H     H_    0.462211 0.506144 0.217168 0.195518
H168  H     H_    0.409704 0.531015 0.210640 0.208397
Cl1   Cl    Cl    0.028097 0.032253 0.852736 -0.568213
Cl2   Cl    Cl    0.958462 0.934993 0.861514 -0.556266
Cl3   Cl    Cl    0.528106 0.532301 0.852740 -0.568163
Cl4   Cl    Cl    0.458483 0.435023 0.861498 -0.556634
Cl5   Cl    Cl    0.528110 0.032299 0.352746 -0.568102
Cl6   Cl    Cl    0.458479 0.935018 0.361500 -0.556839
Cl7   Cl    Cl    0.027052 0.525443 0.350639 -0.573326
Cl8   Cl    Cl    0.955727 0.431011 0.363662 -0.551039
C273  C     C_3   0.186701 0.014348 0.979762 -0.441546
C274  C     C_3   0.149568 0.041989 0.999898 -0.326375
C275  C     C_3   0.166642 0.073292 0.035758 -0.851621
H169  H     H_    0.181403 0.052644 0.062281 0.268877
H170  H     H_    0.191775 0.097673 0.022766 0.256439
H171  H     H_    0.138957 0.093241 0.049182 0.252968
H172  H     H_    0.133681 0.063489 0.974647 0.227022
H173  H     H_    0.124719 0.018164 0.013277 0.215978
H174  H     H_    0.207453 0.999155 0.005711 0.209273
H175  H     H_    0.207949 0.039251 0.961768 0.204862
C276  C     C_3   0.836242 0.006107 0.977239 -0.395142
C277  C     C_3   0.824820 0.957119 0.961867 -0.352533
C278  C     C_3   0.829031 0.922719 0.999076 -0.854734
H176  H     H_    0.863550 0.921897 0.010966 0.268759
H177  H     H_    0.806973 0.932167 0.026162 0.262144
H178  H     H_    0.819646 0.887882 0.987682 0.251653
H179  H     H_    0.790407 0.955551 0.949848 0.218313
H180  H     H_    0.846809 0.946192 0.935420 0.234678
H181  H     H_    0.867207 0.004984 0.996299 0.186577
H182  H     H_    0.809665 0.016532 0.999572 0.199408
C279  C     C_3   0.853658 0.091688 0.959808 -0.389232
C280  C     C_3   0.816416 0.112242 0.986928 -0.373809
C281  C     C_3   0.827850 0.161175 0.000636 -0.871158
H183  H     H_    0.858526 0.161609 0.020248 0.261836
H184  H     H_    0.832378 0.183595 0.971743 0.262785
H185  H     H_    0.800694 0.175025 0.020508 0.251529
H186  H     H_    0.785316 0.112747 0.968015 0.229507
H187  H     H_    0.810827 0.091464 0.016651 0.213398
H188  H     H_    0.883714 0.089119 0.980218 0.205587
H189  H     H_    0.861547 0.115751 0.932693 0.211047
C282  C     C_3   0.156363 0.930769 0.974524 -0.397885
C283  C     C_3   0.138008 0.891248 0.946593 -0.325852
C284  C     C_3   0.120426 0.852150 0.975016 -0.867967
H190  H     H_    0.147036 0.838624 0.996045 0.255585
H191  H     H_    0.093007 0.864330 0.995572 0.262580
H192  H     H_    0.107870 0.823889 0.954272 0.254881
H193  H     H_    0.110688 0.903383 0.925735 0.249010
H194  H     H_    0.164149 0.877363 0.925545 0.213911
H195  H     H_    0.185184 0.918139 0.993120 0.193349
H196  H     H_    0.130598 0.940140 0.998136 0.199919
C285  C     C_3   0.686698 0.514280 0.979770 -0.441373
C286  C     C_3   0.649573 0.541938 0.999899 -0.326475
C287  C     C_3   0.666653 0.573228 0.035766 -0.851284
H197  H     H_    0.681402 0.552570 0.062289 0.268858
H198  H     H_    0.691798 0.597601 0.022783 0.256530
H199  H     H_    0.638974 0.593187 0.049188 0.252978
H200  H     H_    0.633704 0.563450 0.974647 0.227182
H201  H     H_    0.624710 0.518122 0.013267 0.215945
H202  H     H_    0.707430 0.499065 0.005723 0.209325
H203  H     H_    0.707968 0.539176 0.961794 0.205013
C288  C     C_3   0.336234 0.506041 0.977238 -0.394992
C289  C     C_3   0.324828 0.457058 0.961844 -0.352563
C290  C     C_3   0.329047 0.422640 0.999037 -0.855141
H204  H     H_    0.363567 0.421824 0.010928 0.268848
H205  H     H_    0.306985 0.432066 0.026126 0.262121
H206  H     H_    0.319674 0.387806 0.987626 0.251514
H207  H     H_    0.290415 0.455483 0.949822 0.218091
H208  H     H_    0.346821 0.446152 0.935392 0.234729
H209  H     H_    0.367198 0.504920 0.996300 0.186566
H210  H     H_    0.309652 0.516446 0.999575 0.199372
C291  C     C_3   0.353622 0.591637 0.959845 -0.389496
C292  C     C_3   0.316368 0.612168 0.986966 -0.373479
C293  C     C_3   0.327793 0.661094 0.000705 -0.871685
H211  H     H_    0.358462 0.661518 0.020328 0.261816
H212  H     H_    0.332328 0.683532 0.971826 0.262579
H213  H     H_    0.300628 0.674928 0.020576 0.251592
H214  H     H_    0.285275 0.612681 0.968044 0.229586
H215  H     H_    0.310772 0.591370 0.016676 0.213384
H216  H     H_    0.383676 0.589068 0.980258 0.205584
H217  H     H_    0.361508 0.615715 0.932740 0.210859
C294  C     C_3   0.656338 0.430712 0.974490 -0.397593
C295  C     C_3   0.637952 0.391221 0.946540 -0.326095
C296  C     C_3   0.620398 0.352093 0.974943 -0.868443
H218  H     H_    0.647033 0.338536 0.995922 0.255723
H219  H     H_    0.593010 0.364255 0.995549 0.262646
H220  H     H_    0.607807 0.323861 0.954185 0.254505
H221  H     H_    0.610610 0.403380 0.925723 0.248875
H222  H     H_    0.664066 0.377357 0.925449 0.213861
H223  H     H_    0.685162 0.418054 0.993064 0.193495
H224  H     H_    0.630589 0.440078 0.998120 0.199883
C297  C     C_3   0.686705 0.014272 0.479764 -0.441554
C298  C     C_3   0.649579 0.041924 0.499900 -0.326521
C299  C     C_3   0.666667 0.073213 0.535767 -0.851033
H225  H     H_    0.681413 0.052554 0.562287 0.268841
H226  H     H_    0.691803 0.097588 0.522782 0.256650
H227  H     H_    0.638981 0.093169 0.549192 0.252960
H228  H     H_    0.633705 0.063436 0.474650 0.227140
H229  H     H_    0.624720 0.018105 0.513270 0.215918
H230  H     H_    0.707445 0.999062 0.505713 0.209177
H231  H     H_    0.707966 0.039171 0.461781 0.205029
C300  C     C_3   0.336238 0.006074 0.477237 -0.395010
C301  C     C_3   0.324823 0.957090 0.461852 -0.352546
C302  C     C_3   0.329033 0.922679 0.499052 -0.855133
H232  H     H_    0.363552 0.921859 0.510946 0.268791
H233  H     H_    0.306971 0.932117 0.526139 0.262201
H234  H     H_    0.319654 0.887845 0.487648 0.251460
H235  H     H_    0.290411 0.955520 0.449829 0.218233
H236  H     H_    0.346816 0.946173 0.435404 0.234654
H237  H     H_    0.367202 0.004950 0.496298 0.186560
H238  H     H_    0.309658 0.016489 0.499572 0.199420
C303  C     C_3   0.353646 0.091662 0.459829 -0.389425
C304  C     C_3   0.316400 0.112208 0.486949 -0.373969
C305  C     C_3   0.327840 0.161131 0.500686 -0.870205
H239  H     H_    0.358509 0.161546 0.520308 0.261707
H240  H     H_    0.332383 0.183566 0.471805 0.262759
H241  H     H_    0.300680 0.174976 0.520556 0.251852
H242  H     H_    0.285307 0.112731 0.468028 0.229687
H243  H     H_    0.310797 0.091415 0.516661 0.213408
H244  H     H_    0.383700 0.089089 0.480241 0.205608
H245  H     H_    0.361536 0.115733 0.432720 0.210998
C306  C     C_3   0.656348 0.930701 0.474494 -0.397635
C307  C     C_3   0.637979 0.891199 0.446549 -0.325874
C308  C     C_3   0.620419 0.852078 0.474958 -0.869386
H246  H     H_    0.647045 0.838538 0.495958 0.255439
H247  H     H_    0.593015 0.864241 0.495542 0.262775
H248  H     H_    0.607849 0.823833 0.454203 0.254454
H249  H     H_    0.610645 0.903347 0.425717 0.248913
H250  H     H_    0.664105 0.877331 0.425475 0.213604
H251  H     H_    0.685170 0.918055 0.493080 0.193117
H252  H     H_    0.630589 0.940068 0.498114 0.199929
C309  C     C_3   0.176222 0.555260 0.455986 -0.438022
C310  C     C_3   0.134905 0.578551 0.473188 -0.331026
C311  C     C_3   0.146084 0.624097 0.494996 -0.889785
H253  H     H_    0.168240 0.618525 0.523110 0.254579
H254  H     H_    0.162431 0.647850 0.471625 0.266901
H255  H     H_    0.115380 0.640178 0.506665 0.254322
H256  H     H_    0.112607 0.585999 0.445621 0.245457
H257  H     H_    0.117449 0.555968 0.496465 0.220843
H258  H     H_    0.204016 0.560649 0.478949 0.210342
H259  H     H_    0.185338 0.573758 0.425606 0.203074
C312  C     C_3   0.837027 0.513334 0.477365 -0.390300
C313  C     C_3   0.824090 0.463907 0.464457 -0.357469
C314  C     C_3   0.827834 0.431322 0.503123 -0.858361
H260  H     H_    0.862608 0.429429 0.514078 0.266134
H261  H     H_    0.807046 0.443244 0.530286 0.265446
H262  H     H_    0.816627 0.396393 0.493640 0.252566
H263  H     H_    0.789501 0.462821 0.452879 0.219233
H264  H     H_    0.845346 0.450880 0.438311 0.234508
H265  H     H_    0.867694 0.512486 0.496950 0.189897
H266  H     H_    0.810575 0.525970 0.498780 0.196397
C315  C     C_3   0.857687 0.596998 0.455448 -0.380903
C316  C     C_3   0.821747 0.620145 0.482328 -0.374621
C317  C     C_3   0.834443 0.669701 0.492717 -0.891022
H267  H     H_    0.865816 0.670859 0.511214 0.257586
H268  H     H_    0.838254 0.690077 0.462430 0.266558
H269  H     H_    0.808256 0.685376 0.512618 0.255892
H270  H     H_    0.790045 0.619990 0.464391 0.230802
H271  H     H_    0.816903 0.601383 0.513329 0.212789
H272  H     H_    0.888068 0.594502 0.475392 0.208128
H273  H     H_    0.865692 0.619322 0.427082 0.209496
C318  C     C_3   0.173926 0.473497 0.490235 -0.394310
C319  C     C_3   0.161377 0.422403 0.485547 -0.345975
C320  C     C_3   0.164744 0.397416 0.528962 -0.864394
H274  H     H_    0.198959 0.399529 0.541571 0.261470
H275  H     H_    0.142022 0.412756 0.552846 0.267986
H276  H     H_    0.155570 0.360708 0.524791 0.249638
H277  H     H_    0.126942 0.418967 0.473768 0.237774
H278  H     H_    0.183426 0.405483 0.462080 0.221358
H279  H     H_    0.207837 0.476393 0.503608 0.203813
H280  H     H_    0.151397 0.488501 0.514338 0.198084

loop_
_geom_bond_atom_site_label_1
_geom_bond_atom_site_label_2
_ccdc_geom_bond_type
C123  H48   S    
C282  C283  S    
O6    Zn6   S    
C124  H47   S    
C303  C304  S    
C57   C145  S    
O70   Zn20  S    
C272  H162  S    
C315  H272  S    
C264  C265  S    
C34   C42   S    
C95   O39   A    
O68   Zn18  S    
C134  O75   A    
C110  C118  S    
C92   O36   A    
C89   O17   A    
C185  C190  T    
C179  C195  S    
C279  C280  S    
C248  H108  S    
C271  H166  S    
C177  C193  S    
C64   C152  S    
C188  C191  T    
O33   Zn9   S    
C118  C300  S    
C227  H58   S    
C294  H223  S    
C207  C215  A    
C93   O37   A    
O81   Zn21  S    
C268  C269  S    
C299  H227  S    
C194  C197  T    
C29   C37   S    
C53   C109  A    
C250  H116  S    
C15   H15   S    
C75   Cl3   S    
C289  C290  S    
C30   C38   S    
O32   Zn7   S    
O17   Zn1   S    
C247  H109  S    
C44   C240  S    
C214  C222  A    
C151  O55   A    
O67   Zn17  S    
C136  O78   A    
C40   H30   S    
C158  C174  T    
C277  C278  S    
C50   C122  S    
O80   Zn24  S    
O82   Zn22  S    
C16   H16   S    
C127  H56   S    
O58   Zn10  S    
C291  H217  S    
C128  H55   S    
C180  C196  S    
C296  H220  S    
C285  H202  S    
C206  C214  A    
C140  O86   A    
C42   C228  S    
C243  H104  S    
C230  H65   S    
C103  O47   A    
C79   C87   A    
C246  H112  S    
C137  O84   A    
C274  H173  S    
C106  C114  S    
C23   C143  S    
C204  C212  A    
C94   O22   A    
C51   C107  A    
C73   C81   A    
C98   C162  S    
C233  H73   S    
O92   Zn18  S    
C257  H128  S    
C11   H11   S    
C35   H21   S    
C115  C123  S    
C9    H9    S    
C245  H99   S    
C48   C264  S    
C297  H231  S    
C143  O96   A    
C2    O2    A    
C121  H41   S    
C112  C120  S    
C256  H131  S    
C20   C28   A    
C27   C35   S    
C1    C209  S    
C76   Cl4   S    
C23   C31   A    
C289  H207  S    
C242  H94   S    
C65   H33   S    
C216  C224  A    
C31   C207  A    
C178  C194  S    
C305  H239  S    
C236  H80   S    
C43   C246  S    
C259  C260  S    
C12   C20   A    
C305  H241  S    
C1    O9    A    
O85   Zn23  S    
O86   Zn24  S    
C300  H238  S    
C104  O48   A    
C226  H61   S    
C235  C236  S    
C287  H198  S    
C63   C71   A    
C266  H149  S    
C316  H271  S    
C272  H164  S    
O13   Zn13  S    
C290  H206  S    
C224  H8    S    
C119  C318  S    
C301  H235  S    
C241  H96   S    
C294  C295  S    
O54   Zn6   S    
O11   Zn11  S    
C233  H71   S    
C32   C40   S    
C150  O54   A    
C39   C47   S    
O9    Zn9   S    
C40   C48   S    
C81   C105  A    
C319  H278  S    
C62   C150  S    
C86   C110  A    
C34   H19   S    
C142  O90   A    
C87   C136  S    
C234  C235  S    
C117  C297  S    
C88   C135  S    
C273  H174  S    
C8    C216  S    
C299  H225  S    
C39   H29   S    
C144  O94   A    
C74   Cl2   S    
C125  H49   S    
O95   Zn19  S    
O88   Zn24  S    
C41   C234  S    
C17   C25   A    
C80   C88   A    
C262  H145  S    
C290  H204  S    
C1    O1    A    
C52   C124  S    
C20   C140  S    
O34   Zn10  S    
C103  O31   A    
C318  H280  S    
C133  O73   A    
C292  H214  S    
C56   C128  S    
C238  H89   S    
C278  H176  S    
C138  O82   A    
C298  C299  S    
C311  H253  S    
C8    O8    A    
C312  C313  S    
C251  H115  S    
C265  C266  S    
C249  C250  S    
C309  C310  S    
C265  H151  S    
C317  H268  S    
C95   O23   A    
C17   C137  S    
C60   C148  S    
C260  H135  S    
C284  H190  S    
C302  H232  S    
C61   C149  S    
C218  H2    S    
C19   C139  S    
O41   Zn13  S    
C286  H200  S    
O61   Zn13  S    
C209  C217  A    
C59   C147  S    
C128  H54   S    
O35   Zn10  S    
C103  C167  S    
C231  C232  S    
C259  H138  S    
C263  H142  S    
C48   C267  S    
C69   C77   A    
C166  C182  T    
C108  C116  S    
C181  C197  S    
C295  C296  S    
C96   O40   A    
C71   C79   A    
C285  C286  S    
C115  C294  S    
C243  C244  S    
C253  C254  S    
C235  H82   S    
C154  C170  T    
C268  H158  S    
C27   C203  A    
O23   Zn4   S    
C105  C113  S    
C229  C230  S    
C146  O58   A    
C10   C18   A    
C25   C201  A    
C130  O67   A    
C263  H143  S    
C311  H254  S    
C240  H97   S    
C231  H76   S    
C102  O30   A    
C313  H264  S    
C49   C57   A    
C54   C110  A    
C111  C119  S    
C79   Cl7   S    
C314  H261  S    
C292  C293  S    
C52   C60   A    
C59   C67   A    
C53   C61   A    
C244  H102  S    
C13   H13   S    
C251  H113  S    
C184  C200  S    
C55   C63   A    
C267  H161  S    
O40   Zn11  S    
O26   Zn6   S    
C32   C208  A    
C35   C43   S    
C16   C224  A    
C304  H243  S    
C85   C134  S    
C46   C252  S    
C90   O18   A    
C148  O60   A    
C126  H50   S    
C77   C85   A    
C232  H74   S    
C102  C166  S    
C255  C256  S    
C308  H247  S    
C203  C211  A    
C213  C221  A    
C8    O16   A    
C196  C199  T    
O49   Zn1   S    
C201  C209  A    
C115  C285  S    
C293  H212  S    
C3    C211  S    
C307  H249  S    
C283  H194  S    
C239  H86   S    
C113  C282  S    
C137  O81   A    
O38   Zn12  S    
C28   C36   S    
C51   C123  S    
C247  C248  S    
C92   C156  S    
C302  H234  S    
C303  H244  S    
O3    Zn3   S    
C319  C320  S    
C277  H179  S    
C255  H132  S    
C156  C172  T    
C313  C314  S    
C284  H192  S    
C278  H178  S    
O59   Zn11  S    
C267  C268  S    
C295  H222  S    
C3    O3    A    
O57   Zn9   S    
C269  H155  S    
C114  C279  S    
C49   C121  S    
C282  H196  S    
C22   C142  S    
C320  H274  S    
C269  H157  S    
C273  C274  S    
O39   Zn12  S    
C283  C284  S    
C82   C129  S    
C145  O49   A    
C264  H154  S    
C252  H125  S    
C187  C192  T    
C53   C125  S    
C99   C163  S    
C261  H146  S    
C55   C127  S    
C279  H189  S    
C286  C287  S    
C97   C161  S    
C142  O91   A    
C80   Cl8   S    
C163  C179  T    
C232  C233  S    
C149  O61   A    
C42   C202  S    
C67   C75   A    
C221  H5    S    
C258  C259  S    
C120  C312  S    
C11   C219  A    
C316  H270  S    
C99   O27   A    
O18   Zn2   S    
C306  H251  S    
C226  C227  S    
C9    C217  A    
C70   H38   S    
O55   Zn7   S    
C275  H171  S    
C22   C30   A    
C96   C160  S    
O52   Zn4   S    
O75   Zn21  S    
C13   C221  A    
C241  C242  S    
C66   H34   S    
C246  H111  S    
C313  H263  S    
C281  H185  S    
C263  H141  S    
C228  H70   S    
C248  H107  S    
C132  O71   A    
O2    Zn2   S    
C97   O25   A    
C2    O10   A    
C225  H62   S    
C72   C80   A    
O76   Zn22  S    
C291  C292  S    
C299  H226  S    
C38   H26   S    
C89   O33   A    
C286  H201  S    
C311  H255  S    
C98   O26   A    
C4    O4    A    
C12   C220  A    
O89   Zn17  S    
O14   Zn14  S    
C247  H110  S    
C162  C178  T    
C7    O7    A    
C262  C263  S    
C240  C241  S    
C99   O43   A    
C275  H169  S    
C276  H181  S    
C258  H140  S    
C222  H6    S    
C94   C158  S    
C44   C204  S    
C36   H23   S    
C270  H168  S    
C118  C303  S    
C119  C309  S    
C238  C239  S    
C266  H148  S    
C291  H216  S    
C67   H35   S    
C25   C33   S    
C296  H219  S    
C119  C127  S    
C230  H64   S    
O5    Zn5   S    
C312  H266  S    
C18   C26   A    
O7    Zn7   S    
C76   C84   A    
C109  C117  S    
C233  H72   S    
C45   C249  S    
C54   C126  S    
C11   C19   A    
C35   H24   S    
C45   C258  S    
C297  H230  S    
C195  C200  T    
C85   C109  A    
C298  H228  S    
C47   C270  S    
C144  O95   A    
C141  O92   A    
C87   C111  A    
C114  C276  S    
C193  C198  T    
O20   Zn1   S    
C320  H276  S    
C36   H22   S    
C116  C291  S    
C220  H4    S    
C46   C206  S    
C135  O77   A    
C289  H208  S    
C242  H93   S    
C98   O42   A    
C90   O34   A    
O42   Zn14  S    
C33   H17   S    
C280  H186  S    
O62   Zn14  S    
C281  H184  S    
C248  H106  S    
O91   Zn17  S    
C46   C255  S    
C236  H79   S    
C245  H101  S    
C305  H240  S    
O10   Zn10  S    
C90   C154  S    
C300  H237  S    
C237  H91   S    
C310  H256  S    
C164  C180  T    
C147  O51   A    
C123  H45   S    
C205  C213  A    
C317  H267  S    
O45   Zn15  S    
C254  H120  S    
O74   Zn22  S    
O46   Zn16  S    
C272  H163  S    
C315  H273  S    
O93   Zn19  S    
C301  H236  S    
C74   C82   A    
O94   Zn20  S    
C134  O74   A    
O84   Zn22  S    
C44   C243  S    
O66   Zn18  S    
C223  H7    S    
C225  C226  S    
C2    C210  S    
C256  H130  S    
C71   H39   S    
C271  H165  S    
C72   H40   S    
C300  C301  S    
C10   H10   S    
C276  C277  S    
C50   C58   A    
C227  H59   S    
C294  H224  S    
C148  O52   A    
O47   Zn16  S    
C14   H14   S    
C244  C245  S    
O48   Zn15  S    
C49   C105  A    
C39   H32   S    
C54   C62   A    
C78   Cl6   S    
C274  C275  S    
O30   Zn8   S    
C309  H259  S    
C318  C319  S    
O4    Zn4   S    
C253  H123  S    
C303  H245  S    
C77   Cl5   S    
C246  C247  S    
C4    O12   A    
C131  O72   A    
O69   Zn19  S    
C5    O13   A    
C267  H160  S    
C279  H188  S    
C86   C133  S    
C212  C220  A    
C6    C214  S    
C91   O19   A    
O28   Zn5   S    
C124  H46   S    
C170  C186  S    
C6    O14   A    
C100  C164  S    
C292  H215  S    
C127  H53   S    
C101  C165  S    
O19   Zn2   S    
C63   C151  S    
C138  O83   A    
C174  C190  S    
C225  H63   S    
C307  C308  S    
C251  H114  S    
C18   C138  S    
C243  H105  S    
C230  H66   S    
C100  O44   A    
C41   C225  S    
C304  C305  S    
C95   C159  S    
C68   C76   A    
C43   C237  S    
C41   C201  S    
C306  C307  S    
C211  C219  A    
C270  H167  S    
C297  C298  S    
C257  H129  S    
C268  H159  S    
C256  C257  S    
C131  O69   A    
C45   C205  S    
C116  C124  S    
C6    O6    A    
C139  O85   A    
C143  O93   A    
C57   C65   A    
O79   Zn23  S    
O72   Zn20  S    
C69   H37   S    
C293  H211  S    
C120  C128  S    
C122  H42   S    
C94   O38   A    
C171  C187  S    
C37   H28   S    
O56   Zn8   S    
O71   Zn19  S    
C42   C231  S    
C310  C311  S    
C33   C41   S    
O8    Zn8   S    
C186  C189  T    
O12   Zn12  S    
C21   C141  S    
C83   C132  S    
O60   Zn12  S    
C152  O64   A    
C75   C83   A    
C81   C130  S    
C21   C29   A    
C24   C144  S    
C132  O70   A    
C237  H90   S    
C84   C108  A    
C107  C115  S    
C129  O68   A    
O90   Zn18  S    
C15   C223  A    
C314  H260  S    
C169  C185  S    
C226  H60   S    
C88   C112  A    
C244  H103  S    
C287  H199  S    
C60   C68   A    
C250  C251  S    
C254  H122  S    
C153  C169  T    
C228  C229  S    
C50   C106  A    
C7    O15   A    
C52   C108  A    
C96   O24   A    
C219  H3    S    
C241  H95   S    
O1    Zn1   S    
C7    C215  S    
C157  C173  T    
C125  H52   S    
C66   C74   A    
C126  H51   S    
C232  H75   S    
C319  H277  S    
C37   C45   S    
C70   C78   A    
O77   Zn23  S    
C308  H246  S    
C227  H57   S    
C182  C198  S    
C3    O11   A    
C273  H175  S    
O24   Zn3   S    
C24   C32   A    
C288  H209  S    
C29   C205  A    
O15   Zn15  S    
O21   Zn3   S    
C307  H250  S    
O16   Zn16  S    
C92   O20   A    
C249  H119  S    
C116  C288  S    
C93   O21   A    
O44   Zn13  S    
C26   C202  A    
C117  C306  S    
C145  O57   A    
C262  H144  S    
C302  H233  S    
C175  C191  S    
C136  O79   A    
C250  H117  S    
C176  C192  S    
C150  O62   A    
C277  H180  S    
C30   C206  A    
O53   Zn5   S    
C65   C73   A    
C260  H134  S    
C149  O53   A    
C238  H88   S    
C278  H177  S    
C239  H87   S    
C104  O32   A    
C40   H31   S    
C58   C66   A    
C140  O87   A    
C141  O89   A    
C82   C106  A    
C31   C39   S    
C168  C184  T    
C282  H195  S    
C317  H269  S    
C288  C289  S    
C269  H156  S    
C316  C317  S    
O96   Zn20  S    
C284  H191  S    
C264  H153  S    
C261  C262  S    
C5    O5    A    
O87   Zn23  S    
C113  C273  S    
C78   C86   A    
C102  O46   A    
C5    C213  S    
C16   C24   A    
C159  C175  T    
C259  H137  S    
C14   C22   A    
C160  C176  T    
C62   C70   A    
C48   C208  S    
O83   Zn21  S    
C242  H92   S    
C309  H258  S    
O78   Zn24  S    
C202  C210  A    
C121  H44   S    
C318  H279  S    
C26   C34   S    
C122  H43   S    
C235  H81   S    
C252  H126  S    
C101  O45   A    
C275  H170  S    
C290  H205  S    
C38   C46   S    
C13   C21   A    
C28   C204  A    
O63   Zn15  S    
O43   Zn14  S    
C301  C302  S    
O64   Zn16  S    
C97   O41   A    
C270  C271  S    
C130  O66   A    
C91   O35   A    
C280  C281  S    
C240  H98   S    
C228  H69   S    
C231  H77   S    
C34   H18   S    
C173  C189  S    
C152  O56   A    
C183  C199  S    
C249  H118  S    
C100  O28   A    
C314  H262  S    
C91   C155  S    
C155  C171  T    
C104  C168  S    
C89   C153  S    
C287  H197  S    
C252  C253  S    
C56   C64   A    
C120  C315  S    
C113  C121  S    
C146  O50   A    
C151  O63   A    
C93   C157  S    
C68   H36   S    
O73   Zn21  S    
O29   Zn7   S    
C304  H242  S    
C9    C17   A    
C271  C272  S    
O50   Zn2   S    
C258  H139  S    
C229  H67   S    
C234  H83   S    
O65   Zn17  S    
C43   C203  S    
C308  H248  S    
C147  O59   A    
C55   C111  A    
C51   C59   A    
C285  H203  S    
C19   C27   A    
C10   C218  A    
C296  H218  S    
C293  H213  S    
C61   C69   A    
C274  H172  S    
C12   H12   S    
C38   H27   S    
C283  H193  S    
C167  C183  T    
C312  H265  S    
O27   Zn6   S    
C14   C222  A    
C215  C223  A    
O36   Zn9   S    
C58   C146  S    
C260  H136  S    
O25   Zn5   S    
C255  H133  S    
C84   C131  S    
C210  C218  A    
C133  O76   A    
C47   C207  S    
C257  H127  S    
C165  C181  T    
C47   C261  S    
C254  H121  S    
C253  H124  S    
C239  H85   S    
C298  H229  S    
C295  H221  S    
C237  C238  S    
C266  H150  S    
C265  H152  S    
C172  C188  S    
C37   H25   S    
C4    C212  S    
C15   C23   A    
C320  H275  S    
C83   C107  A    
C135  O80   A    
C64   C72   A    
C315  C316  S    
O51   Zn3   S    
C288  H210  S    
C36   C44   S    
O37   Zn11  S    
C229  H68   S    
C281  H183  S    
C114  C122  S    
C280  H187  S    
C261  H147  S    
C101  O29   A    
O31   Zn8   S    
O22   Zn4   S    
C208  C216  A    
C236  H78   S    
C217  H1    S    
C245  H100  S    
C234  H84   S    
C33   H20   S    
C129  O65   A    
C276  H182  S    
C118  C126  S    
C73   Cl1   S    
C139  O88   A    
C117  C125  S    
C161  C177  T    
C56   C112  A    
C310  H257  S    
C306  H252  S    
