data_mof_unit_26406.cif
_audit_creation_date              2012-12-10T18:13:48-0500
_audit_creation_method            fapswitch 2.2
_symmetry_space_group_name_H-M    P1
_symmetry_Int_Tables_number       1
_space_group_crystal_system       triclinic
_cell_length_a                    10.841195
_cell_length_b                    9.868372
_cell_length_c                    23.219044
_cell_angle_alpha                 89.751658
_cell_angle_beta                  87.846579
_cell_angle_gamma                 88.464527
_cell_volume                      2481.42876441

loop_
_atom_site_label
_atom_site_type_symbol
_atom_type_description
_atom_site_fract_x
_atom_site_fract_y
_atom_site_fract_z
_atom_type_partial_charge
C1    C     C_R   0.260089 0.501304 0.499321 0.829257
C2    C     C_R   0.319172 0.717524 0.973922 -0.113658
C3    C     C_R   0.326100 0.717763 0.033606 -0.081150
C4    C     C_R   0.363524 0.600230 0.063278 -0.012459
C5    C     C_R   0.387615 0.478236 0.032864 -0.062190
C6    C     C_R   0.422078 0.357772 0.062697 -0.145903
C7    C     C_R   0.445587 0.236073 0.030206 0.428849
C8    C     C_R   0.436738 0.239702 0.970119 -0.205184
C9    C     C_R   0.380681 0.603371 0.122617 0.552223
C10   C     C_R   0.432730 0.366609 0.123366 0.593953
C11   C     C_R   0.554914 0.458114 0.232421 -0.059643
C12   C     C_R   0.497789 0.500470 0.391878 0.773418
C13   C     C_R   0.575355 0.460275 0.291398 -0.176930
C14   C     C_R   0.480109 0.502284 0.330065 0.049727
C15   C     C_R   0.364573 0.541883 0.309766 -0.141766
C16   C     C_R   0.343345 0.537236 0.251014 -0.063516
C17   C     C_R   0.438347 0.495303 0.211892 0.312329
C18   C     C_R   0.325174 0.518330 0.751927 -0.070516
C19   C     C_R   0.357375 0.524133 0.693286 -0.183901
C20   C     C_R   0.480272 0.501776 0.672716 -0.143100
C21   C     C_R   0.573345 0.483141 0.713969 0.353944
C22   C     C_R   0.539139 0.478739 0.772624 -0.136980
C23   C     C_R   0.738252 0.499322 0.497812 0.764124
C24   C     C_R   0.416077 0.492999 0.791686 0.250866
C25   C     C_3   0.060160 0.589827 0.547557 -0.334523
C26   C     C_3   0.069040 0.358604 0.508127 -0.284037
C27   C     C_3   0.919312 0.595864 0.544180 -0.388247
C28   C     C_3   0.929414 0.355508 0.503471 -0.416461
C29   C     C_3   0.073304 0.558846 0.439752 -0.371927
C30   C     C_3   0.119716 0.502823 0.498148 0.084854
C31   C     C_3   0.875870 0.500608 0.496232 0.158201
C32   C     C_3   0.929847 0.556262 0.438251 -0.379379
C33   C     C_3   0.622498 0.078612 0.484978 -0.322347
C34   C     C_3   0.626568 0.919325 0.497917 -0.294584
C35   C     C_3   0.456780 0.087337 0.561432 0.491385
C36   C     C_3   0.439860 0.918681 0.558534 0.469391
C37   C     C_3   0.412923 0.075124 0.458571 0.225399
C38   C     C_3   0.445800 0.917172 0.447931 0.242418
C39   C     C_R   0.502674 0.500074 0.609029 0.931301
C40   C     C_R   0.408705 0.364566 0.880371 0.593653
C41   C     C_R   0.352860 0.599988 0.882061 0.569238
C42   C     C_R   0.348596 0.599274 0.942585 -0.019971
C43   C     C_R   0.379890 0.478577 0.972181 -0.009514
C44   C     C_R   0.406855 0.359608 0.940869 -0.097849
Cu1   Cu    Cu3+1 0.499860 0.642410 0.500030 1.045668
Cu2   Cu    Cu3+1 0.499860 0.357590 0.500030 1.056009
H1    H     H_    0.293355 0.811089 0.952390 0.204167
H2    H     H_    0.284323 0.544042 0.663985 0.198908
H3    H     H_    0.608940 0.465335 0.804503 0.194145
H4    H     H_    0.089330 0.693932 0.544571 0.271891
H5    H     H_    0.111983 0.282683 0.478218 0.252931
H6    H     H_    0.087142 0.549685 0.590284 0.180643
H7    H     H_    0.087193 0.329208 0.552880 0.225621
H8    H     H_    0.878116 0.574207 0.586874 0.246331
H9    H     H_    0.888530 0.305300 0.542208 0.182193
H10   H     H_    0.888936 0.702139 0.534582 0.171403
H11   H     H_    0.906753 0.292446 0.465813 0.182142
H12   H     H_    0.104228 0.664542 0.433157 0.206053
H13   H     H_    0.113775 0.497589 0.403517 0.166016
H14   H     H_    0.892512 0.660497 0.430190 0.196407
H15   H     H_    0.902179 0.491882 0.401930 0.160950
H16   H     H_    0.701954 0.128988 0.501856 0.169322
H17   H     H_    0.677594 0.904665 0.536511 0.154926
H18   H     H_    0.303979 0.811242 0.056324 0.228977
H19   H     H_    0.643776 0.098867 0.439156 0.233382
H20   H     H_    0.691112 0.868025 0.467210 0.246108
H21   H     H_    0.321492 0.072657 0.479697 0.140002
H22   H     H_    0.360341 0.864043 0.439702 0.181957
H23   H     H_    0.456439 0.148275 0.945535 0.234162
H24   H     H_    0.629226 0.426273 0.202639 0.160422
H25   H     H_    0.664873 0.429325 0.306872 0.136238
H26   H     H_    0.290407 0.574141 0.339565 0.124491
H27   H     H_    0.252823 0.565139 0.235919 0.154541
H28   H     H_    0.229565 0.532555 0.766328 0.182810
N1    N     N_R   0.386285 0.484566 0.852334 -0.459005
N2    N     N_R   0.416212 0.488344 0.151208 -0.483597
N3    N     N_3   0.500250 0.143650 0.501250 -0.253058
N4    N     N_3   0.500250 0.856350 0.501250 -0.250706
O1    O     O_R   0.317570 0.620260 0.500030 -0.512281
O2    O     O_R   0.317570 0.379740 0.500030 -0.482399
O3    O     O_R   0.499840 0.620290 0.417900 -0.520851
O4    O     O_R   0.499840 0.379710 0.417900 -0.505532
O5    O     O_R   0.682190 0.620260 0.500010 -0.591694
O6    O     O_R   0.682190 0.379740 0.500010 -0.623229
O7    O     O_R   0.499920 0.620230 0.582140 -0.530921
O8    O     O_R   0.499920 0.379770 0.582140 -0.491008
O9    O     O_2   0.435945 0.251149 0.849642 -0.491696
O10   O     O_2   0.328423 0.716045 0.853213 -0.498596
O11   O     O_2   0.364645 0.721437 0.151430 -0.470889
O12   O     O_2   0.458445 0.255685 0.155025 -0.411774
S1    S     S_3+6 0.733612 0.475000 0.698027 -0.046541
O13   O     O_2   0.785333 0.614219 0.701768 -0.291131
O14   O     O_2   0.795140 0.384921 0.741480 -0.266969
O15   O     O_3   0.764834 0.413049 0.632529 -0.646210
H29   H     H_    0.846804 0.367203 0.635498 0.366369
N5    N     N_2   0.542961 0.117935 0.607679 -0.400314
H30   H     H_    0.511345 0.099861 0.649350 0.289509
C45   C     C_3   0.672387 0.150309 0.605760 -0.621311
H31   H     H_    0.687457 0.239865 0.579512 0.298016
H32   H     H_    0.733658 0.066372 0.590254 0.184141
H33   H     H_    0.701111 0.172842 0.650053 0.264773
N6    N     N_2   0.490640 0.861297 0.612555 -0.383666
H34   H     H_    0.435348 0.884865 0.648525 0.291859
C46   C     C_3   0.614070 0.822471 0.630951 -0.570165
H35   H     H_    0.603005 0.757938 0.669853 0.247348
H36   H     H_    0.665505 0.908897 0.645943 0.222047
H37   H     H_    0.668551 0.759189 0.599558 0.245859
S2    S     S_3+6 0.359739 0.154396 0.391561 0.081746
O16   O     O_2   0.459726 0.195957 0.349321 -0.193458
O17   O     O_2   0.284243 0.050940 0.362443 -0.253975
O18   O     O_3   0.265472 0.289231 0.402477 -0.585117
H38   H     H_    0.227100 0.305745 0.364950 0.352457
S3    S     S_3+6 0.539365 0.883064 0.378459 0.065171
O19   O     O_2   0.451740 0.833238 0.335088 -0.227998
O20   O     O_2   0.601212 0.004281 0.353033 -0.236604
O21   O     O_3   0.656935 0.768231 0.382244 -0.563229
H39   H     H_    0.680430 0.745278 0.341730 0.363620
S4    S     S_3+6 0.309259 0.168285 0.591979 0.036281
O22   O     O_2   0.201385 0.132848 0.557192 -0.343281
O23   O     O_2   0.292325 0.112806 0.652201 -0.260401
O24   O     O_3   0.290744 0.334182 0.603949 -0.545264
H40   H     H_    0.214935 0.343389 0.628988 0.346295
S5    S     S_3+6 0.277133 0.858382 0.567677 0.014270
O25   O     O_2   0.284461 0.717434 0.590944 -0.308659
O26   O     O_2   0.193036 0.921520 0.613305 -0.193349
O27   O     O_3   0.202006 0.865356 0.505412 -0.625088
H41   H     H_    0.124989 0.919470 0.513185 0.375332
S6    S     S_3+6 0.491407 0.077373 0.060573 0.053118
O28   O     O_2   0.391882 0.030770 0.102332 -0.221598
O29   O     O_2   0.512775 0.971705 0.014553 -0.309790
O30   O     O_3   0.623545 0.094996 0.095209 -0.469349
H42   H     H_    0.637750 0.006976 0.114871 0.394885

loop_
_geom_bond_atom_site_label_1
_geom_bond_atom_site_label_2
_ccdc_geom_bond_type
C26   H7    S    
O27   H41   S    
C41   C42   A    
C19   C20   A    
S6    O28   D    
C34   H20   S    
C46   H36   S    
C11   H24   S    
C33   H19   S    
S5    O25   D    
C28   H11   S    
O21   H39   S    
C15   H26   S    
C8    H23   S    
C37   C38   S    
C23   O5    A    
C18   C24   A    
C40   O9    S    
C32   H15   S    
C29   C32   S    
C5    C6    A    
S5    O26   D    
S1    O14   D    
C15   C16   A    
S2    O16   D    
C36   N6    S    
C18   C19   A    
C25   H4    S    
C1    C30   S    
Cu2   O4    S    
C10   N2    A    
C29   H13   S    
C16   C17   A    
N5    C45   S    
C17   N2    S    
Cu1   N4    S    
C9    N2    A    
C7    S6    S    
S3    O21   S    
C5    C43   A    
C18   H28   S    
C21   C22   A    
S4    O22   D    
Cu1   O5    S    
C46   H35   S    
C28   H9    S    
C27   H8    S    
C23   O6    A    
C27   C31   S    
C16   H27   S    
C7    C8    A    
C36   S5    S    
C37   S2    S    
C9    O11   S    
S1    O13   D    
C20   C39   S    
C27   H10   S    
C33   H16   S    
S5    O27   S    
C38   N4    S    
C35   N5    S    
C37   N3    S    
C35   N3    S    
S4    O24   S    
C23   C31   S    
Cu1   O7    S    
C43   C44   A    
C29   C30   S    
C41   N1    A    
C31   C32   S    
N5    H30   S    
C33   C34   S    
C12   O4    A    
O15   H29   S    
Cu1   O1    S    
C29   H12   S    
N6    C46   S    
O24   H40   S    
C22   H3    S    
Cu2   O6    S    
C12   C14   S    
C26   C30   S    
C45   H32   S    
C1    O1    A    
C22   C24   A    
C42   C43   A    
C39   O7    A    
C3    C4    A    
S6    O30   S    
S3    O19   D    
C21   S1    S    
C25   C30   S    
C38   S3    S    
C41   O10   S    
C11   C17   A    
O18   H38   S    
C19   H2    S    
C28   C31   S    
Cu1   O3    S    
C8    C44   A    
C38   H22   S    
C4    C5    A    
S6    O29   D    
C6    C10   A    
Cu2   N3    S    
S2    O18   S    
C24   N1    S    
C6    C7    A    
C2    H1    S    
C25   C27   S    
C45   H33   S    
C13   H25   S    
C26   C28   S    
C40   N1    A    
C2    C3    A    
C25   H6    S    
C36   N4    S    
C26   H5    S    
C34   N4    S    
S1    O15   S    
Cu2   O2    S    
C11   C13   A    
C33   N3    S    
C2    C42   A    
C37   H21   S    
C34   H17   S    
S2    O17   D    
C12   O3    A    
C3    H18   S    
N6    H34   S    
S4    O23   D    
Cu1   Cu2   S    
C40   C44   A    
C20   C21   A    
C10   O12   S    
C45   H31   S    
C1    O2    A    
C32   H14   S    
C14   C15   A    
C35   S4    S    
C35   C36   S    
C39   O8    A    
S3    O20   D    
C4    C9    A    
C13   C14   A    
C46   H37   S    
O30   H42   S    
Cu2   O8    S    
