data_mof_unit_8568.cif
_audit_creation_date              2012-12-10T17:37:26-0500
_audit_creation_method            fapswitch 2.2
_symmetry_space_group_name_H-M    P1
_symmetry_Int_Tables_number       1
_space_group_crystal_system       triclinic
_cell_length_a                    11.941981
_cell_length_b                    12.848061
_cell_length_c                    17.091619
_cell_angle_alpha                 91.125961
_cell_angle_beta                  81.43654
_cell_angle_gamma                 94.087076
_cell_volume                      2586.45046773

loop_
_atom_site_label
_atom_site_type_symbol
_atom_type_description
_atom_site_fract_x
_atom_site_fract_y
_atom_site_fract_z
_atom_type_partial_charge
C1    C     C_R   0.522934 0.700635 0.499001 0.957985
C2    C     C_R   0.554512 0.132363 0.471136 -0.274781
C3    C     C_R   0.449845 0.974098 0.519852 -0.146948
C4    C     C_R   0.550155 0.025902 0.480155 -0.146958
C5    C     C_R   0.955148 0.380619 0.446768 0.628025
C6    C     C_R   0.044854 0.619386 0.553224 0.627996
C7    C     C_R   0.839761 0.395113 0.449204 -0.219913
C8    C     C_R   0.160240 0.604891 0.550790 -0.219927
C9    C     C_R   0.858146 0.554479 0.520084 0.810614
C10   C     C_R   0.141855 0.445522 0.479915 0.810609
C11   C     C_R   0.975457 0.544263 0.518620 -0.379139
C12   C     C_R   0.477066 0.299365 0.501000 0.957997
C13   C     C_R   0.024544 0.455739 0.481376 -0.379157
C14   C     C_R   0.484400 0.496340 0.653403 0.901025
C15   C     C_R   0.515601 0.503664 0.346597 0.901037
C16   C     C_R   0.479978 0.493612 0.739347 -0.221656
C17   C     C_R   0.520025 0.506401 0.260653 -0.221689
C18   C     C_R   0.572542 0.453331 0.770032 -0.052080
C19   C     C_R   0.427456 0.546677 0.229972 -0.052060
C20   C     C_R   0.589755 0.479189 0.847579 -0.098238
C21   C     C_R   0.410228 0.520805 0.152431 -0.098222
C22   C     C_R   0.509647 0.537186 0.895019 -0.049650
C23   C     C_R   0.462027 0.187829 0.502968 -0.306722
C24   C     C_R   0.490331 0.462804 0.104990 -0.049637
C25   C     C_R   0.414115 0.569148 0.866929 0.602648
C26   C     C_R   0.585876 0.430857 0.133073 0.602623
C27   C     C_R   0.396605 0.545607 0.789791 -0.172994
C28   C     C_R   0.603399 0.454410 0.210207 -0.172950
C29   C     C_2   0.509933 0.543864 0.979271 -0.103878
C30   C     C_2   0.490038 0.456124 0.020738 -0.103889
C31   C     C_R   0.648353 0.380702 0.722196 0.170079
C32   C     C_R   0.764759 0.408512 0.700411 -0.104679
C33   C     C_R   0.834245 0.340330 0.654509 -0.184566
C34   C     C_R   0.537973 0.812171 0.497036 -0.306713
C35   C     C_R   0.788078 0.244797 0.629132 -0.053043
C36   C     C_R   0.672387 0.216915 0.650025 -0.117957
C37   C     C_R   0.602616 0.284532 0.696297 -0.182576
C38   C     C_R   0.351663 0.619322 0.277807 0.170062
C39   C     C_R   0.397420 0.715488 0.303699 -0.182596
C40   C     C_R   0.327668 0.783116 0.349974 -0.117972
C41   C     C_R   0.211976 0.755250 0.370880 -0.053019
C42   C     C_R   0.165788 0.659722 0.345512 -0.184552
C43   C     C_R   0.235255 0.591529 0.299604 -0.104679
C44   C     C_R   0.714619 0.432950 0.232510 0.200285
C45   C     C_R   0.644683 0.970525 0.450844 0.582548
C46   C     C_R   0.794769 0.516361 0.240988 -0.082033
C47   C     C_R   0.905409 0.497028 0.251121 -0.185526
C48   C     C_R   0.936775 0.394496 0.252766 -0.110997
C49   C     C_R   0.856961 0.311059 0.245756 -0.109893
C50   C     C_R   0.746229 0.330044 0.235383 -0.102054
C51   C     C_R   0.285407 0.567109 0.767477 0.200384
C52   C     C_R   0.253889 0.670033 0.764531 -0.102146
C53   C     C_R   0.143173 0.689077 0.754161 -0.109887
C54   C     C_R   0.063284 0.605682 0.747224 -0.110943
C55   C     C_R   0.094560 0.503131 0.748938 -0.185599
C56   C     C_R   0.355318 0.029475 0.549162 0.582535
C57   C     C_R   0.205184 0.483739 0.759071 -0.082009
C58   C     C_R   0.309150 0.554054 0.120441 0.148439
C59   C     C_R   0.225028 0.478950 0.102730 -0.148524
C60   C     C_R   0.127836 0.509778 0.075470 -0.121781
C61   C     C_R   0.114260 0.615569 0.065357 -0.061777
C62   C     C_R   0.198146 0.690704 0.082080 -0.046247
C63   C     C_R   0.295499 0.660229 0.109321 -0.102724
C64   C     C_R   0.690822 0.445926 0.879575 0.148464
C65   C     C_R   0.704456 0.339747 0.890691 -0.102737
C66   C     C_R   0.801798 0.309257 0.917939 -0.046242
C67   C     C_R   0.638538 0.863212 0.459138 0.568189
C68   C     C_R   0.885690 0.384383 0.934672 -0.061755
C69   C     C_R   0.872132 0.490180 0.924558 -0.121771
C70   C     C_R   0.774950 0.521022 0.897292 -0.148494
C71   C     C_R   0.361463 0.136788 0.540866 0.568201
C72   C     C_R   0.445489 0.867636 0.528870 -0.274799
F1    F     F_    0.997428 0.293170 0.411616 -0.597533
F2    F     F_    0.807323 0.636424 0.557708 -0.574908
F3    F     F_    0.002577 0.706840 0.588367 -0.597562
F4    F     F_    0.333613 0.617027 0.916916 -0.679665
F5    F     F_    0.666379 0.382986 0.083082 -0.679696
F6    F     F_    0.271530 0.190706 0.572577 -0.595785
F7    F     F_    0.728470 0.809294 0.427426 -0.595794
F8    F     F_    0.741675 0.019818 0.413151 -0.623994
F9    F     F_    0.258326 0.980182 0.586855 -0.624022
F10   F     F_    0.192677 0.363575 0.442293 -0.574902
H1    H     H_    0.213587 0.662975 0.577049 0.195509
H2    H     H_    0.636702 0.142947 0.630277 0.151097
H3    H     H_    0.512977 0.262211 0.711828 0.127789
H4    H     H_    0.487060 0.737796 0.288160 0.127793
H5    H     H_    0.363369 0.857082 0.369715 0.151090
H6    H     H_    0.158173 0.807508 0.406975 0.188779
H7    H     H_    0.076286 0.638142 0.362073 0.146705
H8    H     H_    0.198725 0.516915 0.281629 0.137991
H9    H     H_    0.772342 0.596183 0.237485 0.138297
H10   H     H_    0.967316 0.561512 0.256340 0.146074
H11   H     H_    0.022830 0.379741 0.259742 0.175438
H12   H     H_    0.786416 0.337033 0.422939 0.195514
H13   H     H_    0.881292 0.231679 0.247418 0.182800
H14   H     H_    0.685911 0.264897 0.227909 0.146402
H15   H     H_    0.314267 0.735149 0.771950 0.146341
H16   H     H_    0.118913 0.768470 0.752442 0.182862
H17   H     H_    0.977242 0.620486 0.740251 0.175514
H18   H     H_    0.032594 0.438682 0.743774 0.146066
H19   H     H_    0.227541 0.403906 0.762632 0.138259
H20   H     H_    0.234064 0.396819 0.111187 0.133783
H21   H     H_    0.062643 0.451719 0.062788 0.136388
H22   H     H_    0.038748 0.639363 0.044632 0.117183
H23   H     H_    0.481996 0.380068 0.992284 0.158559
H24   H     H_    0.187676 0.772590 0.074015 0.128307
H25   H     H_    0.359879 0.719119 0.122181 0.120646
H26   H     H_    0.640072 0.280864 0.877824 0.120636
H27   H     H_    0.812254 0.227368 0.926005 0.128294
H28   H     H_    0.961192 0.360579 0.955404 0.117166
H29   H     H_    0.937329 0.548232 0.937245 0.136381
H30   H     H_    0.765928 0.603156 0.888835 0.133768
H31   H     H_    0.517976 0.619920 0.007726 0.158562
H32   H     H_    0.631141 0.172789 0.440824 0.237194
H33   H     H_    0.368860 0.827210 0.559183 0.237180
H34   H     H_    0.801273 0.483131 0.718392 0.138003
H35   H     H_    0.923749 0.361922 0.637959 0.146717
H36   H     H_    0.841897 0.192547 0.593040 0.188780
N1    N     N_R   0.206400 0.519440 0.514690 -0.187522
N2    N     N_R   0.793600 0.480560 0.485310 -0.187526
O1    O     O_R   0.421320 0.658850 0.503920 -0.652188
O2    O     O_R   0.578680 0.341150 0.496080 -0.652186
O3    O     O_R   0.609840 0.646370 0.494500 -0.508283
O4    O     O_R   0.390160 0.353630 0.505500 -0.508275
O5    O     O_R   0.394600 0.506990 0.621070 -0.625595
O6    O     O_R   0.605400 0.493010 0.378930 -0.625604
O7    O     O_R   0.583120 0.494520 0.611640 -0.584382
O8    O     O_R   0.416880 0.505480 0.388360 -0.584377
Zn1   Zn    Zn3+2 0.374120 0.508330 0.506290 1.031484
Zn2   Zn    Zn3+2 0.625880 0.491670 0.493710 1.031478

loop_
_geom_bond_atom_site_label_1
_geom_bond_atom_site_label_2
_ccdc_geom_bond_type
C66   C68   A    
C33   H35   S    
C22   C29   S    
C8    H1    S    
C11   C13   A    
C47   H10   S    
C35   C36   A    
O8    Zn1   S    
C56   F9    S    
C53   C54   A    
C12   C23   S    
C29   C30   D    
C14   O5    A    
N2    Zn2   S    
C40   H5    S    
C37   H3    S    
C36   C37   A    
C19   C21   A    
C24   C26   A    
C38   C39   A    
O6    Zn2   S    
C52   H15   S    
C41   C42   A    
C41   H6    S    
C10   N1    A    
C33   C35   A    
C46   C47   A    
C31   C32   A    
C27   C51   S    
C68   C69   A    
C15   O6    A    
C22   C25   A    
C55   H18   S    
C45   C67   A    
C51   C57   A    
C64   C70   A    
C60   H21   S    
C65   H26   S    
C5    C13   A    
C16   C27   A    
C59   C60   A    
C17   C28   A    
C61   C62   A    
C44   C46   A    
C1    C34   S    
C1    O1    A    
C4    C45   A    
C26   F5    S    
C48   H11   S    
C51   C52   A    
C43   H8    S    
C23   C71   A    
C6    F3    S    
C61   H22   S    
C67   F7    S    
C6    C11   A    
C5    C7    A    
C17   C19   A    
C6    C8    A    
C46   H9    S    
C58   C59   A    
C28   C44   S    
C49   H13   S    
C14   O7    A    
C31   C37   A    
C60   C61   A    
C20   C64   S    
C2    C4    A    
C1    O3    A    
C62   C63   A    
C19   C38   S    
C3    C56   A    
C47   C48   A    
C12   O4    A    
C56   C71   A    
C68   H28   S    
C32   H34   S    
C9    C11   A    
C70   H30   S    
C48   C49   A    
C20   C22   A    
C49   C50   A    
C15   O8    A    
C55   C57   A    
O3    Zn2   S    
C14   C16   S    
C54   H17   S    
C42   C43   A    
C63   H25   S    
C3    C4    A    
C34   C72   A    
C39   C40   A    
C52   C53   A    
C44   C50   A    
C58   C63   A    
C15   C17   S    
C7    H12   S    
C29   H31   S    
C54   C55   A    
C40   C41   A    
C59   H20   S    
C7    N2    A    
O1    Zn1   S    
C10   C13   A    
C34   C67   A    
C62   H24   S    
C53   H16   S    
C25   C27   A    
C57   H19   S    
C26   C28   A    
C25   F4    S    
C64   C65   A    
C42   H7    S    
C3    C72   A    
O7    Zn2   S    
C38   C43   A    
C30   H23   S    
C32   C33   A    
C2    H32   S    
C50   H14   S    
C36   H2    S    
N1    Zn1   S    
C10   F10   S    
O4    Zn1   S    
C45   F8    S    
C18   C20   A    
C66   H27   S    
C5    F1    S    
C69   C70   A    
C69   H29   S    
C24   C30   S    
O5    Zn1   S    
C21   C58   S    
C12   O2    A    
C16   C18   A    
C65   C66   A    
C9    F2    S    
C21   C24   A    
C2    C23   A    
C9    N2    A    
C35   H36   S    
C18   C31   S    
C39   H4    S    
O2    Zn2   S    
C71   F6    S    
C8    N1    A    
C72   H33   S    
