data_mof_unit_44782.cif
_audit_creation_date              2012-12-10T21:07:48-0500
_audit_creation_method            fapswitch 2.2
_symmetry_space_group_name_H-M    P1
_symmetry_Int_Tables_number       1
_space_group_crystal_system       triclinic
_cell_length_a                    8.581465
_cell_length_b                    17.292007
_cell_length_c                    16.865661
_cell_angle_alpha                 92.405922
_cell_angle_beta                  100.380312
_cell_angle_gamma                 90.919554
_cell_volume                      2458.86735676

loop_
_atom_site_label
_atom_site_type_symbol
_atom_type_description
_atom_site_fract_x
_atom_site_fract_y
_atom_site_fract_z
_atom_type_partial_charge
C1    C     C_R   0.496823 0.352346 0.498012 0.849210
C2    C     C_R   0.398281 0.451068 0.239029 0.190685
C3    C     C_R   0.619874 0.537489 0.847839 0.000250
C4    C     C_R   0.406306 0.446748 0.154851 -0.005924
C5    C     C_R   0.496538 0.497721 0.875555 0.048671
C6    C     C_R   0.503819 0.500281 0.124443 0.038002
C7    C     C_1   0.494114 0.498661 0.963149 0.016705
C8    C     C_1   0.500977 0.501187 0.036510 0.002956
C9    C     C_R   0.200229 0.499553 0.478415 0.977616
C10   C     C_R   0.799701 0.499190 0.521443 0.983330
C11   C     C_2   0.034203 0.500671 0.467162 -0.391490
C12   C     C_R   0.493202 0.647697 0.501236 0.855900
C13   C     C_2   0.965511 0.495662 0.532185 -0.401399
C14   C     C_R   0.364436 0.849329 0.558865 -0.160890
C15   C     C_R   0.445053 0.142666 0.421434 -0.162608
C16   C     C_R   0.413871 0.772697 0.569109 0.088804
C17   C     C_R   0.499275 0.220142 0.427179 0.081673
C18   C     C_R   0.456647 0.730879 0.501268 -0.099866
C19   C     C_R   0.462084 0.268778 0.491121 -0.090553
C20   C     C_R   0.450275 0.767491 0.427818 -0.205585
C21   C     C_R   0.376847 0.238464 0.547167 -0.208830
C22   C     C_R   0.402077 0.843122 0.419984 -0.159648
C23   C     C_1   0.336944 0.964253 0.480825 -0.056276
C24   C     C_R   0.327898 0.161425 0.540907 -0.165812
C25   C     C_R   0.358956 0.883502 0.485204 0.117989
C26   C     C_R   0.361811 0.114073 0.478037 0.118239
C27   C     C_3   0.422798 0.736295 0.650815 -0.390617
C28   C     C_3   0.384803 0.788351 0.720687 -0.395758
C29   C     C_3   0.409823 0.745608 0.799336 -0.859004
C30   C     C_3   0.599230 0.250297 0.368189 -0.394837
C31   C     C_3   0.661614 0.188003 0.314755 -0.376763
C32   C     C_3   0.776817 0.222717 0.266268 -0.890652
C33   C     C_3   0.740941 0.590091 0.733406 -0.397649
C34   C     C_1   0.337506 0.032995 0.478821 -0.055781
C35   C     C_3   0.907323 0.555377 0.745477 -0.315509
C36   C     C_3   0.025148 0.609526 0.716135 -0.912612
C37   C     C_3   0.264208 0.407271 0.266033 -0.404848
C38   C     C_3   0.107993 0.450686 0.243640 -0.319623
C39   C     C_3   0.966820 0.402176 0.257772 -0.910785
C40   C     C_3   0.751382 0.577400 0.910779 -0.421749
C41   C     C_3   0.865047 0.518027 0.954341 -0.319180
C42   C     C_3   0.024151 0.555423 0.994032 -0.821707
C43   C     C_3   0.317394 0.382580 0.098337 -0.422246
C44   C     C_3   0.413271 0.308302 0.104022 -0.351265
C45   C     C_R   0.378850 0.458514 0.817895 0.067845
C46   C     C_3   0.326030 0.242858 0.049409 -0.827444
C47   C     C_R   0.600487 0.552004 0.180236 0.071350
C48   C     C_R   0.384263 0.459826 0.734784 -0.076866
C49   C     C_R   0.599605 0.549186 0.263763 -0.077195
C50   C     C_R   0.617884 0.539564 0.762460 0.196332
H1    H     H_    0.969323 0.507443 0.406359 0.187667
H2    H     H_    0.677034 0.588063 0.305703 0.169106
H3    H     H_    0.336235 0.691533 0.792351 0.263754
H4    H     H_    0.536377 0.730791 0.817303 0.255964
H5    H     H_    0.375681 0.783191 0.848097 0.257767
H6    H     H_    0.463952 0.840719 0.729806 0.230028
H7    H     H_    0.259237 0.806120 0.706765 0.227479
H8    H     H_    0.338939 0.685718 0.643226 0.231758
H9    H     H_    0.545747 0.716687 0.669718 0.208614
H10   H     H_    0.719694 0.269614 0.229266 0.260729
H11   H     H_    0.884280 0.246077 0.307616 0.268421
H12   H     H_    0.030616 0.488335 0.592771 0.186598
H13   H     H_    0.813247 0.177184 0.225401 0.256318
H14   H     H_    0.724499 0.143176 0.352920 0.233719
H15   H     H_    0.560882 0.160377 0.271587 0.221712
H16   H     H_    0.527374 0.290652 0.327798 0.211346
H17   H     H_    0.703322 0.282957 0.403666 0.214083
H18   H     H_    0.984083 0.622273 0.651876 0.264944
H19   H     H_    0.038693 0.664819 0.752939 0.264371
H20   H     H_    0.142450 0.582039 0.722195 0.261292
H21   H     H_    0.953233 0.545652 0.809465 0.246771
H22   H     H_    0.903825 0.498047 0.713182 0.251497
H23   H     H_    0.333305 0.884273 0.608094 0.128842
H24   H     H_    0.705339 0.602212 0.670124 0.256083
H25   H     H_    0.745347 0.648763 0.763035 0.154384
H26   H     H_    0.952537 0.349837 0.216505 0.264397
H27   H     H_    0.984261 0.384673 0.321302 0.265513
H28   H     H_    0.857262 0.436196 0.244953 0.267396
H29   H     H_    0.113747 0.506183 0.279639 0.250673
H30   H     H_    0.087234 0.465628 0.179247 0.222921
H31   H     H_    0.252065 0.347321 0.239381 0.176037
H32   H     H_    0.287547 0.397652 0.330443 0.252458
H33   H     H_    0.088076 0.577548 0.947620 0.263322
H34   H     H_    0.470672 0.102691 0.374697 0.127715
H35   H     H_    0.006483 0.604054 0.036260 0.287870
H36   H     H_    0.098674 0.511813 0.028368 0.250172
H37   H     H_    0.811475 0.490773 0.001762 0.238191
H38   H     H_    0.886949 0.470984 0.911094 0.243684
H39   H     H_    0.820506 0.621389 0.885509 0.210707
H40   H     H_    0.697626 0.611655 0.955584 0.229952
H41   H     H_    0.209960 0.229831 0.066902 0.257498
H42   H     H_    0.306469 0.259085 0.985423 0.289547
H43   H     H_    0.398064 0.189941 0.055401 0.245236
H44   H     H_    0.529632 0.319630 0.085952 0.232157
H45   H     H_    0.482491 0.737572 0.375606 0.176212
H46   H     H_    0.435660 0.289442 0.167126 0.215905
H47   H     H_    0.197044 0.370890 0.110632 0.209629
H48   H     H_    0.294295 0.399429 0.034872 0.240375
H49   H     H_    0.346253 0.274684 0.595818 0.170131
H50   H     H_    0.402158 0.870782 0.363481 0.144844
H51   H     H_    0.266482 0.138471 0.585931 0.145830
H52   H     H_    0.293726 0.428761 0.691748 0.165577
I1    I     I_    0.190130 0.395170 0.851677 -0.527914
I2    I     I_    0.751626 0.635665 0.143426 -0.477229
N1    N     N_R   0.500040 0.500030 0.707230 -0.124213
N2    N     N_R   0.499960 0.499970 0.292770 -0.121287
O1    O     O_R   0.500000 0.389130 0.566570 -0.600826
O2    O     O_R   0.500000 0.610870 0.433430 -0.606017
O3    O     O_R   0.499990 0.389100 0.433480 -0.649223
O4    O     O_R   0.500010 0.610900 0.566520 -0.656465
O5    O     O_R   0.271750 0.500010 0.550980 -0.617786
O6    O     O_R   0.728250 0.499990 0.449020 -0.609064
O7    O     O_R   0.271740 0.499980 0.417890 -0.634148
O8    O     O_R   0.728260 0.500020 0.582110 -0.628653
Zn1   Zn    Zn3+2 0.500010 0.500020 0.588860 0.919175
Zn2   Zn    Zn3+2 0.499990 0.499980 0.411140 0.921866

loop_
_geom_bond_atom_site_label_1
_geom_bond_atom_site_label_2
_ccdc_geom_bond_type
C9    O5    A    
C41   C42   S    
C35   C36   S    
C43   H48   S    
C12   O4    A    
O8    Zn1   S    
C28   H6    S    
C7    C8    T    
C47   C49   A    
C28   H7    S    
C29   H3    S    
C39   H27   S    
C28   C29   S    
C19   C21   A    
C24   C26   A    
C32   H11   S    
C15   H34   S    
C30   C31   S    
C21   H49   S    
C46   H42   S    
C38   H29   S    
C15   C17   A    
C24   H51   S    
C45   I1    S    
O3    Zn2   S    
C1    O3    A    
C33   H25   S    
C13   H12   S    
C31   C32   S    
C36   H20   S    
C22   C25   A    
C50   N1    A    
C10   O6    A    
C42   H36   S    
C40   H39   S    
C30   H17   S    
C10   O8    A    
O7    Zn2   S    
C23   C34   T    
C16   C27   S    
C35   H21   S    
C17   C30   S    
C37   H31   S    
C3    C50   A    
C44   C46   S    
C41   H37   S    
C1    C19   S    
C22   H50   S    
C6    C47   A    
C39   H28   S    
C11   H1    S    
C4    C6    A    
C5    C7    S    
C17   C19   A    
C15   C26   A    
C6    C8    S    
C46   H41   S    
C29   H5    S    
C33   C50   S    
C5    C45   A    
C2    N2    A    
N2    Zn2   S    
C2    C4    A    
C43   C44   S    
C14   H23   S    
C37   C38   S    
C44   H46   S    
C48   N1    A    
C49   H2    S    
C48   H52   S    
C42   H35   S    
C39   H26   S    
C9    C11   S    
O1    Zn1   S    
C30   H16   S    
C1    O1    A    
C40   C41   S    
C20   H45   S    
C20   C22   A    
C35   H22   S    
C14   C16   A    
C37   H32   S    
C32   H10   S    
O6    Zn2   S    
C36   H19   S    
C12   O2    A    
C45   C48   A    
C31   H15   S    
C41   H38   S    
C47   I2    S    
C26   C34   S    
C31   H14   S    
N1    Zn1   S    
C42   H33   S    
C43   H47   S    
C32   H13   S    
C3    C5    A    
C10   C13   S    
C3    C40   S    
C36   H18   S    
C49   N2    A    
C4    C43   S    
C9    O7    A    
O2    Zn2   S    
C27   H9    S    
C11   C13   D    
C2    C37   S    
C38   C39   S    
C46   H43   S    
C38   H30   S    
C27   H8    S    
C33   C35   S    
C18   C20   A    
C23   C25   S    
C14   C25   A    
C44   H44   S    
C33   H24   S    
C16   C18   A    
C29   H4    S    
C21   C24   A    
C12   C18   S    
C27   C28   S    
O5    Zn1   S    
C40   H40   S    
O4    Zn1   S    
