data_mof_unit_27450.cif
_audit_creation_date              2012-12-11T15:21:54-0500
_audit_creation_method            fapswitch 2.2
_symmetry_space_group_name_H-M    P1
_symmetry_Int_Tables_number       1
_space_group_crystal_system       triclinic
_cell_length_a                    8.368927
_cell_length_b                    12.86436
_cell_length_c                    19.067682
_cell_angle_alpha                 92.998519
_cell_angle_beta                  95.657505
_cell_angle_gamma                 98.585055
_cell_volume                      2015.26304041

loop_
_atom_site_label
_atom_site_type_symbol
_atom_type_description
_atom_site_fract_x
_atom_site_fract_y
_atom_site_fract_z
_atom_type_partial_charge
Ba1   Ba    Ba6+2 0.160910 0.552960 0.466220 1.746878
Ba2   Ba    Ba6+2 0.649260 0.447030 0.533730 1.709945
C1    C     C_3   0.276977 0.855251 0.207541 -0.207033
C2    C     C_R   0.733533 0.818652 0.473675 -0.177202
C3    C     C_R   0.698582 0.998185 0.452063 -0.116097
C4    C     C_3   0.851380 0.786565 0.247716 0.703631
C5    C     C_R   0.638717 0.889884 0.444878 0.014419
C6    C     C_R   0.885866 0.851999 0.511233 0.026668
C7    C     C_R   0.948819 0.963457 0.518284 -0.061722
C8    C     C_R   0.854771 0.037541 0.486672 -0.064932
C9    C     C_R   0.921497 0.148091 0.490112 0.021031
C10   C     C_R   0.166713 0.111346 0.557223 -0.002413
C11   C     C_R   0.104697 0.003131 0.553126 -0.098228
C12   C     C_3   0.378086 0.834716 0.275023 0.346288
C13   C     C_R   0.641143 0.485760 0.295146 -0.292660
C14   C     C_R   0.474662 0.458822 0.273436 0.008694
C15   C     C_R   0.418701 0.442896 0.200832 0.385154
C16   C     C_3   0.829958 0.860583 0.186317 -0.414529
C17   C     C_R   0.531500 0.466288 0.150464 0.009639
C18   C     C_R   0.696985 0.501654 0.174121 -0.102397
C19   C     C_R   0.752048 0.512024 0.246698 0.058215
C20   C     C_R   0.430301 0.549255 0.041168 0.400356
C21   C     C_R   0.359841 0.537096 0.970051 -0.132682
C22   C     C_R   0.347196 0.441310 0.929967 0.013219
C23   C     C_3   0.623970 0.772639 0.689948 0.743729
C24   C     C_R   0.393499 0.353965 0.963077 -0.063188
C25   C     C_R   0.456770 0.363191 0.034234 -0.117325
C26   C     C_R   0.476486 0.460242 0.073597 0.010022
C27   C     C_R   0.141416 0.387429 0.824639 -0.143728
C28   C     C_3   0.781083 0.172594 0.313668 0.382918
C29   C     C_R   0.088138 0.392426 0.753030 -0.008826
C30   C     C_R   0.349057 0.491806 0.733701 0.028291
C31   C     C_R   0.399500 0.493532 0.807146 -0.064137
C32   C     C_R   0.297837 0.436893 0.852320 -0.059600
C33   C     C_R   0.195038 0.438760 0.707564 -0.224257
C34   C     C_3   0.734905 0.782265 0.758305 -0.218185
C35   C     C_3   0.884356 0.185931 0.251353 0.273382
C36   C     C_3   0.157973 0.768615 0.683289 0.704228
C37   C     C_3   0.204439 0.872816 0.728404 -0.331809
C38   C     C_3   0.249365 0.236560 0.392634 0.275435
C39   C     C_3   0.262532 0.120168 0.386334 -0.282976
C40   C     C_3   0.824853 0.241902 0.139313 0.140737
C41   C     C_3   0.053859 0.656694 0.768008 0.206579
C42   C     C_3   0.541288 0.886895 0.608146 0.191383
C43   C     C_2   0.327998 0.960239 0.179150 0.920909
C44   C     C_2   0.530069 0.146013 0.833677 0.961761
C45   C     C_3   0.860102 0.148343 0.687339 0.372191
C46   C     C_3   0.914723 0.936289 0.326370 0.150239
C47   C     C_2   0.545670 0.564435 0.839548 0.842408
C48   C     C_3   0.478796 0.732714 0.045647 0.216430
C49   C     C_3   0.166227 0.446008 0.138711 0.219018
C50   C     C_2   0.686617 0.735925 0.262247 0.667226
C51   C     C_2   0.606239 0.136379 0.286987 0.880411
C52   C     C_3   0.896383 0.052047 0.724743 -0.341958
C53   C     C_3   0.371127 0.197409 0.725224 0.309059
C54   C     C_3   0.363770 0.150404 0.796836 -0.285265
C55   C     C_R   0.071770 0.182216 0.529001 -0.271615
H1    H     H_    0.357058 0.747974 0.278935 0.072887
H2    H     H_    0.152236 0.850812 0.219676 0.130987
H3    H     H_    0.224745 0.086725 0.331422 0.178676
H4    H     H_    0.187000 0.075958 0.422077 0.039767
H5    H     H_    0.389458 0.109875 0.401105 0.148145
H6    H     H_    0.506021 0.865772 0.270382 0.042732
H7    H     H_    0.280555 0.792283 0.165805 0.061807
H8    H     H_    0.685706 0.740572 0.646212 -0.053057
H9    H     H_    0.750958 0.703569 0.775142 0.054157
H10   H     H_    0.853151 0.828197 0.750779 0.046442
H11   H     H_    0.682753 0.825309 0.800313 0.149974
H12   H     H_    0.866170 0.109005 0.219360 -0.046186
H13   H     H_    0.791060 0.812810 0.135680 0.128370
H14   H     H_    0.763924 0.123639 0.642784 0.086381
H15   H     H_    0.973053 0.182453 0.665408 -0.090089
H16   H     H_    0.923516 0.991628 0.685819 0.062905
H17   H     H_    0.002513 0.074229 0.765117 0.094218
H18   H     H_    0.790514 0.019070 0.751603 0.206086
H19   H     H_    0.245309 0.208969 0.706627 -0.066091
H20   H     H_    0.450399 0.275437 0.731155 0.048920
H21   H     H_    0.296920 0.197877 0.830183 -0.015528
H22   H     H_    0.292438 0.070266 0.789673 0.091740
H23   H     H_    0.014409 0.201918 0.272079 0.105601
H24   H     H_    0.621748 0.050782 0.430841 0.122793
H25   H     H_    0.180671 0.950468 0.575391 0.067794
H26   H     H_    0.121045 0.265267 0.533199 0.046093
H27   H     H_    0.683195 0.735850 0.470682 0.084384
H28   H     H_    0.314617 0.601910 0.944943 0.101143
H29   H     H_    0.382073 0.278566 0.934333 0.082531
H30   H     H_    0.489140 0.294208 0.058949 0.099142
H31   H     H_    0.058553 0.350193 0.859366 0.117917
H32   H     H_    0.780532 0.527524 0.136347 0.069687
H33   H     H_    0.152774 0.441875 0.652320 0.064528
H34   H     H_    0.250710 0.771908 0.646616 0.069655
H35   H     H_    0.683188 0.495126 0.351010 0.097079
H36   H     H_    0.736184 0.910944 0.195410 0.101339
H37   H     H_    0.942668 0.913469 0.178905 0.132326
H38   H     H_    0.827936 0.112873 0.345536 -0.335716
H39   H     H_    0.718132 0.178605 0.126729 0.088531
H40   H     H_    0.935867 0.216315 0.120879 0.081448
H41   H     H_    0.798925 0.310725 0.109988 0.045547
H42   H     H_    0.940709 0.618239 0.736032 0.087031
H43   H     H_    0.036410 0.725455 0.802084 0.017712
H44   H     H_    0.091327 0.599194 0.804980 0.059012
H45   H     H_    0.208015 0.939733 0.694135 0.048202
H46   H     H_    0.496490 0.811295 0.576169 -0.003982
H47   H     H_    0.643113 0.932940 0.585317 0.024070
H48   H     H_    0.441171 0.933766 0.606350 0.108209
H49   H     H_    0.268532 0.102133 0.156634 0.345733
H50   H     H_    0.589003 0.304192 0.848407 0.284210
H51   H     H_    0.970853 0.959497 0.380237 0.099319
H52   H     H_    0.782474 0.938720 0.323472 0.034985
H53   H     H_    0.975819 0.992129 0.291732 0.044557
H54   H     H_    0.633856 0.705849 0.889728 0.289996
H55   H     H_    0.370456 0.750955 0.013008 0.037651
H56   H     H_    0.327125 0.876196 0.757354 0.176261
H57   H     H_    0.580986 0.725489 0.013471 0.028448
H58   H     H_    0.518822 0.800963 0.084403 0.115443
H59   H     H_    0.154921 0.414159 0.082966 0.014760
H60   H     H_    0.209774 0.532413 0.142817 0.085518
H61   H     H_    0.042098 0.434511 0.155169 0.091143
H62   H     H_    0.561078 0.661544 0.332025 0.277880
H63   H     H_    0.574847 0.270217 0.240210 0.287057
H64   H     H_    0.118392 0.883813 0.767482 0.076109
H65   H     H_    0.121715 0.246468 0.395449 -0.033906
H66   H     H_    0.325264 0.271774 0.441539 0.066758
O1    O     O_2   0.160820 0.763040 0.533820 -0.489766
O2    O     O_2   0.757190 0.414226 0.748977 -0.448293
O3    O     O_3   0.803903 0.217734 0.735383 -0.557040
O4    O     O_3   0.890970 0.628600 0.535400 -0.462155
O5    O     O_3   0.427530 0.446070 0.416950 -0.505990
O6    O     O_2   0.637430 0.550200 0.669460 -0.495747
O7    O     O_3   0.476716 0.710245 0.699749 -0.624534
O8    O     O_2   0.499873 0.117198 0.547908 -0.505382
O9    O     O_3   0.431249 0.128954 0.678022 -0.585501
O10   O     O_3   0.385950 0.698560 0.408070 -0.488602
O11   O     O_2   0.324510 0.878458 0.467039 -0.479286
O12   O     O_3   0.300050 0.279814 0.331513 -0.572650
O13   O     O_3   0.999168 0.759305 0.648189 -0.693682
O14   O     O_3   0.330858 0.885009 0.334728 -0.556046
O15   O     O_2   0.172860 0.449730 0.330520 -0.433847
O16   O     O_3   0.962080 0.644700 0.373110 -0.415493
O17   O     O_2   0.097253 0.573960 0.257796 -0.485981
O18   O     O_3   0.849042 0.271921 0.212279 -0.660531
O19   O     O_3   0.177413 0.681187 0.723937 -0.667976
O20   O     O_3   0.592028 0.875430 0.679170 -0.686750
O21   O     O_2   0.456414 0.977657 0.153227 -0.633468
O22   O     O_R   0.225158 0.036412 0.180131 -0.753450
O23   O     O_3   0.935406 0.708753 0.223671 -0.632510
O24   O     O_2   0.572274 0.060626 0.843387 -0.573947
O25   O     O_R   0.636250 0.237829 0.858425 -0.705700
O26   O     O_3   0.945171 0.835000 0.310067 -0.620506
O27   O     O_2   0.672166 0.530157 0.854651 -0.610995
O28   O     O_R   0.531952 0.668009 0.860587 -0.770403
O29   O     O_3   0.438450 0.642248 0.082974 -0.628109
O30   O     O_3   0.262952 0.388083 0.181632 -0.633326
O31   O     O_2   0.583877 0.700960 0.213391 -0.650532
O32   O     O_R   0.659526 0.716476 0.331191 -0.804256
O33   O     O_2   0.541356 0.051354 0.302376 -0.651553
O34   O     O_2   0.649470 0.236890 0.466160 -0.479137
O35   O     O_R   0.514472 0.197909 0.246231 -0.702098
O36   O     O_3   0.919320 0.371390 0.464540 -0.461823
O37   O     O_3   0.424350 0.301430 0.591880 -0.488233
O38   O     O_3   0.791865 0.267758 0.353647 -0.625478
O39   O     O_3   0.382770 0.553920 0.582990 -0.473972
O40   O     O_3   0.848220 0.355290 0.626830 -0.483857
P1    P     P_3+3 0.986780 0.745970 0.554690 0.971620
P2    P     P_3+3 0.341450 0.417130 0.341310 1.074083
P3    P     P_3+3 0.938401 0.604607 0.279976 1.070289
P4    P     P_3+3 0.823520 0.254020 0.445250 0.994946
P5    P     P_3+3 0.874860 0.347268 0.717699 1.010113
P6    P     P_3+3 0.424336 0.838129 0.410944 1.012712
P7    P     P_3+3 0.461498 0.576264 0.672566 0.990462
P8    P     P_3+3 0.379462 0.163769 0.592263 0.939410

loop_
_geom_bond_atom_site_label_1
_geom_bond_atom_site_label_2
_ccdc_geom_bond_type
C16   H13   S    
C46   H53   S    
C53   C54   S    
O4    P1    S    
C35   H12   S    
C17   C18   A    
Ba1   O5    S    
C39   H4    S    
C2    C6    A    
C15   O30   S    
O34   P4    D    
C42   H47   S    
C34   H10   S    
C1    H7    S    
C50   O32   S    
C10   C11   A    
O8    P8    D    
C51   O35   S    
H49   O22   S    
C35   O18   S    
C47   O27   D    
C45   O3    S    
O15   P2    D    
C43   O22   S    
C41   H42   S    
C48   H58   S    
O3    P5    S    
C40   H41   S    
C36   C37   S    
C4    O23   S    
C34   H9    S    
C50   O31   D    
C13   C14   A    
Ba2   O6    S    
C54   H21   S    
Ba1   Ba2   S    
O10   P6    S    
C27   H31   S    
C7    C11   A    
C15   C17   A    
C13   H35   S    
C52   H17   S    
C4    O26   S    
C44   O25   S    
C12   H1    S    
Ba2   O36   S    
C37   H56   S    
O11   P6    D    
O39   P7    S    
C43   O21   D    
C21   C22   A    
C55   H26   S    
O9    P8    S    
C36   O13   S    
C7    C8    A    
O14   P6    S    
Ba1   O16   S    
Ba2   O4    S    
C46   H52   S    
O23   P3    S    
C20   C26   A    
C46   O26   S    
H63   O35   S    
C36   O19   S    
Ba2   O39   S    
C23   O20   S    
C39   H5    S    
C2    C5    A    
Ba1   O10   S    
C23   O7    S    
C35   H23   S    
C42   H46   S    
C49   H61   S    
C10   P8    S    
O17   P3    D    
C4    C16   S    
C38   O12   S    
C20   O29   S    
C47   O28   S    
C9    P4    S    
C30   C33   A    
O6    P7    D    
Ba1   O36   S    
O2    P5    D    
C23   H8    S    
C41   H43   S    
Ba1   P1    S    
C6    P1    S    
C40   H40   S    
C3    C5    A    
C14   C15   A    
C42   H48   S    
C36   H34   S    
C1    C43   S    
C22   C32   S    
C19   P3    S    
C28   C35   S    
C48   H57   S    
O16   P3    S    
C41   H44   S    
C28   H38   S    
C52   H16   S    
C3    H24   S    
C44   O24   D    
C2    H27   S    
C12   O14   S    
Ba1   P2    S    
C14   P2    S    
C24   H29   S    
C40   O18   S    
C48   H55   S    
C31   C32   A    
C6    C7    A    
C11   H25   S    
C28   C51   S    
C29   P5    S    
C25   H30   S    
C17   C26   S    
C54   H22   S    
C45   H14   S    
O38   P4    S    
C1    C12   S    
C45   C52   S    
C53   H19   S    
C38   C39   S    
Ba1   O39   S    
C5    P6    S    
C24   C25   A    
O5    P2    S    
C16   H37   S    
C40   H39   S    
C10   C55   A    
C37   H45   S    
O13   P1    S    
C38   H66   S    
C30   P7    S    
C49   O30   S    
H62   O32   S    
Ba1   O4    S    
C39   H3    S    
C22   C24   A    
H54   O28   S    
Ba2   O40   S    
C34   H11   S    
Ba2   O34   S    
C38   H65   S    
C18   H32   S    
C49   H59   S    
C37   H64   S    
C30   C31   A    
O40   P5    S    
Ba1   O1    S    
C3    C8    A    
C27   C29   A    
H50   O25   S    
C46   H51   S    
O7    P7    S    
C42   O20   S    
C53   H20   S    
C12   H6    S    
C27   C32   A    
C49   H60   S    
O37   P8    S    
O36   P4    S    
C29   C33   A    
C45   H15   S    
O12   P2    S    
C8    C9    A    
C23   C34   S    
C52   H18   S    
C33   H33   S    
C48   O29   S    
C13   C19   A    
C18   C19   A    
C51   O33   D    
Ba2   O37   S    
C53   O9    S    
C21   H28   S    
C44   C54   S    
C25   C26   A    
C16   H36   S    
C20   C21   A    
C41   O19   S    
C28   O38   S    
C4    C50   S    
C9    C55   A    
C31   C47   S    
Ba2   P4    S    
Ba1   O15   S    
C1    H2    S    
O1    P1    D    
Ba2   O5    S    
