data_mof_unit_60939.cif
_audit_creation_date              2012-12-10T20:58:43-0500
_audit_creation_method            fapswitch 2.2
_symmetry_space_group_name_H-M    P1
_symmetry_Int_Tables_number       1
_space_group_crystal_system       triclinic
_cell_length_a                    15.7819
_cell_length_b                    15.070911
_cell_length_c                    14.180358
_cell_angle_alpha                 89.999716
_cell_angle_beta                  89.980032
_cell_angle_gamma                 90.000064
_cell_volume                      3372.76405879

loop_
_atom_site_label
_atom_site_type_symbol
_atom_type_description
_atom_site_fract_x
_atom_site_fract_y
_atom_site_fract_z
_atom_type_partial_charge
C1    C     C_1   0.250364 0.500006 0.486568 -0.169485
C2    C     C_R   0.661485 0.500001 0.499743 0.900385
C3    C     C_R   0.500000 0.500000 0.328632 0.891687
C4    C     C_R   0.500000 0.500000 0.671369 0.894042
C5    C     C_1   0.499999 0.807173 0.499994 0.064635
C6    C     C_1   0.499999 0.192827 0.499994 0.064648
C7    C     C_1   0.499999 0.500000 0.227332 -0.191779
C8    C     C_1   0.500001 0.499999 0.772673 -0.189348
C9    C     C_1   0.499999 0.500000 0.142241 0.003909
C10   C     C_1   0.500001 0.500000 0.857764 0.005285
C11   C     C_1   0.499999 0.500000 0.042546 0.021940
C12   C     C_1   0.749645 0.500007 0.486510 -0.169439
C13   C     C_1   0.500000 0.500000 0.957461 0.022294
C14   C     C_R   0.445088 0.953123 0.440766 -0.145826
C15   C     C_R   0.554912 0.046876 0.559211 -0.145793
C16   C     C_R   0.554912 0.953123 0.559211 -0.145795
C17   C     C_R   0.445088 0.046877 0.440766 -0.145821
C18   C     C_R   0.955962 0.581703 0.449176 0.423154
C19   C     C_R   0.044084 0.418433 0.448806 0.423312
C20   C     C_R   0.044085 0.581700 0.449162 0.423306
C21   C     C_R   0.955960 0.418433 0.448816 0.423155
C22   C     C_R   0.912147 0.500059 0.453429 -0.297602
C23   C     C_R   0.087894 0.500058 0.453417 -0.297780
C24   C     C_1   0.823747 0.500026 0.471579 0.003288
C25   C     C_1   0.176276 0.500024 0.471607 0.003464
C26   C     C_R   0.500000 0.905041 0.499989 0.069344
C27   C     C_R   0.500000 0.094959 0.499989 0.069341
C28   C     C_R   0.338514 0.500000 0.499820 0.900741
H1    H     H_    0.402050 0.081874 0.394349 0.145107
H2    H     H_    0.597949 0.918127 0.605630 0.145284
H3    H     H_    0.597949 0.081873 0.605630 0.145281
H4    H     H_    0.402050 0.918126 0.394349 0.145099
H5    H     H_    0.145571 0.655523 0.434890 0.340869
H6    H     H_    0.854471 0.344656 0.434342 0.341497
H7    H     H_    0.854473 0.655540 0.435045 0.341504
H8    H     H_    0.145571 0.344666 0.434231 0.340862
N1    N     N_1   0.500000 0.270550 0.500000 -0.075934
N2    N     N_1   0.500000 0.729450 0.500000 -0.075938
O1    O     O_R   0.378020 0.573650 0.500030 -0.600703
O2    O     O_3   0.915553 0.336887 0.447541 -0.677215
O3    O     O_3   0.915557 0.663254 0.448265 -0.677224
O4    O     O_3   0.084497 0.336891 0.447519 -0.677450
O5    O     O_R   0.621980 0.426350 0.499970 -0.600696
O6    O     O_R   0.621980 0.573650 0.499970 -0.600720
O7    O     O_R   0.378020 0.426350 0.500030 -0.600685
O8    O     O_R   0.500000 0.573680 0.373720 -0.592450
O9    O     O_R   0.500000 0.426320 0.626280 -0.591370
O10   O     O_R   0.500000 0.573680 0.626280 -0.591365
O11   O     O_R   0.500000 0.426320 0.373720 -0.592449
O12   O     O_3   0.084499 0.663246 0.448230 -0.677447
Zn1   Zn    Zn3+2 0.500000 0.598370 0.500000 0.988434
Zn2   Zn    Zn3+2 0.500000 0.401630 0.500000 0.988450

loop_
_geom_bond_atom_site_label_1
_geom_bond_atom_site_label_2
_ccdc_geom_bond_type
C1    C28   S    
O1    Zn1   S    
C20   C23   A    
C15   H3    S    
O9    Zn2   S    
C11   C13   T    
C12   C24   T    
C3    O8    A    
C15   C27   A    
C6    C27   S    
O7    Zn2   S    
C19   O4    S    
C2    O5    A    
C4    C8    S    
O11   Zn2   S    
C2    C12   S    
C3    O11   A    
C6    N1    T    
C28   O7    A    
C18   C22   A    
C21   C22   A    
C14   C26   A    
C1    C25   T    
C9    C11   S    
C14   C17   A    
C21   O2    S    
H6    O2    S    
O6    Zn1   S    
C19   C21   A    
C3    C7    S    
C23   C25   S    
C16   C26   A    
H7    O3    S    
C22   C24   S    
O5    Zn2   S    
C16   H2    S    
C15   C16   A    
C17   C27   A    
C17   H1    S    
C18   C20   A    
C8    C10   T    
C4    O10   A    
C18   O3    S    
C2    O6    A    
C7    C9    T    
N1    Zn2   S    
C19   C23   A    
C20   O12   S    
N2    Zn1   S    
C28   O1    A    
H5    O12   S    
C5    N2    T    
H8    O4    S    
O8    Zn1   S    
C10   C13   S    
O10   Zn1   S    
C5    C26   S    
C14   H4    S    
C4    O9    A    
