data_mof_unit_29403.cif
_audit_creation_date              2012-12-10T16:52:41-0500
_audit_creation_method            fapswitch 2.2
_symmetry_space_group_name_H-M    P1
_symmetry_Int_Tables_number       1
_space_group_crystal_system       triclinic
_cell_length_a                    7.858952
_cell_length_b                    8.558765
_cell_length_c                    13.874203
_cell_angle_alpha                 93.301142
_cell_angle_beta                  94.120847
_cell_angle_gamma                 94.147442
_cell_volume                      926.518663045

loop_
_atom_site_label
_atom_site_type_symbol
_atom_type_description
_atom_site_fract_x
_atom_site_fract_y
_atom_site_fract_z
_atom_type_partial_charge
C1    C     C_R   0.044990 0.794498 0.497524 0.947741
C2    C     C_R   0.933767 0.479766 0.318735 0.917977
C3    C     C_R   0.107529 0.559369 0.786197 -0.361936
C4    C     C_R   0.893184 0.438119 0.216042 -0.328870
C5    C     C_R   0.032201 0.612360 0.950891 -0.187322
C6    C     C_R   0.903524 0.268493 0.070433 -0.177045
C7    C     C_R   0.985256 0.601226 0.851652 0.389558
C8    C     C_R   0.954876 0.304445 0.168064 0.366873
C9    C     C_R   0.277183 0.549170 0.822621 0.522160
C10   C     C_R   0.768689 0.520383 0.168558 0.471435
C11   C     C_R   0.311171 0.524017 0.919990 -0.049543
C12   C     C_R   0.955010 0.205507 0.502438 0.927268
C13   C     C_R   0.683320 0.451227 0.082771 -0.039579
C14   C     C_R   0.193398 0.571492 0.985702 -0.094317
C15   C     C_R   0.765236 0.339840 0.027576 -0.080852
C16   C     C_R   0.462629 0.459564 0.953527 -0.085968
C17   C     C_R   0.516891 0.486210 0.052278 -0.136759
C18   C     C_3   0.776837 0.786097 0.162367 -0.292092
C19   C     C_3   0.448403 0.742938 0.767717 -0.252006
C20   C     C_3   0.420613 0.341422 0.230082 -0.203577
C21   C     C_3   0.369149 0.167751 0.812048 -0.370917
C22   C     C_R   0.395722 0.528445 0.118969 0.609386
C23   C     C_R   0.551397 0.354795 0.894835 0.676370
C24   C     C_R   0.237513 0.574760 0.084754 -0.249136
C25   C     C_R   0.699922 0.293818 0.933450 -0.261658
C26   C     C_2   0.068328 0.958325 0.496125 -0.375760
C27   C     C_2   0.931653 0.041667 0.503653 -0.367166
C28   C     C_R   0.067303 0.524911 0.681594 0.891141
H1    H     H_    0.147531 0.608676 0.136048 0.160738
H2    H     H_    0.918823 0.794652 0.162417 0.154986
H3    H     H_    0.740503 0.895194 0.200068 0.205146
H4    H     H_    0.492878 0.791317 0.842202 0.161803
H5    H     H_    0.335894 0.803047 0.739379 0.108814
H6    H     H_    0.552815 0.769528 0.720323 0.176210
H7    H     H_    0.038300 0.208858 0.284204 0.331664
H8    H     H_    0.835109 0.703785 0.765034 0.332711
H9    H     H_    0.369446 0.262932 0.165856 0.159244
H10   H     H_    0.341217 0.312631 0.290070 0.206113
H11   H     H_    0.552500 0.312212 0.251680 0.140597
H12   H     H_    0.761779 0.208296 0.890171 0.152799
H13   H     H_    0.256207 0.202500 0.849794 0.154866
H14   H     H_    0.430962 0.073525 0.850320 0.139517
H15   H     H_    0.322059 0.118740 0.738408 0.202642
H16   H     H_    0.941211 0.649906 0.000532 0.159636
H17   H     H_    0.958696 0.173313 0.031635 0.161628
H18   H     H_    0.197140 0.009747 0.489002 0.182035
H19   H     H_    0.802841 0.990244 0.510770 0.183325
H20   H     H_    0.487240 0.365927 0.435225 0.174571
H21   H     H_    0.513611 0.632264 0.566775 0.198996
H22   H     H_    0.716635 0.780846 0.087072 0.155179
N1    N     N_2   0.440860 0.456490 0.474790 -0.139302
N2    N     N_2   0.559140 0.543510 0.525210 -0.131654
O1    O     O_R   0.891570 0.738930 0.506190 -0.617571
O2    O     O_3   0.412130 0.578757 0.765575 -0.517169
O3    O     O_3   0.053894 0.200454 0.214072 -0.799845
O4    O     O_3   0.824076 0.640547 0.822093 -0.734378
O5    O     O_3   0.418355 0.504304 0.216790 -0.558998
O6    O     O_3   0.486395 0.297992 0.803184 -0.546609
O7    O     O_R   0.108430 0.261070 0.493810 -0.626797
O8    O     O_R   0.174650 0.711050 0.490030 -0.626084
O9    O     O_R   0.825350 0.288950 0.509970 -0.625861
O10   O     O_R   0.909850 0.521900 0.644940 -0.593319
O11   O     O_R   0.090150 0.478100 0.355060 -0.604819
O12   O     O_R   0.192930 0.494020 0.628780 -0.549300
O13   O     O_R   0.807070 0.505980 0.371220 -0.565405
O14   O     O_3   0.717482 0.657062 0.212702 -0.547665
Zn1   Zn    Zn3+2 0.810990 0.518620 0.510790 0.991206
Zn2   Zn    Zn3+2 0.189010 0.481380 0.489210 0.984945

loop_
_geom_bond_atom_site_label_1
_geom_bond_atom_site_label_2
_ccdc_geom_bond_type
C23   O6    S    
C2    C4    S    
C18   H2    S    
C6    H17   S    
O7    Zn2   S    
C18   O14   S    
C20   H10   S    
C11   C16   A    
O9    Zn1   S    
C17   C22   A    
C13   C17   A    
C4    C8    A    
H21   N2    S    
C2    O13   A    
C22   O5    S    
C10   O14   S    
C5    C14   A    
C21   O6    S    
C21   H15   S    
C20   H9    S    
C9    C11   A    
C18   H22   S    
C26   C27   D    
N2    Zn1   S    
C7    O4    S    
C3    C9    A    
C19   H4    S    
O12   Zn2   S    
C19   O2    S    
C27   H19   S    
H8    O4    S    
C18   H3    S    
C5    H16   S    
C8    O3    S    
C16   C23   A    
C3    C7    A    
N1    Zn2   S    
C13   C15   A    
C25   H12   S    
C19   H5    S    
C1    C26   S    
O1    Zn1   S    
C11   C14   A    
C22   C24   A    
C15   C25   A    
O10   Zn1   S    
C26   H18   S    
C12   C27   S    
C4    C10   A    
N1    N2    D    
C28   O12   A    
C23   C25   A    
C12   O9    A    
C2    O11   A    
O8    Zn2   S    
C21   H13   S    
C1    O8    A    
C14   C24   A    
H20   N1    S    
C5    C7    A    
C20   H11   S    
C1    O1    A    
C24   H1    S    
C3    C28   S    
C6    C8    A    
C9    O2    S    
C6    C15   A    
O11   Zn2   S    
C12   O7    A    
C20   O5    S    
C10   C13   A    
H7    O3    S    
C21   H14   S    
C16   C17   A    
O13   Zn1   S    
C19   H6    S    
C28   O10   A    
