data_mof_unit_64832.cif
_audit_creation_date              2012-12-10T19:16:52-0500
_audit_creation_method            fapswitch 2.2
_symmetry_space_group_name_H-M    P1
_symmetry_Int_Tables_number       1
_space_group_crystal_system       triclinic
_cell_length_a                    15.994514
_cell_length_b                    14.773853
_cell_length_c                    10.7472
_cell_angle_alpha                 89.995824
_cell_angle_beta                  89.999886
_cell_angle_gamma                 89.999274
_cell_volume                      2539.56978678

loop_
_atom_site_label
_atom_site_type_symbol
_atom_type_description
_atom_site_fract_x
_atom_site_fract_y
_atom_site_fract_z
_atom_type_partial_charge
C1    C     C_R   0.340851 0.499999 0.500073 0.826165
C2    C     C_3   0.578816 0.451315 0.928215 -0.374078
C3    C     C_R   0.956365 0.582089 0.504224 -0.175746
C4    C     C_R   0.956368 0.417886 0.495922 -0.175530
C5    C     C_R   0.912773 0.499988 0.500060 0.154155
C6    C     C_R   0.043624 0.417887 0.495942 -0.175728
C7    C     C_R   0.043620 0.582089 0.504244 -0.175957
C8    C     C_R   0.087216 0.499988 0.500101 0.154262
C9    C     C_1   0.823312 0.499989 0.500031 -0.068249
C10   C     C_1   0.176676 0.499991 0.500100 -0.068649
C11   C     C_1   0.251730 0.499996 0.500091 -0.181407
C12   C     C_1   0.748259 0.499994 0.500010 -0.180711
C13   C     C_R   0.503113 0.951637 0.618364 -0.036478
C14   C     C_R   0.503119 0.048323 0.618368 -0.037055
C15   C     C_R   0.500016 0.500139 0.259261 0.753492
C16   C     C_R   0.500076 0.902831 0.504905 -0.011356
C17   C     C_R   0.500079 0.097158 0.504915 -0.011629
C18   C     C_R   0.497070 0.952287 0.393202 -0.169294
C19   C     C_R   0.497070 0.047718 0.393208 -0.169019
C20   C     C_1   0.500008 0.802601 0.501669 0.137977
C21   C     C_1   0.500010 0.197396 0.501681 0.138980
C22   C     C_R   0.659137 0.499998 0.499997 0.826097
C23   C     C_R   0.500040 0.500135 0.740788 0.754639
C24   C     C_3   0.500355 0.599255 0.071242 -0.365103
C25   C     C_3   0.420971 0.451906 0.071807 -0.376243
C26   C     C_3   0.500367 0.599259 0.928751 -0.351948
C27   C     C_3   0.420984 0.451894 0.928199 -0.374476
C28   C     C_3   0.578816 0.451333 0.071824 -0.375967
C29   C     C_3   0.500040 0.500634 0.121589 0.144341
C30   C     C_3   0.500053 0.500630 0.878437 0.136466
Cu1   Cu    Cu3+1 0.500000 0.589220 0.500040 0.971450
Cu2   Cu    Cu3+1 0.500000 0.410780 0.500040 0.973416
H1    H     H_    0.556657 0.636018 0.105340 0.175849
H2    H     H_    0.419085 0.380836 0.106083 0.179646
H3    H     H_    0.494698 0.916829 0.305049 0.145126
H4    H     H_    0.494694 0.083189 0.305058 0.145457
H5    H     H_    0.444277 0.636437 0.105305 0.175374
H6    H     H_    0.363722 0.486497 0.106557 0.152886
H7    H     H_    0.444305 0.636460 0.894654 0.181659
H8    H     H_    0.363736 0.486468 0.893405 0.152518
H9    H     H_    0.556670 0.636030 0.894658 0.182843
H10   H     H_    0.419122 0.380814 0.893950 0.186176
H11   H     H_    0.636274 0.485506 0.106588 0.153030
H12   H     H_    0.580261 0.380249 0.106096 0.180366
H13   H     H_    0.636282 0.485462 0.893424 0.152694
H14   H     H_    0.580235 0.380219 0.893980 0.187609
H15   H     H_    0.077021 0.645856 0.507473 0.139935
H16   H     H_    0.077027 0.354121 0.492723 0.140009
H17   H     H_    0.922962 0.645855 0.507439 0.140137
H18   H     H_    0.922967 0.354120 0.492690 0.140206
N1    N     N_1   0.499980 0.276710 0.500040 -0.153057
N2    N     N_1   0.499980 0.723290 0.500040 -0.153365
O1    O     O_R   0.380310 0.575320 0.500060 -0.568576
O2    O     O_R   0.380310 0.424680 0.500060 -0.568525
O3    O     O_R   0.499990 0.575340 0.317720 -0.584829
O4    O     O_R   0.499990 0.424660 0.317720 -0.582362
O5    O     O_R   0.619690 0.575360 0.500000 -0.568204
O6    O     O_R   0.619690 0.424640 0.500000 -0.568169
O7    O     O_R   0.500010 0.575340 0.682340 -0.580206
O8    O     O_R   0.500010 0.424660 0.682340 -0.576314
C31   C     C_1   0.506246 0.097466 0.734951 0.231999
N3    N     N_1   0.508741 0.136804 0.828005 -0.292615
C32   C     C_1   0.506218 0.902459 0.734940 0.231518
N4    N     N_1   0.508692 0.863086 0.827978 -0.295635

loop_
_geom_bond_atom_site_label_1
_geom_bond_atom_site_label_2
_ccdc_geom_bond_type
C22   O6    A    
C2    C28   S    
C1    O2    A    
Cu2   N1    S    
C5    C9    S    
C25   H6    S    
C25   C27   S    
C7    H15   S    
C18   H3    S    
C27   H8    S    
C28   H11   S    
Cu1   Cu2   S    
C13   C32   S    
Cu2   O6    S    
Cu1   N2    S    
C2    C30   S    
C15   O4    A    
Cu1   O5    S    
C22   O5    A    
C24   H5    S    
C3    H17   S    
C7    C8    A    
C20   N2    T    
C16   C18   A    
C13   C14   A    
Cu1   O1    S    
C27   C30   S    
C23   O7    A    
C27   H10   S    
C23   O8    A    
C6    H16   S    
Cu2   O2    S    
C16   C20   S    
C17   C19   A    
C24   C26   S    
C15   C29   S    
C3    C7    A    
C19   H4    S    
C2    H13   S    
C25   C29   S    
C31   N3    T    
C9    C12   T    
C17   C21   S    
C26   H7    S    
C10   C11   T    
Cu2   O8    S    
C32   N4    T    
C23   C30   S    
C12   C22   S    
C21   N1    T    
C25   H2    S    
C28   H12   S    
C4    C6    A    
C18   C19   A    
C13   C16   A    
Cu1   O7    S    
C1    O1    A    
C24   C29   S    
C28   C29   S    
C6    C8    A    
C1    C11   S    
C14   C17   A    
Cu1   O3    S    
C14   C31   S    
Cu2   O4    S    
C8    C10   S    
C2    H14   S    
C24   H1    S    
C26   H9    S    
C4    H18   S    
C4    C5    A    
C3    C5    A    
C26   C30   S    
C15   O3    A    
