data_mof_unit_49207.cif
_audit_creation_date              2012-12-11T16:08:38-0500
_audit_creation_method            fapswitch 2.2
_symmetry_space_group_name_H-M    P1
_symmetry_Int_Tables_number       1
_space_group_crystal_system       triclinic
_cell_length_a                    12.990864
_cell_length_b                    13.289052
_cell_length_c                    27.730209
_cell_angle_alpha                 94.797528
_cell_angle_beta                  90.037073
_cell_angle_gamma                 119.397645
_cell_volume                      4151.39630745

loop_
_atom_site_label
_atom_site_type_symbol
_atom_type_description
_atom_site_fract_x
_atom_site_fract_y
_atom_site_fract_z
_atom_type_partial_charge
C1    C     C_R   0.628340 0.894980 0.427690 0.546546
C2    C     C_R   0.584452 0.345419 0.229128 -0.095252
C3    C     C_R   0.577191 0.331714 0.278632 -0.104975
C4    C     C_R   0.661208 0.314760 0.303048 0.044036
C5    C     C_R   0.675286 0.341443 0.203446 0.018181
C6    C     C_1   0.688171 0.364970 0.153448 -0.058995
C7    C     C_1   0.647123 0.294323 0.353536 -0.065254
C8    C     C_1   0.700747 0.393307 0.112772 -0.011414
C9    C     C_R   0.206268 0.762083 0.345782 -0.129525
C10   C     C_R   0.202540 0.759075 0.295691 0.025656
C11   C     C_R   0.187167 0.749764 0.195106 0.002969
C12   C     C_R   0.600777 0.221822 0.440516 0.544438
C13   C     C_R   0.187574 0.658866 0.217142 -0.117039
C14   C     C_R   0.194466 0.663305 0.267294 -0.128275
C15   C     C_R   0.164141 0.738245 0.145736 -0.175558
C16   C     C_R   0.138100 0.816181 0.124806 0.034495
C17   C     C_R   0.237631 0.958827 0.352829 -0.137885
C18   C     C_R   0.230150 0.955385 0.302371 -0.032344
C19   C     C_R   0.211823 0.854959 0.273749 0.055470
C20   C     C_R   0.249352 0.053298 0.279995 -0.083218
C21   C     C_R   0.240916 0.049451 0.229479 0.212707
C22   C     C_R   0.203635 0.942356 0.200798 0.002032
C23   C     C_R   0.272524 0.877798 0.424700 0.545373
C24   C     C_R   0.202058 0.849688 0.223153 0.000819
C25   C     C_R   0.161404 0.921153 0.151597 0.210544
C26   C     C_R   0.228299 0.863071 0.374639 0.000199
C27   C     C_R   0.757815 0.931144 0.359171 -0.135964
C28   C     C_R   0.766447 0.921865 0.308973 0.015220
C29   C     C_R   0.764419 0.909858 0.208026 -0.007382
C30   C     C_R   0.858129 0.002829 0.235444 -0.113347
C31   C     C_R   0.863698 0.008522 0.286121 0.013664
C32   C     C_R   0.766573 0.903958 0.158068 -0.126059
C33   C     C_R   0.686481 0.802785 0.129830 -0.004967
C34   C     C_R   0.627173 0.898364 0.564769 0.546227
C35   C     C_R   0.565707 0.757199 0.353429 -0.134055
C36   C     C_R   0.574860 0.741425 0.303575 -0.003856
C37   C     C_R   0.671706 0.826993 0.280943 0.044383
C38   C     C_R   0.485289 0.644446 0.276031 -0.104117
C39   C     C_R   0.488871 0.630265 0.225245 0.020823
C40   C     C_R   0.582290 0.720586 0.202066 0.017118
C41   C     C_R   0.672523 0.818967 0.230369 0.044579
C42   C     C_R   0.591834 0.713558 0.151395 -0.138570
C43   C     C_R   0.653676 0.856009 0.380591 -0.004488
C44   C     C_R   0.710296 0.369826 0.647654 -0.143181
C45   C     C_R   0.602847 0.226447 0.578094 0.531203
C46   C     C_R   0.731176 0.394771 0.697663 0.027998
C47   C     C_R   0.760931 0.449104 0.798113 0.023000
C48   C     C_R   0.829719 0.532953 0.766587 -0.104950
C49   C     C_R   0.813120 0.506464 0.716870 -0.132126
C50   C     C_R   0.768979 0.478502 0.848051 0.225112
C51   C     C_R   0.701006 0.393145 0.878744 0.046681
C52   C     C_R   0.568854 0.169988 0.659261 -0.076898
C53   C     C_R   0.590490 0.192328 0.709226 0.021503
C54   C     C_R   0.669066 0.306442 0.728837 0.005586
C55   C     C_R   0.535813 0.102352 0.739340 0.233699
C56   C     C_R   0.271360 0.879032 0.563292 0.542776
C57   C     C_R   0.558175 0.127222 0.790079 0.239897
C58   C     C_R   0.620236 0.244518 0.810575 0.019826
C59   C     C_R   0.683350 0.333178 0.779314 -0.044938
C60   C     C_R   0.624383 0.276713 0.861105 -0.030447
C61   C     C_R   0.626924 0.258537 0.629132 0.003631
C62   C     C_1   0.219965 0.860184 0.609683 -0.011312
C63   C     C_R   0.182104 0.745404 0.723576 0.069504
C64   C     C_R   0.172085 0.740200 0.774222 0.258189
C65   C     C_R   0.131937 0.901876 0.779093 -0.162647
C66   C     C_R   0.141475 0.906606 0.729194 -0.142966
C67   C     C_1   0.630952 0.268156 0.394542 -0.022785
C68   C     C_R   0.166578 0.829461 0.701266 0.007496
C69   C     C_R   0.147746 0.820230 0.801988 0.013097
C70   C     C_1   0.127886 0.812994 0.853079 -0.056390
C71   C     C_1   0.189792 0.845785 0.650786 -0.039663
C72   C     C_1   0.102645 0.798060 0.894675 0.011854
C73   C     C_1   0.645657 0.860362 0.609203 -0.006780
C74   C     C_R   0.766716 0.808626 0.714613 -0.103939
C75   C     C_R   0.778648 0.794463 0.763352 -0.107951
C76   C     C_R   0.586799 0.777692 0.777525 -0.103929
C77   C     C_R   0.574864 0.791855 0.728842 -0.098455
C78   C     C_R   0.752910 0.310198 0.277228 0.041228
C79   C     C_R   0.665185 0.808395 0.697383 0.041213
C80   C     C_R   0.689307 0.780347 0.794997 0.038453
C81   C     C_1   0.704692 0.771643 0.845540 -0.064998
C82   C     C_1   0.656398 0.833920 0.648652 -0.047412
C83   C     C_1   0.721362 0.764819 0.887595 -0.001794
C84   C     C_R   0.066636 0.773567 0.078808 0.571962
C85   C     C_R   0.716516 0.441047 0.067151 0.538642
C86   C     C_R   0.720721 0.782262 0.081294 0.551207
C87   C     C_R   0.057143 0.766652 0.941416 0.570076
C88   C     C_R   0.710755 0.434009 0.929534 0.572949
C89   C     C_R   0.759071 0.324077 0.227425 -0.086941
C90   C     C_R   0.747098 0.755720 0.936781 0.588113
Cr1   Cr    Cr6+3 0.416430 0.829200 0.492370 1.018404
Cr2   Cr    Cr6+3 0.674630 0.087020 0.504170 1.023763
Cr3   Cr    Cr6+3 0.408920 0.083740 0.503490 1.022920
Cr4   Cr    Cr6+3 0.914010 0.832750 0.013970 1.063397
Cr5   Cr    Cr6+3 0.922310 0.578600 0.003000 1.041287
Cr6   Cr    Cr6+3 0.656280 0.574630 0.003870 1.031937
H1    H     H_    0.273951 0.134206 0.301727 0.123053
H2    H     H_    0.258177 0.038393 0.374810 0.127861
H3    H     H_    0.839055 0.974171 0.141529 0.139276
H4    H     H_    0.826730 0.003630 0.381535 0.128020
H5    H     H_    0.927962 0.069106 0.216479 0.111168
H6    H     H_    0.530196 0.637062 0.128546 0.122604
H7    H     H_    0.413057 0.580352 0.294862 0.105877
H8    H     H_    0.829804 0.322004 0.207405 0.106963
H9    H     H_    0.486494 0.696951 0.370399 0.120986
H10   H     H_    0.757105 0.436307 0.623358 0.097678
H11   H     H_    0.896505 0.620085 0.779624 0.129127
H12   H     H_    0.864017 0.573735 0.693444 0.107790
H13   H     H_    0.507481 0.083098 0.643127 0.174015
H14   H     H_    0.519821 0.360080 0.210966 0.136377
H15   H     H_    0.111368 0.961919 0.799938 0.127293
H16   H     H_    0.131016 0.972008 0.712401 0.129488
H17   H     H_    0.837450 0.822131 0.690725 0.107815
H18   H     H_    0.858276 0.796572 0.776543 0.100922
H19   H     H_    0.517165 0.766666 0.801644 0.129684
H20   H     H_    0.496335 0.792293 0.715959 0.136071
H21   H     H_    0.505624 0.333930 0.297868 0.114667
H22   H     H_    0.151076 0.659665 0.124963 0.140198
H23   H     H_    0.200762 0.688361 0.362164 0.125271
H24   H     H_    0.177513 0.582312 0.195689 0.104139
H25   H     H_    0.193238 0.591995 0.283986 0.093190
O1    O     O_R   0.296680 0.802170 0.437540 -0.522786
O2    O     O_R   0.662610 0.183990 0.557860 -0.496538
O3    O     O_R   0.500730 0.201280 0.562180 -0.509327
O4    O     O_R   0.312500 0.978850 0.548170 -0.494821
O5    O     O_3   0.499990 0.999990 0.500010 -0.245797
O6    O     O_R   0.820790 0.857990 0.068830 -0.505539
O7    O     O_R   0.016700 0.827330 0.062850 -0.437169
O8    O     O_R   0.041970 0.673520 0.060040 -0.541865
O9    O     O_R   0.817980 0.483660 0.048840 -0.501285
O10   O     O_R   0.637200 0.461990 0.052510 -0.513415
O11   O     O_R   0.664790 0.681920 0.057970 -0.500861
O12   O     O_R   0.525380 0.838530 0.443500 -0.502741
O13   O     O_R   0.815840 0.852920 0.961840 -0.510464
O14   O     O_R   0.012100 0.822630 0.963670 -0.512523
O15   O     O_R   0.037010 0.668460 0.953040 -0.480381
O16   O     O_R   0.813390 0.478970 0.949660 -0.461278
O17   O     O_R   0.632250 0.456930 0.945520 -0.525797
O18   O     O_R   0.660200 0.677230 0.958780 -0.487833
O19   O     O_3   0.830870 0.661990 0.006950 -0.268492
O20   O     O_R   0.702130 0.995190 0.446810 -0.522226
O21   O     O_R   0.661770 0.181390 0.458760 -0.496375
O22   O     O_R   0.499820 0.198480 0.455280 -0.512555
O23   O     O_R   0.311660 0.976250 0.449080 -0.502753
O24   O     O_R   0.297580 0.804960 0.544440 -0.509813
O25   O     O_R   0.526220 0.841130 0.542590 -0.496716
O26   O     O_R   0.703030 0.997990 0.553710 -0.505561
C91   C     C_3   0.844693 0.290078 0.301229 -0.279288
C92   C     C_3   0.963865 0.401464 0.307091 -0.452865
H26   H     H_    0.997793 0.428163 0.270942 0.145392
H27   H     H_    0.955086 0.472094 0.327645 0.167640
H28   H     H_    0.028563 0.386955 0.327229 0.133059
H29   H     H_    0.818979 0.257747 0.337335 0.155452
H30   H     H_    0.853076 0.222040 0.278458 0.151416
O27   O     O_3   0.275093 0.152704 0.209901 -0.756678
H31   H     H_    0.305269 0.148068 0.177463 0.354481
C93   C     C_3   0.970863 0.105365 0.316021 -0.289230
C94   C     C_3   0.071957 0.191733 0.287453 -0.456661
H32   H     H_    0.104024 0.145580 0.262198 0.201087
H33   H     H_    0.043077 0.241764 0.266520 0.143172
H34   H     H_    0.146518 0.253907 0.312854 0.134881
H35   H     H_    0.941843 0.156148 0.340490 0.139680
H36   H     H_    0.007944 0.064683 0.338809 0.148226
C95   C     C_3   0.395078 0.521109 0.195432 -0.280985
C96   C     C_3   0.302460 0.425936 0.223897 -0.440509
H37   H     H_    0.345676 0.396320 0.249427 0.172064
H38   H     H_    0.248005 0.457097 0.243918 0.127161
H39   H     H_    0.242302 0.350355 0.198291 0.176883
H40   H     H_    0.347813 0.546460 0.169887 0.139995
H41   H     H_    0.440376 0.481425 0.173846 0.148419
O28   O     O_3   0.839400 0.591293 0.868380 -0.700626
H42   H     H_    0.832538 0.644570 0.847447 0.298584
C97   C     C_3   0.541867 0.193553 0.896119 -0.236968
C98   C     C_3   0.604134 0.144342 0.925155 -0.390708
H43   H     H_    0.642239 0.101882 0.900782 0.209820
H44   H     H_    0.676470 0.214485 0.949216 0.135225
H45   H     H_    0.539687 0.079200 0.948004 0.141472
H46   H     H_    0.508763 0.238514 0.921811 0.136892
H47   H     H_    0.459316 0.122862 0.877557 0.205993
O29   O     O_3   0.528286 0.038545 0.819283 -0.741768
H48   H     H_    0.530634 0.973064 0.800436 0.334662
O30   O     O_3   0.461720 0.990983 0.718378 -0.743222
H49   H     H_    0.406288 0.945369 0.742639 0.337806
C99   C     C_3   0.211810 0.662587 0.693751 -0.242297
C100  C     C_3   0.100745 0.561188 0.668268 -0.424521
H50   H     H_    0.037896 0.510542 0.695442 0.183984
H51   H     H_    0.056863 0.592812 0.644079 0.144565
H52   H     H_    0.124943 0.503109 0.646063 0.143258
H53   H     H_    0.277271 0.708854 0.666574 0.146326
H54   H     H_    0.254612 0.627503 0.716647 0.193979
O31   O     O_3   0.184996 0.655273 0.794748 -0.717606
H55   H     H_    0.182994 0.664501 0.830412 0.341073
O32   O     O_3   0.131200 0.994230 0.130542 -0.691827
H56   H     H_    0.101065 0.028835 0.155896 0.339450

loop_
_geom_bond_atom_site_label_1
_geom_bond_atom_site_label_2
_ccdc_geom_bond_type
C84   O7    A    
C66   C68   A    
O28   H42   S    
C96   H37   S    
Cr1   O5    S    
Cr4   O19   S    
C11   C24   A    
C95   H41   S    
C35   C36   A    
Cr3   O3    S    
C35   C43   A    
C72   C87   S    
Cr6   O18   S    
C90   O18   A    
C57   C58   A    
C97   C98   S    
C45   O2    A    
C46   C49   A    
Cr5   O19   S    
C93   C94   S    
C11   C13   A    
C33   C42   A    
C97   H46   S    
C95   C96   S    
C8    C85   S    
C29   C32   A    
C52   C61   A    
C92   H27   S    
Cr6   O17   S    
C5    C6    S    
C90   O13   A    
C65   C69   A    
C100  H51   S    
C48   H11   S    
C97   H47   S    
C58   C60   A    
C15   C16   A    
C84   O8    A    
C16   C84   S    
C76   H19   S    
C99   C100  S    
C17   C18   A    
C18   C19   A    
C23   C26   S    
C56   O24   A    
Cr3   O5    S    
C65   H15   S    
C17   H2    S    
C3    H21   S    
C94   H34   S    
C98   H43   S    
C11   C15   A    
C1    C43   S    
C20   H1    S    
C28   C37   A    
Cr1   O1    S    
Cr5   O9    S    
C50   O28   S    
C47   C50   A    
C77   H20   S    
Cr2   O21   S    
C75   C80   A    
C93   H36   S    
C18   C20   A    
Cr3   O22   S    
C78   C91   S    
Cr6   O11   S    
C40   C42   A    
C96   H38   S    
C14   H25   S    
C21   C22   A    
Cr2   O26   S    
C94   H33   S    
C60   C97   S    
C95   H40   S    
C91   H30   S    
C4    C7    S    
C1    O12   A    
C42   H6    S    
C81   C83   T    
C44   C46   A    
C9    C26   A    
C50   C51   A    
C23   O1    A    
Cr3   O4    S    
C54   C59   A    
C53   C55   A    
C78   C89   A    
C38   C39   A    
C12   C67   S    
C27   H4    S    
Cr5   O16   S    
C74   C75   A    
O31   H55   S    
C87   O14   A    
C76   C77   A    
C10   C14   A    
Cr2   O2    S    
C39   C40   A    
C80   C81   S    
C100  H52   S    
C6    C8    T    
C58   C59   A    
Cr4   O6    S    
C74   H17   S    
C47   C59   A    
C45   O3    A    
C22   C25   A    
C29   C30   A    
C33   C86   S    
C4    C78   A    
C38   H7    S    
C35   H9    S    
C85   O9    A    
C79   C82   S    
C34   O26   A    
C47   C48   A    
Cr1   O12   S    
C10   C19   A    
C46   C54   A    
Cr4   O14   S    
C21   O27   S    
C77   C79   A    
C75   H18   S    
C56   O4    A    
C91   C92   S    
Cr2   O20   S    
C98   H45   S    
C88   O17   A    
C31   C93   S    
Cr3   O23   S    
Cr6   O10   S    
C40   C41   A    
C65   C66   A    
C96   H39   S    
C44   H10   S    
C74   C79   A    
C55   C57   A    
C89   H8    S    
C94   H32   S    
C9    H23   S    
C56   C62   S    
C23   O23   A    
C92   H28   S    
C2    C5    A    
C91   H29   S    
C17   C26   A    
C3    C4    A    
C73   C82   T    
Cr1   O24   S    
C13   H24   S    
C25   O32   S    
C52   C53   A    
C9    C10   A    
C16   C25   A    
C83   C90   S    
C63   C68   A    
C2    H14   S    
C99   H54   S    
C63   C99   S    
C29   C41   A    
C86   O6    A    
C87   O15   A    
C28   C31   A    
C12   O22   A    
C76   C80   A    
C64   O31   S    
Cr2   O5    S    
C51   C88   S    
Cr6   O19   S    
C57   O29   S    
C32   H3    S    
C53   C54   A    
Cr4   O7    S    
C44   C61   A    
C64   C69   A    
C15   H22   S    
C32   C33   A    
C36   C38   A    
C19   C24   A    
C92   H26   S    
C85   O10   A    
C49   H12   S    
C34   O25   A    
C86   O11   A    
C100  H50   S    
C30   C31   A    
C52   H13   S    
C68   C71   S    
C48   C49   A    
C30   H5    S    
C45   C61   S    
Cr5   O15   S    
Cr4   O13   S    
C55   O30   S    
C12   O21   A    
C62   C71   T    
C2    C3    A    
C22   C24   A    
C37   C41   A    
C69   C70   S    
C98   H44   S    
C88   O16   A    
C1    O20   A    
C34   C73   S    
C7    C67   T    
C63   C64   A    
C27   C43   A    
C20   C21   A    
C36   C37   A    
O32   H56   S    
O27   H31   S    
Cr5   O8    S    
C99   H53   S    
C70   C72   T    
C51   C60   A    
C66   H16   S    
C39   C95   S    
C13   C14   A    
C93   H35   S    
Cr1   O25   S    
C5    C89   A    
O29   H48   S    
O30   H49   S    
C27   C28   A    
