data_mof_unit_32837.cif
_audit_creation_date              2013-03-05T15:46:14-0500
_audit_creation_method            fapswitch 2.2
_symmetry_space_group_name_H-M    P1
_symmetry_Int_Tables_number       1
_space_group_crystal_system       triclinic
_cell_length_a                    10.756613
_cell_length_b                    11.035235
_cell_length_c                    9.822202
_cell_angle_alpha                 111.013233
_cell_angle_beta                  98.253939
_cell_angle_gamma                 91.071058
_cell_volume                      1073.99109312

loop_
_atom_site_label
_atom_site_type_symbol
_atom_site_description
_atom_site_fract_x
_atom_site_fract_y
_atom_site_fract_z
_atom_type_partial_charge
O1    O     O_R   0.511820 0.332340 0.577400 -0.593159
O2    O     O_R   0.474400 0.295500 0.332650 -0.558335
C1    C     C_R   0.490780 0.254154 0.440719 0.894370
O3    O     O_R   0.336400 0.518400 0.622370 -0.542889
O4    O     O_R   0.298980 0.481560 0.377620 -0.574918
C2    C     C_R   0.260267 0.500932 0.501660 0.828933
Cu1   Cu    Cu3+1 0.522160 0.521810 0.644910 0.989090
Cu2   Cu    Cu3+1 0.477840 0.478190 0.355090 0.974283
O5    O     O_R   0.525600 0.704500 0.667350 -0.558735
O6    O     O_R   0.488180 0.667660 0.422600 -0.585769
O7    O     O_R   0.701020 0.518440 0.622380 -0.593129
O8    O     O_R   0.663600 0.481600 0.377630 -0.583863
C3    C     C_R   0.509170 0.745841 0.559269 0.857528
C4    C     C_R   0.740258 0.502587 0.499682 0.792627
C5    C     C_3   0.091164 0.517430 0.660034 0.201008
H1    H     H_    0.127085 0.434127 0.688118 0.159267
C6    C     C_3   0.947476 0.510637 0.653388 -0.453492
H2    H     H_    0.917304 0.422859 0.674790 0.183236
H3    H     H_    0.920387 0.596226 0.743062 0.214567
H4    H     H_    0.126086 0.710487 0.529693 0.213041
H5    H     H_    0.920874 0.714135 0.569340 0.199040
C7    C     C_3   0.072249 0.616526 0.460070 -0.392272
C8    C     C_3   0.054097 0.374048 0.383956 0.145745
C9    C     C_3   0.123045 0.502538 0.504069 -0.125532
H6    H     H_    0.070924 0.371829 0.273645 0.138676
C10   C     C_3   0.878435 0.504196 0.499386 0.033599
C11   C     C_3   0.930083 0.626027 0.471420 0.008215
C12   C     C_3   0.909983 0.375751 0.382151 -0.425309
H7    H     H_    0.872245 0.291109 0.404051 0.201103
H8    H     H_    0.862172 0.365424 0.270012 0.167891
H9    H     H_    0.087796 0.600194 0.345255 0.192294
H10   H     H_    0.480240 0.864745 0.368203 0.190159
H11   H     H_    0.519184 0.135168 0.631686 0.177489
C13   C     C_2   0.485598 0.114895 0.407268 -0.278483
C14   C     C_2   0.502028 0.069516 0.516620 -0.137394
H12   H     H_    0.531295 0.951038 0.707516 0.161062
C15   C     C_2   0.514073 0.885076 0.592657 -0.327853
C16   C     C_2   0.497401 0.930412 0.483267 -0.137011
H13   H     H_    0.468334 0.048961 0.292396 0.166953
H14   H     H_    0.415886 0.417433 0.845395 0.167382
H15   H     H_    0.583361 0.583060 0.154324 0.152637
N1    N     N_2   0.444530 0.445420 0.137360 -0.278742
C17   C     C_2   0.510436 0.510452 0.081267 -0.058568
H16   H     H_    0.625243 0.621728 0.934432 0.193990
N2    N     N_2   0.555520 0.554510 0.862630 -0.282275
C18   C     C_2   0.489454 0.489433 0.918535 0.001772
H17   H     H_    0.375704 0.377165 0.065390 0.210670
N3    N     N_R   0.150724 0.637278 0.779231 0.138306
O9    O     O_R   0.114720 0.751334 0.787641 -0.369642
O10   O     O_R   0.228955 0.628632 0.888877 -0.352376
C19   C     C_3   0.857920 0.649765 0.337056 -0.864703
H18   H     H_    0.762546 0.680367 0.357501 0.234231
H19   H     H_    0.907542 0.730642 0.319097 0.255017
H20   H     H_    0.850291 0.561783 0.234939 0.244530
N4    N     N_R   0.102509 0.256017 0.401982 0.115585
O11   O     O_R   0.167243 0.182368 0.306087 -0.344921
O12   O     O_R   0.073748 0.217885 0.505311 -0.384931

loop_
_geom_bond_atom_site_label_1
_geom_bond_atom_site_label_2
_geom_bond_distance
_ccdc_geom_bond_type
O4    Cu2   1.967451 S    
H14   C18   1.085133 S    
C8    C9    1.569131 S    
C8    N4    1.470813 S    
C15   C16   1.330580 D    
H10   C16   1.088238 S    
C3    C15   1.449742 S    
O8    C4    1.296404 A    
Cu2   O8    1.976671 S    
C19   H20   1.109232 S    
C2    C9    1.479954 S    
N4    O11   1.301163 A    
C12   H8    1.111669 S    
C6    H2    1.114303 S    
H5    C11   1.113780 S    
Cu1   Cu2   2.679845 S    
C5    C9    1.569643 S    
C8    C12   1.548280 S    
C4    C10   1.486519 S    
Cu1   O7    1.967451 S    
H15   C17   1.083876 S    
C12   H7    1.112865 S    
C10   C11   1.572376 S    
C5    N3    1.474039 S    
C8    H6    1.115700 S    
O3    Cu1   1.976671 S    
C6    C10   1.563017 S    
Cu1   N2    2.013338 S    
N3    O10   1.301373 A    
H12   C15   1.087633 S    
C6    H3    1.113621 S    
C11   C19   1.540878 S    
O2    C1    1.289417 A    
N1    H17   1.030613 S    
N4    O12   1.301700 A    
O4    C2    1.290616 A    
C17   C18   1.512669 S    
C7    C9    1.554141 S    
N1    C17   1.303008 D    
C19   H19   1.111172 S    
Cu2   N1    2.013263 S    
C5    H1    1.111296 S    
Cu1   O5    1.946923 S    
C7    C11   1.551938 S    
C14   C16   1.448432 S    
C19   H18   1.109194 S    
H16   N2    1.030646 S    
O3    C2    1.290333 A    
C13   C14   1.330488 D    
C7    H9    1.114336 S    
O7    C4    1.287933 A    
C5    C6    1.536866 S    
O5    C3    1.289508 A    
N3    O9    1.301467 A    
O1    Cu1   1.949239 S    
C1    C13   1.449860 S    
H11   C14   1.088205 S    
N2    C18   1.303082 D    
C10   C12   1.552371 S    
Cu2   O6    1.949239 S    
O2    Cu2   1.946923 S    
C13   H13   1.087641 S    
H4    C7    1.110609 S    
O1    C1    1.293338 A    
O6    C3    1.293226 A    
