data_mof_unit_35015.cif
_audit_creation_date              2012-12-10T18:04:52-0500
_audit_creation_method            fapswitch 2.2
_symmetry_space_group_name_H-M    P1
_symmetry_Int_Tables_number       1
_space_group_crystal_system       triclinic
_cell_length_a                    10.825538
_cell_length_b                    9.506292
_cell_length_c                    17.746254
_cell_angle_alpha                 89.576021
_cell_angle_beta                  90.303164
_cell_angle_gamma                 89.978899
_cell_volume                      1826.2041533

loop_
_atom_site_label
_atom_site_type_symbol
_atom_type_description
_atom_site_fract_x
_atom_site_fract_y
_atom_site_fract_z
_atom_type_partial_charge
C1    C     C_R   0.262022 0.500027 0.499474 0.768339
C2    C     C_R   0.737963 0.499995 0.499478 0.786661
C3    C     C_1   0.499739 0.501753 0.968790 -0.031002
C4    C     C_1   0.500796 0.500995 0.036321 -0.033443
C5    C     C_R   0.063872 0.372433 0.494783 -0.187220
C6    C     C_R   0.936080 0.627779 0.500873 -0.187704
C7    C     C_R   0.936109 0.372413 0.494827 -0.197820
C8    C     C_R   0.063826 0.627797 0.500885 -0.191741
C9    C     C_R   0.501209 0.500546 0.356095 0.793660
C10   C     C_R   0.497022 0.499419 0.645092 0.810814
C11   C     C_R   0.871758 0.500046 0.498342 -0.016671
C12   C     C_R   0.128198 0.500084 0.498319 -0.016808
C13   C     C_R   0.498824 0.627453 0.848426 -0.229358
C14   C     C_R   0.395153 0.457165 0.155354 -0.175214
C15   C     C_R   0.606203 0.542354 0.155878 -0.165264
C16   C     C_R   0.491717 0.374178 0.850542 -0.174883
C17   C     C_R   0.494839 0.628346 0.769590 0.217568
C18   C     C_R   0.392237 0.458437 0.234653 0.230331
C19   C     C_R   0.606926 0.544047 0.234436 0.215835
C20   C     C_R   0.488396 0.370515 0.771938 0.209955
C21   C     C_R   0.492069 0.498862 0.729348 -0.161707
C22   C     C_R   0.499734 0.502186 0.273950 -0.161694
C23   C     C_R   0.411488 0.075019 0.461412 -0.021416
C24   C     C_R   0.588613 0.924983 0.538456 -0.016192
C25   C     C_R   0.589145 0.073811 0.537929 -0.038572
C26   C     C_R   0.411639 0.926126 0.461286 -0.027597
C27   C     C_R   0.497485 0.501286 0.888352 0.043456
C28   C     C_R   0.500934 0.499760 0.116779 0.020014
Cu1   Cu    Cu3+1 0.500000 0.640660 0.500000 0.941751
Cu2   Cu    Cu3+1 0.500000 0.359340 0.500000 0.937111
H1    H     H_    0.501818 0.726196 0.878602 0.144506
H2    H     H_    0.315519 0.424876 0.122727 0.148701
H3    H     H_    0.687904 0.575035 0.125312 0.153868
H4    H     H_    0.489092 0.276357 0.882362 0.152740
H5    H     H_    0.340796 0.131575 0.430318 0.128644
H6    H     H_    0.659360 0.868495 0.569524 0.122440
H7    H     H_    0.661123 0.129347 0.567807 0.118423
H8    H     H_    0.341082 0.870489 0.430090 0.120960
H9    H     H_    0.111984 0.272655 0.492245 0.146097
H10   H     H_    0.887993 0.727582 0.503319 0.145219
H11   H     H_    0.888020 0.272628 0.492349 0.146701
H12   H     H_    0.111886 0.727605 0.503355 0.145494
N1    N     N_R   0.500000 0.852070 0.500000 -0.153192
N2    N     N_R   0.500000 0.147930 0.500000 -0.154978
O1    O     O_R   0.319640 0.618740 0.499990 -0.593913
O2    O     O_R   0.680360 0.381260 0.500010 -0.591480
O3    O     O_R   0.680360 0.618740 0.500010 -0.594217
O4    O     O_R   0.319640 0.381260 0.499990 -0.593124
O5    O     O_R   0.500000 0.618830 0.391250 -0.587536
O6    O     O_R   0.500000 0.381170 0.608750 -0.582111
O7    O     O_R   0.500000 0.618830 0.608750 -0.534419
O8    O     O_R   0.500000 0.381170 0.391250 -0.559224
N3    N     N_2   0.495312 0.760825 0.731767 -0.410372
H13   H     H_    0.553005 0.833422 0.756670 0.238993
C29   C     C_3   0.373495 0.818074 0.717402 -0.631284
H14   H     H_    0.381586 0.915253 0.682672 0.223089
H15   H     H_    0.327654 0.844523 0.771376 0.209384
H16   H     H_    0.315610 0.741516 0.686014 0.231595
N4    N     N_2   0.284132 0.416514 0.275820 -0.417530
H17   H     H_    0.271772 0.464500 0.327138 0.241822
C30   C     C_3   0.169534 0.388189 0.236321 -0.709819
H18   H     H_    0.097279 0.357861 0.277585 0.227777
H19   H     H_    0.181443 0.298829 0.197083 0.234516
H20   H     H_    0.137877 0.483695 0.205343 0.227350
N5    N     N_2   0.716476 0.587575 0.272580 -0.431527
H21   H     H_    0.702606 0.642487 0.321642 0.265742
C31   C     C_3   0.809156 0.478890 0.280813 -0.702004
H22   H     H_    0.893151 0.523545 0.307723 0.233458
H23   H     H_    0.835196 0.436912 0.224825 0.236002
H24   H     H_    0.773865 0.392008 0.317017 0.228188
N6    N     N_2   0.480482 0.235432 0.738427 -0.424568
H25   H     H_    0.417856 0.223274 0.695095 0.271944
C32   C     C_3   0.597626 0.164482 0.729754 -0.679252
H26   H     H_    0.582864 0.061360 0.702445 0.213525
H27   H     H_    0.641238 0.145917 0.785750 0.224694
H28   H     H_    0.660800 0.228622 0.694330 0.227489

loop_
_geom_bond_atom_site_label_1
_geom_bond_atom_site_label_2
_ccdc_geom_bond_type
C29   H14   S    
C32   H26   S    
C14   C18   A    
Cu1   O5    S    
N3    H13   S    
C2    O2    A    
C15   C19   A    
C1    C12   S    
C24   H6    S    
Cu1   O3    S    
Cu2   O4    S    
C8    H12   S    
C9    C22   S    
C10   O7    A    
C23   C26   A    
C30   H19   S    
C16   H4    S    
N5    C31   S    
C20   N6    S    
C8    C12   A    
C25   H7    S    
C16   C27   A    
Cu2   O6    S    
N4    H17   S    
Cu1   N1    S    
C32   H27   S    
Cu2   N2    S    
C9    O8    A    
C2    C11   S    
C25   N2    A    
C4    C28   S    
C13   H1    S    
C26   N1    A    
N3    C29   S    
C10   C21   S    
N4    C30   S    
C31   H22   S    
C19   C22   A    
C9    O5    A    
C24   C25   A    
C5    C12   A    
C6    C11   A    
C5    C7    A    
C26   H8    S    
C6    C8    A    
C17   C21   A    
C23   N2    A    
Cu1   O1    S    
C31   H23   S    
C30   H20   S    
C7    C11   A    
Cu1   Cu2   S    
C16   C20   A    
C23   H5    S    
C5    H9    S    
C32   H28   S    
C6    H10   S    
C3    C4    T    
C10   O6    A    
C17   N3    S    
N6    C32   S    
Cu1   O7    S    
Cu2   O8    S    
C18   C22   A    
Cu2   O2    S    
C14   H2    S    
C1    O4    A    
C2    O3    A    
C13   C17   A    
C31   H24   S    
C29   H15   S    
N6    H25   S    
C1    O1    A    
C15   C28   A    
C3    C27   S    
C19   N5    S    
C7    H11   S    
C30   H18   S    
C18   N4    S    
C20   C21   A    
N5    H21   S    
C29   H16   S    
C24   N1    A    
C13   C27   A    
C14   C28   A    
C15   H3    S    
