data_mof_unit_60229.cif
_audit_creation_date              2012-12-10T17:15:47-0500
_audit_creation_method            fapswitch 2.2
_symmetry_space_group_name_H-M    P1
_symmetry_Int_Tables_number       1
_space_group_crystal_system       triclinic
_cell_length_a                    18.309243
_cell_length_b                    18.306877
_cell_length_c                    43.034349
_cell_angle_alpha                 90.0
_cell_angle_beta                  89.999867
_cell_angle_gamma                 89.998533
_cell_volume                      14424.4708281

loop_
_atom_site_label
_atom_site_type_symbol
_atom_type_description
_atom_site_fract_x
_atom_site_fract_y
_atom_site_fract_z
_atom_type_partial_charge
C1    C     C_R   0.999984 0.500054 0.915772 0.810807
C2    C     C_R   0.500225 0.000000 0.915771 0.811281
C3    C     C_R   0.499986 0.999991 0.415778 0.811259
C4    C     C_R   0.000225 0.500000 0.415771 0.811441
C5    C     C_R   0.030904 0.559285 0.167739 -0.238708
C6    C     C_R   0.439469 0.026049 0.167897 -0.246991
C7    C     C_R   0.973201 0.440541 0.167932 -0.260360
C8    C     C_R   0.560037 0.972348 0.167879 -0.251304
C9    C     C_R   0.473134 0.059432 0.667930 -0.260598
C10   C     C_R   0.940637 0.530104 0.667771 -0.242161
C11   C     C_R   0.530944 0.940737 0.667738 -0.238819
C12   C     C_R   0.059247 0.472140 0.667892 -0.257372
C13   C     C_R   0.002412 0.499885 0.184304 -0.012628
C14   C     C_R   0.499721 0.999105 0.184352 -0.005976
C15   C     C_R   0.502397 0.000113 0.684303 -0.012205
C16   C     C_R   0.999916 0.501255 0.684301 -0.012106
C17   C     C_R   0.000838 0.500023 0.118677 -0.113635
C18   C     C_R   0.499914 0.999651 0.118711 -0.105024
C19   C     C_R   0.500832 0.999976 0.618676 -0.113471
C20   C     C_R   0.999964 0.500527 0.618673 -0.113008
C21   C     C_R   0.503267 0.000186 0.781758 0.305707
C22   C     C_R   0.999829 0.501290 0.781756 0.305664
C23   C     C_R   0.003280 0.499813 0.281759 0.305525
C24   C     C_R   0.499711 0.999210 0.281793 0.306052
C25   C     C_R   0.002977 0.499834 0.218647 0.361078
C26   C     C_R   0.499688 0.999024 0.218689 0.361935
C27   C     C_R   0.502961 0.000164 0.718646 0.361237
C28   C     C_R   0.999882 0.501417 0.718644 0.361225
C29   C     C_R   0.494000 0.065723 0.832603 -0.122467
C30   C     C_R   0.934258 0.509595 0.832646 -0.104952
C31   C     C_R   0.511239 0.934516 0.832638 -0.114062
C32   C     C_R   0.065431 0.492216 0.832589 -0.132578
C33   C     C_R   0.011200 0.565489 0.332638 -0.114105
C34   C     C_R   0.434138 0.007671 0.332659 -0.104676
C35   C     C_R   0.994054 0.434271 0.332604 -0.122189
C36   C     C_R   0.565461 0.991423 0.332626 -0.133413
C37   C     C_R   0.493357 0.065688 0.865011 -0.140241
C38   C     C_R   0.934280 0.509014 0.865061 -0.115509
C39   C     C_R   0.510136 0.934438 0.865052 -0.118839
C40   C     C_R   0.065496 0.492097 0.864999 -0.143943
C41   C     C_R   0.010095 0.565568 0.365052 -0.119050
C42   C     C_R   0.434197 0.007685 0.365068 -0.116701
C43   C     C_R   0.993406 0.434307 0.365011 -0.139921
C44   C     C_R   0.565555 0.991856 0.365032 -0.142724
C45   C     C_R   0.501156 0.000022 0.881533 -0.018444
C46   C     C_R   0.999916 0.500353 0.881533 -0.017685
C47   C     C_R   0.001158 0.499978 0.381533 -0.018591
C48   C     C_R   0.499919 0.999869 0.381547 -0.020365
C49   C     C_R   0.502947 0.000139 0.816070 0.064856
C50   C     C_R   0.999826 0.501065 0.816067 0.064976
C51   C     C_R   0.002957 0.499861 0.316071 0.064808
C52   C     C_R   0.499763 0.999421 0.316096 0.064386
C53   C     C_R   0.000145 0.500008 0.084250 0.898361
C54   C     C_R   0.499988 0.999929 0.084262 0.895837
C55   C     C_R   0.500143 0.999992 0.584250 0.898380
C56   C     C_R   0.999992 0.500111 0.584248 0.897577
C57   C     C_R   0.860600 0.640672 0.999580 0.913280
C58   C     C_R   0.360607 0.859314 0.000378 0.913344
C59   C     C_R   0.140664 0.360602 0.000353 0.888710
C60   C     C_R   0.640621 0.139446 0.999606 0.894600
C61   C     C_R   0.140676 0.639382 0.000375 0.891875
C62   C     C_R   0.640661 0.860596 0.999583 0.894600
C63   C     C_R   0.860574 0.359354 0.999597 0.918371
C64   C     C_R   0.360621 0.140693 0.000362 0.910381
C65   C     C_R   0.360577 0.140650 0.499595 0.918581
C66   C     C_R   0.860620 0.359305 0.500361 0.907839
C67   C     C_R   0.640689 0.860629 0.500385 0.891183
C68   C     C_R   0.140653 0.639412 0.499588 0.892277
C69   C     C_R   0.640666 0.139397 0.500354 0.889105
C70   C     C_R   0.140628 0.360562 0.499602 0.896805
C71   C     C_R   0.360597 0.859331 0.499582 0.913105
C72   C     C_R   0.860619 0.640692 0.500386 0.913590
C73   C     C_R   0.216736 0.675421 0.058179 -0.275435
C74   C     C_R   0.400463 0.292826 0.012636 -0.304001
C75   C     C_R   0.823773 0.283917 0.941713 -0.296466
C76   C     C_R   0.715455 0.823224 0.941603 -0.310684
C77   C     C_R   0.823139 0.715443 0.941592 -0.305909
C78   C     C_R   0.716057 0.176165 0.941725 -0.309525
C79   C     C_R   0.292661 0.400520 0.012699 -0.309801
C80   C     C_R   0.324359 0.783297 0.058202 -0.287344
C81   C     C_R   0.792680 0.099462 0.512660 -0.309994
C82   C     C_R   0.824262 0.716567 0.558240 -0.274817
C83   C     C_R   0.323422 0.784262 0.441635 -0.304615
C84   C     C_R   0.215789 0.323554 0.441680 -0.309383
C85   C     C_R   0.323479 0.215777 0.441668 -0.297859
C86   C     C_R   0.215711 0.676507 0.441646 -0.310932
C87   C     C_R   0.716674 0.824492 0.558208 -0.274205
C88   C     C_R   0.900482 0.207150 0.512591 -0.307324
C89   C     C_R   0.252362 0.693783 0.085725 0.621747
C90   C     C_R   0.419149 0.365571 0.018014 0.619552
C91   C     C_R   0.805086 0.248586 0.914137 0.611055
C92   C     C_R   0.750379 0.804164 0.913982 0.613449
C93   C     C_R   0.804083 0.750398 0.913975 0.612731
C94   C     C_R   0.751367 0.194836 0.914144 0.614471
C95   C     C_R   0.365377 0.419282 0.018054 0.610422
C96   C     C_R   0.306014 0.747607 0.085738 0.619334
C97   C     C_R   0.865404 0.080690 0.517992 0.610343
C98   C     C_R   0.805914 0.752262 0.585776 0.620341
C99   C     C_R   0.304518 0.749145 0.414035 0.615303
C100  C     C_R   0.250930 0.304708 0.414081 0.615737
C101  C     C_R   0.304632 0.250940 0.414074 0.608809
C102  C     C_R   0.250797 0.695398 0.414041 0.612229
C103  C     C_R   0.752275 0.806101 0.585758 0.615814
C104  C     C_R   0.919175 0.134398 0.517949 0.619877
C105  C     C_R   0.288133 0.766521 0.030043 -0.059833
C106  C     C_R   0.272492 0.327265 0.006630 -0.060634
C107  C     C_R   0.733065 0.212200 0.969908 -0.058460
C108  C     C_R   0.787500 0.732808 0.969829 -0.059520
C109  C     C_R   0.732798 0.787533 0.969832 -0.057804
C110  C     C_R   0.787777 0.266908 0.969905 -0.057298
C111  C     C_R   0.327225 0.272570 0.006612 -0.065312
C112  C     C_R   0.233456 0.711769 0.030036 -0.060803
C113  C     C_R   0.827235 0.227417 0.506589 -0.066068
C114  C     C_R   0.733425 0.788179 0.530061 -0.060084
C115  C     C_R   0.232923 0.712337 0.469856 -0.057600
C116  C     C_R   0.287640 0.232948 0.469880 -0.055955
C117  C     C_R   0.232934 0.287665 0.469883 -0.058608
C118  C     C_R   0.287632 0.767053 0.469852 -0.060923
C119  C     C_R   0.788091 0.733410 0.530070 -0.067383
C120  C     C_R   0.772503 0.172724 0.506609 -0.060220
C121  C     C_R   0.198897 0.693231 0.001656 -0.240520
C122  C     C_R   0.306690 0.198863 0.001642 -0.254908
C123  C     C_R   0.806637 0.301196 0.998313 -0.253446
C124  C     C_R   0.698853 0.806707 0.998278 -0.251447
C125  C     C_R   0.806698 0.698867 0.998275 -0.255564
C126  C     C_R   0.698766 0.193384 0.998317 -0.244976
C127  C     C_R   0.198824 0.306683 0.001647 -0.247357
C128  C     C_R   0.306723 0.801091 0.001662 -0.245444
C129  C     C_R   0.698827 0.193313 0.501647 -0.247383
C130  C     C_R   0.806731 0.698904 0.501680 -0.246089
C131  C     C_R   0.306688 0.801145 0.498283 -0.255919
C132  C     C_R   0.198784 0.306636 0.498308 -0.247930
C133  C     C_R   0.306648 0.198815 0.498305 -0.253062
C134  C     C_R   0.198834 0.693313 0.498287 -0.248503
C135  C     C_R   0.698912 0.806774 0.501674 -0.239393
C136  C     C_R   0.806692 0.301132 0.501639 -0.256553
C137  C     C_R   0.220393 0.726148 0.973786 0.550881
C138  C     C_R   0.233207 0.179757 0.998029 0.548704
C139  C     C_R   0.773914 0.279525 0.026202 0.564624
C140  C     C_R   0.720926 0.774368 0.026191 0.556497
C141  C     C_R   0.774362 0.720939 0.026189 0.553191
C142  C     C_R   0.720444 0.226120 0.026201 0.560254
C143  C     C_R   0.179757 0.233186 0.998026 0.545554
C144  C     C_R   0.273830 0.779586 0.973788 0.556526
C145  C     C_R   0.679755 0.266815 0.498042 0.545382
C146  C     C_R   0.773874 0.720450 0.473804 0.557508
C147  C     C_R   0.274195 0.779234 0.526186 0.555711
C148  C     C_R   0.220623 0.274067 0.526206 0.562979
C149  C     C_R   0.274087 0.220655 0.526206 0.561940
C150  C     C_R   0.220752 0.725812 0.526187 0.553714
C151  C     C_R   0.720440 0.773890 0.473802 0.550293
C152  C     C_R   0.733204 0.320243 0.498044 0.548085
C153  C     C_R   0.030762 0.559891 0.135076 0.407580
C154  C     C_R   0.438977 0.026927 0.135247 0.402681
C155  C     C_R   0.971798 0.440062 0.135284 0.398049
C156  C     C_R   0.560710 0.971998 0.135224 0.406924
C157  C     C_R   0.471735 0.059911 0.635282 0.398050
C158  C     C_R   0.940125 0.530382 0.635110 0.404824
C159  C     C_R   0.530805 0.940131 0.635076 0.407783
C160  C     C_R   0.059818 0.471158 0.635242 0.400815
H1    H     H_    0.177184 0.631658 0.059178 0.196718
H2    H     H_    0.443810 0.252855 0.013853 0.195608
H3    H     H_    0.867509 0.323482 0.940684 0.189431
H4    H     H_    0.675947 0.867012 0.940570 0.187060
H5    H     H_    0.866885 0.675892 0.940547 0.190589
H6    H     H_    0.676510 0.132410 0.940704 0.188754
H7    H     H_    0.252645 0.443821 0.013972 0.186239
H8    H     H_    0.368020 0.822952 0.059223 0.189240
H9    H     H_    0.752668 0.056161 0.513937 0.186170
H10   H     H_    0.867901 0.676885 0.559271 0.202088
H11   H     H_    0.367165 0.823816 0.440598 0.191526
H12   H     H_    0.176268 0.367333 0.440653 0.188670
H13   H     H_    0.367218 0.176216 0.440631 0.188592
H14   H     H_    0.176177 0.632741 0.440618 0.187145
H15   H     H_    0.677132 0.868266 0.559206 0.196980
H16   H     H_    0.943831 0.247115 0.513808 0.195500
H17   H     H_    0.054107 0.605163 0.180190 0.178378
H18   H     H_    0.392781 0.047296 0.180431 0.170603
H19   H     H_    0.950570 0.394604 0.180532 0.173003
H20   H     H_    0.606654 0.950903 0.180400 0.172936
H21   H     H_    0.450460 0.105351 0.680530 0.172500
H22   H     H_    0.894779 0.553255 0.680252 0.177635
H23   H     H_    0.554187 0.894878 0.680189 0.177796
H24   H     H_    0.105099 0.449254 0.680464 0.172570
H25   H     H_    0.487716 0.117245 0.820539 0.166007
H26   H     H_    0.882766 0.516371 0.820612 0.170454
H27   H     H_    0.518141 0.883045 0.820596 0.170770
H28   H     H_    0.116904 0.485695 0.820516 0.166252
H29   H     H_    0.018067 0.616965 0.320596 0.170830
H30   H     H_    0.382571 0.013813 0.320621 0.170575
H31   H     H_    0.987807 0.382744 0.320540 0.166173
H32   H     H_    0.616976 0.985128 0.320562 0.167482
H33   H     H_    0.486406 0.117097 0.877108 0.175601
H34   H     H_    0.882894 0.515661 0.877204 0.180732
H35   H     H_    0.516575 0.883010 0.877188 0.183981
H36   H     H_    0.116919 0.485244 0.877090 0.178873
H37   H     H_    0.016495 0.617000 0.377188 0.183931
H38   H     H_    0.382763 0.014087 0.377198 0.180813
H39   H     H_    0.986491 0.382893 0.377109 0.175761
H40   H     H_    0.617043 0.985617 0.377133 0.183800
N1    N     N_R   0.985506 0.438522 0.234762 -0.154897
N2    N     N_R   0.561320 0.982672 0.234791 -0.153690
N3    N     N_R   0.020696 0.561125 0.234734 -0.148201
N4    N     N_R   0.438061 0.015441 0.234784 -0.149998
N5    N     N_R   0.520738 0.938889 0.734733 -0.148466
N6    N     N_R   0.061120 0.483664 0.734750 -0.154087
N7    N     N_R   0.485433 0.061461 0.734761 -0.155222
N8    N     N_R   0.938613 0.519144 0.734740 -0.149649
N9    N     N_R   0.520793 0.938870 0.765656 -0.149629
N10   N     N_R   0.061122 0.483693 0.765666 -0.158640
N11   N     N_R   0.485669 0.061498 0.765676 -0.158769
N12   N     N_R   0.938559 0.518992 0.765662 -0.149821
N13   N     N_R   0.985740 0.438485 0.265677 -0.158504
N14   N     N_R   0.561353 0.982843 0.265707 -0.156611
N15   N     N_R   0.020749 0.561144 0.265656 -0.149397
N16   N     N_R   0.438046 0.015448 0.265701 -0.151446
O1    O     O_3   1.000000 0.500000 0.999980 -0.539431
O2    O     O_3   0.500000 0.000000 0.999980 -0.539984
O3    O     O_3   0.500000 0.000000 0.499980 -0.539332
O4    O     O_3   1.000000 0.500000 0.499980 -0.539125
O5    O     O_R   0.060770 0.500000 0.930660 -0.624800
O6    O     O_R   0.500000 0.060770 0.930660 -0.643625
O7    O     O_R   0.939230 0.500000 0.930660 -0.650819
O8    O     O_R   0.500000 0.939230 0.930660 -0.631377
O9    O     O_R   0.560770 0.000000 0.430660 -0.625807
O10   O     O_R   1.000000 0.560770 0.430660 -0.631304
O11   O     O_R   0.439230 0.000000 0.430660 -0.650353
O12   O     O_R   1.000000 0.439230 0.430660 -0.643521
O13   O     O_R   1.000000 0.560700 0.069300 -0.586141
O14   O     O_R   0.439300 0.000000 0.069300 -0.600901
O15   O     O_R   1.000000 0.439300 0.069300 -0.588499
O16   O     O_R   0.560700 0.000000 0.069300 -0.569145
O17   O     O_R   0.500000 0.060700 0.569300 -0.588637
O18   O     O_R   0.939300 0.500000 0.569300 -0.608251
O19   O     O_R   0.500000 0.939300 0.569300 -0.586117
O20   O     O_R   0.060700 0.500000 0.569300 -0.566995
O21   O     O_R   0.853840 0.585430 0.981810 -0.644157
O22   O     O_R   0.414570 0.853840 0.981810 -0.593742
O23   O     O_R   0.146160 0.414570 0.981810 -0.653731
O24   O     O_R   0.585430 0.146160 0.981810 -0.652239
O25   O     O_R   0.146160 0.585430 0.981810 -0.599534
O26   O     O_R   0.585430 0.853840 0.981810 -0.651694
O27   O     O_R   0.853840 0.414570 0.981810 -0.647068
O28   O     O_R   0.414570 0.146160 0.981810 -0.649760
O29   O     O_R   0.353840 0.085430 0.481810 -0.647904
O30   O     O_R   0.914570 0.353840 0.481810 -0.647531
O31   O     O_R   0.646160 0.914570 0.481810 -0.600282
O32   O     O_R   0.085430 0.646160 0.481810 -0.650865
O33   O     O_R   0.646160 0.085430 0.481810 -0.652652
O34   O     O_R   0.085430 0.353840 0.481810 -0.653107
O35   O     O_R   0.353840 0.914570 0.481810 -0.643282
O36   O     O_R   0.914570 0.646160 0.481810 -0.593950
O37   O     O_R   0.085460 0.353830 0.018160 -0.598593
O38   O     O_R   0.646170 0.085460 0.018160 -0.597513
O39   O     O_R   0.914540 0.646170 0.018160 -0.589474
O40   O     O_R   0.353830 0.914540 0.018160 -0.632635
O41   O     O_R   0.914540 0.353830 0.018160 -0.572629
O42   O     O_R   0.353830 0.085460 0.018160 -0.581475
O43   O     O_R   0.085460 0.646170 0.018160 -0.644028
O44   O     O_R   0.646170 0.914540 0.018160 -0.589686
O45   O     O_R   0.585460 0.853830 0.518160 -0.644069
O46   O     O_R   0.146170 0.585460 0.518160 -0.597096
O47   O     O_R   0.414540 0.146170 0.518160 -0.572423
O48   O     O_R   0.853830 0.414540 0.518160 -0.591143
O49   O     O_R   0.414540 0.853830 0.518160 -0.589728
O50   O     O_R   0.853830 0.585460 0.518160 -0.626874
O51   O     O_R   0.585460 0.146170 0.518160 -0.599034
O52   O     O_R   0.146170 0.414540 0.518160 -0.590180
Zn1   Zn    Zn3+2 1.000000 0.586740 0.025950 1.060567
Zn2   Zn    Zn3+2 0.413260 0.000000 0.025950 1.070602
Zn3   Zn    Zn3+2 1.000000 0.413260 0.025950 1.087740
Zn4   Zn    Zn3+2 0.586740 0.000000 0.025950 1.081199
Zn5   Zn    Zn3+2 0.500000 0.086740 0.525950 1.087518
Zn6   Zn    Zn3+2 0.913260 0.500000 0.525950 1.064687
Zn7   Zn    Zn3+2 0.500000 0.913260 0.525950 1.060405
Zn8   Zn    Zn3+2 0.086740 0.500000 0.525950 1.081681
Zn9   Zn    Zn3+2 0.913260 0.500000 0.974020 1.009164
Zn10  Zn    Zn3+2 0.500000 0.913260 0.974020 1.029351
Zn11  Zn    Zn3+2 0.086740 0.500000 0.974020 1.015002
Zn12  Zn    Zn3+2 0.500000 0.086740 0.974020 0.993716
Zn13  Zn    Zn3+2 0.413260 0.000000 0.474020 1.009377
Zn14  Zn    Zn3+2 1.000000 0.413260 0.474020 0.994203
Zn15  Zn    Zn3+2 0.586740 0.000000 0.474020 1.014689
Zn16  Zn    Zn3+2 0.000000 0.586740 0.474020 1.029585
F1    F     F_    0.187740 0.707895 0.946511 -0.595468
F2    F     F_    0.213398 0.109003 0.993532 -0.589208
F3    F     F_    0.792394 0.311968 0.053496 -0.574763
F4    F     F_    0.688830 0.793162 0.053521 -0.577943
F5    F     F_    0.793155 0.688839 0.053518 -0.584593
F6    F     F_    0.687956 0.207704 0.053492 -0.586898
F7    F     F_    0.109023 0.213346 0.993519 -0.595248
F8    F     F_    0.292096 0.812239 0.946514 -0.592930
F9    F     F_    0.609016 0.286663 0.493553 -0.595218
F10   F     F_    0.792166 0.687830 0.446526 -0.593400
F11   F     F_    0.292850 0.811482 0.553500 -0.584161
F12   F     F_    0.188299 0.292647 0.553513 -0.578120
F13   F     F_    0.292710 0.188364 0.553516 -0.575188
F14   F     F_    0.188499 0.707178 0.553502 -0.586347
F15   F     F_    0.687818 0.792172 0.446523 -0.597454
F16   F     F_    0.713387 0.391002 0.493564 -0.589268
F17   F     F_    0.235477 0.658251 0.112431 -0.599371
F18   F     F_    0.489708 0.383748 0.023705 -0.588156
F19   F     F_    0.840206 0.265876 0.887379 -0.602708
F20   F     F_    0.732736 0.838969 0.887189 -0.600104
F21   F     F_    0.838837 0.732731 0.887174 -0.602087
F22   F     F_    0.734078 0.159679 0.887393 -0.597313
F23   F     F_    0.383466 0.489853 0.023795 -0.601143
F24   F     F_    0.341401 0.764625 0.112464 -0.592442
F25   F     F_    0.883500 0.010112 0.523715 -0.601336
F26   F     F_    0.841325 0.735296 0.612501 -0.595511
F27   F     F_    0.339433 0.766639 0.387252 -0.598147
F28   F     F_    0.233498 0.339717 0.387311 -0.597610
F29   F     F_    0.339585 0.233471 0.387296 -0.606007
F30   F     F_    0.233291 0.660452 0.387265 -0.599476
F31   F     F_    0.735396 0.841641 0.612463 -0.601181
F32   F     F_    0.989742 0.116211 0.523618 -0.588402
O53   O     O_3   0.060949 0.617636 0.118837 -0.698570
H41   H     H_    0.079612 0.654530 0.133725 0.371005
O54   O     O_3   0.380200 0.055547 0.119170 -0.713085
H42   H     H_    0.342578 0.072260 0.134147 0.349418
O55   O     O_3   0.940949 0.382325 0.119268 -0.679583
H43   H     H_    0.923146 0.345300 0.134288 0.358183
O56   O     O_3   0.619523 0.943550 0.119115 -0.676448
H44   H     H_    0.656997 0.926443 0.134078 0.359317
O57   O     O_3   0.440835 0.117621 0.619266 -0.679979
H45   H     H_    0.422992 0.154629 0.634285 0.357541
O58   O     O_3   0.882498 0.560898 0.618908 -0.700212
H46   H     H_    0.845606 0.579459 0.633819 0.369259
O59   O     O_3   0.561042 0.882412 0.618836 -0.698824
H47   H     H_    0.579733 0.845530 0.633723 0.370453
O60   O     O_3   0.117525 0.440382 0.619184 -0.679501
H48   H     H_    0.154468 0.422308 0.634180 0.358558

loop_
_geom_bond_atom_site_label_1
_geom_bond_atom_site_label_2
_ccdc_geom_bond_type
C24   C52   S    
C17   C53   S    
C130  C146  A    
C28   N6    A    
O25   Zn11  S    
C34   C42   A    
C17   C153  A    
C11   C159  A    
C90   C95   A    
C23   N15   A    
C40   C46   A    
C150  F14   S    
C86   H14   S    
N3    N15   A    
C138  C143  A    
C23   N13   A    
C139  C142  A    
C1    C46   S    
O12   Zn14  S    
C3    C48   S    
C119  C130  A    
C108  C109  A    
C30   C38   A    
C33   H29   S    
C117  C132  A    
C73   H1    S    
C118  C131  A    
C88   C104  A    
C11   C15   A    
C12   C16   A    
C84   C117  A    
C83   H11   S    
C98   F26   S    
C58   O40   A    
C60   O24   A    
C81   H9    S    
C5    C13   A    
C69   O33   A    
C160  O60   S    
C20   C158  A    
C92   F20   S    
C82   C98   A    
C95   F23   S    
C136  C152  A    
C61   O25   A    
O56   H44   S    
C84   C100  A    
C42   H38   S    
C147  C150  A    
C151  F15   S    
C140  C141  A    
C116  C133  A    
O14   Zn2   S    
O1    Zn3   S    
C39   H35   S    
C106  C127  A    
O48   Zn6   S    
C27   N5    A    
C37   H33   S    
O21   Zn9   S    
C110  C123  A    
C113  C120  A    
C8    H20   S    
C15   C27   S    
N8    N12   A    
C115  C118  A    
O8    Zn10  S    
O3    Zn7   S    
C133  C149  A    
O4    Zn16  S    
C127  C143  A    
N2    N14   A    
C128  C144  A    
C87   C103  A    
C105  C112  A    
C35   C51   A    
C10   H22   S    
C107  C110  A    
C36   C44   A    
O26   Zn10  S    
C37   C45   A    
C17   C155  A    
O32   Zn16  S    
C18   C156  A    
C66   O30   A    
O51   Zn5   S    
O1    Zn1   S    
C85   C116  A    
C12   C160  A    
C69   O51   A    
C70   O52   A    
C115  C134  A    
C1    O7    A    
C74   C90   A    
C89   C96   A    
C9    C15   A    
C19   C159  A    
C10   C16   A    
C91   C94   A    
C102  F30   S    
C78   C94   A    
C22   N10   A    
C7    C13   A    
C28   N8    A    
C69   C129  S    
O55   H43   S    
C20   C160  A    
C31   H27   S    
C79   H7    S    
C43   C47   A    
C80   H8    S    
C57   O21   A    
C44   C48   A    
C58   C128  S    
C59   O37   A    
C20   C56   S    
O27   Zn9   S    
C62   C124  S    
C146  F10   S    
C29   C49   A    
C68   O32   A    
C64   C122  S    
C1    O5    A    
O37   Zn3   S    
C25   N1    A    
C57   C125  S    
C100  F28   S    
C59   C127  S    
C123  C139  A    
O3    Zn5   S    
C103  F31   S    
C75   H3    S    
C121  C137  A    
C88   C113  A    
C24   N14   A    
C125  C141  A    
C76   C109  A    
C131  C147  A    
N5    N9    A    
C35   C43   A    
C10   C158  A    
C114  C119  A    
C36   C52   A    
C75   C91   A    
C39   C45   A    
O9    Zn15  S    
C91   F19   S    
C111  C122  A    
N7    N11   A    
C56   O18   A    
O13   Zn1   S    
C152  F16   S    
C54   O16   A    
C67   O45   A    
C106  C111  A    
C2    C45   S    
C120  C129  A    
C34   H30   S    
C41   H37   S    
C74   H2    S    
O2    Zn4   S    
C79   C106  A    
C22   N12   A    
C86   C115  A    
C76   H4    S    
C6    C14   A    
N6    N10   A    
C5    H17   S    
O52   Zn8   S    
C70   C132  S    
C41   C47   A    
C42   C48   A    
C137  C144  A    
C53   O15   A    
C44   H40   S    
O29   Zn13  S    
C57   O39   A    
C86   C102  A    
C73   C112  A    
C75   C110  A    
C35   H31   S    
C36   H32   S    
C129  C145  A    
C77   C108  A    
C25   N3    A    
C154  O54   S    
O7    Zn9   S    
C87   H15   S    
N4    N16   A    
C88   H16   S    
C112  C121  A    
C24   N16   A    
C149  F13   S    
C100  C101  A    
C29   H25   S    
C38   C46   A    
C145  C152  A    
C9    H21   S    
C71   C131  S    
C146  C151  A    
C56   O20   A    
C54   O14   A    
C4    C47   S    
C142  F6    S    
O19   Zn7   S    
C144  F8    S    
O3    Zn15  S    
O2    Zn2   S    
C63   O41   A    
O39   Zn1   S    
C98   C103  A    
C2    O6    A    
O35   Zn13  S    
C71   O35   A    
O31   Zn15  S    
O49   Zn7   S    
O47   Zn5   S    
O23   Zn11  S    
O24   Zn12  S    
O41   Zn3   S    
C4    O10   A    
C70   O34   A    
O43   Zn1   S    
C22   C50   S    
O1    Zn9   S    
C30   C50   A    
C83   C99   A    
C6    H18   S    
C65   O47   A    
C82   C119  A    
C31   C49   A    
C66   O48   A    
O11   Zn13  S    
C68   O46   A    
C78   H6    S    
O4    Zn6   S    
C122  C138  A    
C74   C111  A    
O22   Zn10  S    
O40   Zn2   S    
C126  C142  A    
C38   H34   S    
C78   C107  A    
O44   Zn4   S    
C26   N4    A    
O60   H48   S    
C79   C95   A    
C90   F18   S    
C9    C157  A    
O17   Zn5   S    
C139  F3    S    
C140  F4    S    
C141  F5    S    
N1    N13   A    
C6    C154  A    
C94   F22   S    
C155  O55   S    
C61   O43   A    
O6    Zn12  S    
C3    O11   A    
C156  O56   S    
C19   C55   S    
C65   O29   A    
O33   Zn15  S    
C124  C140  A    
C55   O19   A    
C2    O8    A    
C63   C123  S    
C64   O28   A    
C33   C51   A    
C34   C52   A    
C33   C41   A    
C68   C134  S    
C73   C89   A    
O58   H46   S    
C153  O53   S    
C12   H24   S    
C147  F11   S    
O50   Zn6   S    
C135  C151  A    
O38   Zn4   S    
C92   C93   A    
C21   N9    A    
O30   Zn14  S    
C4    O12   A    
O57   H45   S    
O42   Zn2   S    
C97   C104  A    
O54   H42   S    
O1    Zn11  S    
C99   C102  A    
C7    C155  A    
C29   C37   A    
O20   Zn8   S    
C77   H5    S    
C53   O13   A    
C16   C28   S    
C82   H10   S    
C97   F25   S    
O4    Zn8   S    
O59   H47   S    
C99   F27   S    
C81   C120  A    
C30   H26   S    
C83   C118  A    
C61   C121  S    
C26   N2    A    
O36   Zn16  S    
C5    C153  A    
C84   H12   S    
C134  C150  A    
O28   Zn12  S    
C116  C117  A    
C87   C114  A    
C113  C136  A    
O15   Zn3   S    
C85   H13   S    
C114  C135  A    
O16   Zn4   S    
C108  C125  A    
C80   C96   A    
C3    O9    A    
O2    Zn10  S    
C158  O58   S    
C71   O49   A    
O34   Zn14  S    
C13   C25   S    
C67   O31   A    
C55   O17   A    
C60   O38   A    
C64   O42   A    
C62   O26   A    
C148  F12   S    
C159  O59   S    
C32   H28   S    
C19   C157  A    
C11   H23   S    
C148  C149  A    
C80   C105  A    
C14   C26   S    
C21   N11   A    
C59   O23   A    
C67   C135  S    
C23   C51   S    
C137  F1    S    
C63   O27   A    
C7    H19   S    
C72   O36   A    
C32   C50   A    
C76   C92   A    
C101  F29   S    
C21   C49   S    
C143  F7    S    
O3    Zn13  S    
C157  O57   S    
C66   C136  S    
O5    Zn11  S    
C62   O44   A    
C85   C101  A    
C77   C93   A    
C40   H36   S    
C93   F21   S    
C8    C14   A    
C105  C128  A    
C132  C148  A    
C107  C126  A    
C18   C154  A    
C43   H39   S    
C109  C124  A    
C72   C130  S    
O45   Zn7   S    
C89   F17   S    
O46   Zn8   S    
C138  F2    S    
O18   Zn6   S    
C60   C126  S    
C145  F9    S    
C96   F24   S    
C72   O50   A    
C81   C97   A    
C104  F32   S    
C31   C39   A    
C27   N7    A    
C32   C40   A    
O53   H41   S    
C8    C156  A    
O10   Zn16  S    
C18   C54   S    
O2    Zn12  S    
O4    Zn14  S    
C58   O22   A    
C65   C133  S    
