data_mof_unit_22114.cif
_audit_creation_date              2013-03-05T16:14:17-0500
_audit_creation_method            fapswitch 2.2
_symmetry_space_group_name_H-M    P1
_symmetry_Int_Tables_number       1
_space_group_crystal_system       triclinic
_cell_length_a                    10.662098
_cell_length_b                    10.683035
_cell_length_c                    9.840711
_cell_angle_alpha                 90.12101
_cell_angle_beta                  90.469383
_cell_angle_gamma                 90.376371
_cell_volume                      1120.82765088

loop_
_atom_site_label
_atom_site_type_symbol
_atom_site_description
_atom_site_fract_x
_atom_site_fract_y
_atom_site_fract_z
_atom_type_partial_charge
O1    O     O_R   0.499990 0.316750 0.614620 -0.620087
O2    O     O_R   0.500010 0.683250 0.385380 -0.620099
O3    O     O_R   0.499990 0.316780 0.385290 -0.638756
O4    O     O_R   0.500010 0.683220 0.614710 -0.638726
C1    C     C_R   0.500038 0.259932 0.499829 0.928274
C2    C     C_R   0.499946 0.740068 0.500171 0.928522
O5    O     O_R   0.316760 0.500000 0.614660 -0.600125
O6    O     O_R   0.683240 0.500000 0.385340 -0.600347
O7    O     O_R   0.316760 0.500020 0.385330 -0.629715
O8    O     O_R   0.683240 0.499980 0.614670 -0.629583
C3    C     C_R   0.260381 0.500590 0.499214 0.970689
C4    C     C_R   0.739620 0.499419 0.500784 0.971049
Zn1   Zn    Zn3+2 0.500000 0.499980 0.653120 0.971184
Zn2   Zn    Zn3+2 0.500000 0.500020 0.346880 0.971010
H1    H     H_    0.303196 0.975204 0.181856 0.138107
H2    H     H_    0.696839 0.025033 0.818440 0.138091
C5    C     C_R   0.209534 0.913634 0.363134 -0.112879
C6    C     C_R   0.790379 0.086529 0.637061 -0.112918
H3    H     H_    0.222142 0.002121 0.415349 0.192728
H4    H     H_    0.777660 0.998051 0.584858 0.192683
C7    C     C_R   0.148528 0.814333 0.427892 -0.145858
C8    C     C_R   0.851392 0.185787 0.572236 -0.146145
H5    H     H_    0.113743 0.826946 0.530083 0.149870
H6    H     H_    0.886064 0.173154 0.470002 0.149910
C9    C     C_R   0.132073 0.699413 0.360453 0.162253
C10   C     C_R   0.867985 0.300698 0.639655 0.162032
C11   C     C_R   0.176980 0.685122 0.227559 -0.019411
C12   C     C_R   0.823218 0.315024 0.772599 -0.019431
H7    H     H_    0.164004 0.597305 0.173866 0.133936
H8    H     H_    0.836295 0.402840 0.826268 0.133944
C13   C     C_R   0.239272 0.784174 0.163797 -0.134496
C14   C     C_R   0.760922 0.216015 0.836433 -0.134555
H9    H     H_    0.274765 0.772465 0.061837 0.131415
H10   H     H_    0.725535 0.227752 0.938432 0.131437
C15   C     C_R   0.255200 0.898467 0.231388 -0.115323
C16   C     C_R   0.744846 0.101733 0.768858 -0.115300
C17   C     C_R   0.934343 0.596269 0.432122 0.303083
C18   C     C_R   0.065657 0.403832 0.567915 0.303346
C19   C     C_R   0.872081 0.500913 0.503232 -0.252805
C20   C     C_R   0.127922 0.499144 0.496766 -0.252856
C21   C     C_R   0.935866 0.404946 0.572161 -0.171729
C22   C     C_R   0.064149 0.595132 0.427852 -0.171615
C23   C     C_R   0.540176 0.064099 0.384148 -0.252567
C24   C     C_R   0.459814 0.935901 0.615855 -0.252543
H11   H     H_    0.572593 0.113271 0.294718 0.161414
H12   H     H_    0.427398 0.886729 0.705284 0.161406
C25   C     C_R   0.541028 0.935929 0.384628 -0.127989
C26   C     C_R   0.458962 0.064072 0.615375 -0.128100
H13   H     H_    0.573527 0.886749 0.295275 0.177398
H14   H     H_    0.426464 0.113252 0.704728 0.177430
C27   C     C_R   0.500642 0.872482 0.500398 0.002581
C28   C     C_R   0.499343 0.127518 0.499603 0.002469
C29   C     C_R   0.572680 0.583182 0.072758 -0.063392
C30   C     C_R   0.427325 0.416814 0.927243 -0.063122
H15   H     H_    0.630705 0.649730 0.127942 0.174440
H16   H     H_    0.369310 0.350259 0.872059 0.174742
C31   C     C_R   0.572732 0.583079 0.928856 -0.094776
C32   C     C_R   0.427270 0.416920 0.071144 -0.094760
H17   H     H_    0.630932 0.649456 0.874961 0.144217
H18   H     H_    0.369072 0.350541 0.125039 0.144221
N1    N     N_R   0.499970 0.499970 0.857200 -0.090924
N2    N     N_R   0.500030 0.500030 0.142800 -0.090908
N3    N     N_R   0.865695 0.696245 0.368886 0.206834
O9    O     O_R   0.880018 0.720581 0.240433 -0.415851
O10   O     O_R   0.792442 0.766295 0.441219 -0.461948
N4    N     N_R   0.134291 0.303987 0.631363 0.206942
O11   O     O_R   0.120606 0.280469 0.760087 -0.416077
O12   O     O_R   0.207183 0.233479 0.559108 -0.461939

loop_
_geom_bond_atom_site_label_1
_geom_bond_atom_site_label_2
_geom_bond_distance
_ccdc_geom_bond_type
C9    C22   1.485218 S    
C32   N2    1.366281 A    
N4    O12   1.300557 A    
O7    Zn2   1.993067 S    
N3    O10   1.300481 A    
C1    C28   1.414546 S    
C31   N1    1.366284 A    
C30   N1    1.366195 A    
C2    C27   1.414551 S    
C11   H7    1.083262 S    
C19   C21   1.406496 A    
O7    C3    1.276084 A    
C29   N2    1.366201 A    
C10   C12   1.404685 A    
O5    Zn1   1.987000 S    
O6    C4    1.280975 A    
C4    C19   1.412310 S    
C26   H14   1.083839 S    
N4    O11   1.301125 A    
C12   H8    1.083261 S    
C17   C19   1.403511 A    
H2    C16   1.082460 S    
C18   C20   1.403383 A    
C23   H11   1.083718 S    
C6    C16   1.398097 A    
O2    C2    1.281253 A    
O3    Zn2   1.994499 S    
O8    C4    1.276109 A    
O1    C1    1.281248 A    
C14   C16   1.397892 A    
C24   C27   1.395758 A    
C20   C22   1.406532 A    
C5    H3    1.082059 S    
C24   H12   1.083718 S    
O5    C3    1.280988 A    
C6    H4    1.082056 S    
C29   H15   1.081741 S    
C7    H5    1.083150 S    
C8    C10   1.403651 A    
C3    C20   1.412281 S    
O2    Zn2   1.992994 S    
O6    Zn2   1.986998 S    
C23   C28   1.395758 A    
C31   H17   1.081846 S    
O4    C2    1.281474 A    
O1    Zn1   1.992994 S    
C13   H9    1.082541 S    
C10   C21   1.485151 S    
C9    C11   1.404702 A    
C32   H18   1.081845 S    
N3    O9    1.301077 A    
Zn2   N2    2.008295 S    
C18   N4    1.438293 S    
C26   C28   1.396497 A    
Zn1   N1    2.008295 S    
C11   C13   1.398203 A    
C18   C21   1.384944 A    
C25   H13   1.083839 S    
C30   C32   1.416090 A    
C8    H6    1.083140 S    
H1    C15   1.082485 S    
C17   C22   1.385115 A    
C13   C15   1.397882 A    
C7    C9    1.403655 A    
C25   C27   1.396500 A    
C5    C15   1.398091 A    
C17   N3    1.438506 S    
C6    C8    1.398264 A    
C23   C25   1.369353 A    
C12   C14   1.398198 A    
C5    C7    1.398272 A    
C24   C26   1.369356 A    
O4    Zn1   1.994500 S    
C14   H10   1.082522 S    
C30   H16   1.081724 S    
O3    C1    1.281475 A    
O8    Zn1   1.993065 S    
C29   C31   1.416096 A    
