data_mof_unit_64554.cif
_audit_creation_date              2012-12-10T18:45:33-0500
_audit_creation_method            fapswitch 2.2
_symmetry_space_group_name_H-M    P1
_symmetry_Int_Tables_number       1
_space_group_crystal_system       triclinic
_cell_length_a                    18.056526
_cell_length_b                    18.115874
_cell_length_c                    43.00051
_cell_angle_alpha                 89.993847
_cell_angle_beta                  89.964563
_cell_angle_gamma                 89.982849
_cell_volume                      14065.8826701

loop_
_atom_site_label
_atom_site_type_symbol
_atom_type_description
_atom_site_fract_x
_atom_site_fract_y
_atom_site_fract_z
_atom_type_partial_charge
C1    C     C_R   0.499979 0.999999 0.334170 0.889438
C2    C     C_R   0.500020 0.000006 0.665830 0.890251
C3    C     C_R   0.000166 0.499966 0.334123 0.883524
C4    C     C_R   0.999838 0.499973 0.665875 0.882910
C5    C     C_R   0.999980 0.499995 0.834169 0.890700
C6    C     C_R   0.000020 0.500005 0.165831 0.890701
C7    C     C_R   0.500039 1.000000 0.834119 0.899024
C8    C     C_R   0.499960 0.000000 0.165881 0.899049
C9    C     C_R   0.499961 0.999991 0.131500 -0.169973
C10   C     C_R   0.500033 0.000008 0.868500 -0.169981
C11   C     C_R   0.000060 0.500036 0.131416 -0.153050
C12   C     C_R   0.999940 0.499968 0.868583 -0.153055
C13   C     C_R   0.999481 0.499796 0.631494 -0.169153
C14   C     C_R   0.000544 0.499781 0.368500 -0.165440
C15   C     C_R   0.500059 0.000044 0.631415 -0.153247
C16   C     C_R   0.499937 0.999982 0.368586 -0.153065
C17   C     C_R   0.000271 0.498105 0.468511 0.385849
C18   C     C_R   0.999836 0.498110 0.531478 0.368025
C19   C     C_R   0.499965 0.000036 0.468531 0.373883
C20   C     C_R   0.500025 0.000056 0.531472 0.374726
C21   C     C_R   0.499979 0.000079 0.968519 0.378402
C22   C     C_R   0.500003 0.999912 0.031482 0.378390
C23   C     C_R   0.999973 0.499997 0.968528 0.373885
C24   C     C_R   0.000031 0.500025 0.031471 0.373899
C25   C     C_R   0.641769 0.141635 0.250020 0.793395
C26   C     C_R   0.358192 0.858418 0.750011 0.793973
C27   C     C_R   0.858204 0.641610 0.249979 0.790596
C28   C     C_R   0.141767 0.358371 0.750039 0.790820
C29   C     C_R   0.358223 0.858367 0.250029 0.805378
C30   C     C_R   0.641759 0.141658 0.749954 0.805135
C31   C     C_R   0.141802 0.358400 0.249977 0.802234
C32   C     C_R   0.858219 0.641628 0.750043 0.791809
C33   C     C_R   0.141763 0.641656 0.750030 0.795194
C34   C     C_R   0.858266 0.358325 0.249952 0.795468
C35   C     C_R   0.358229 0.141624 0.749964 0.792847
C36   C     C_R   0.641809 0.858428 0.250005 0.793471
C37   C     C_R   0.858246 0.358337 0.750047 0.805626
C38   C     C_R   0.141732 0.641691 0.249933 0.795435
C39   C     C_R   0.641783 0.858375 0.749959 0.794446
C40   C     C_R   0.358234 0.141650 0.250058 0.794282
C41   C     C_3   0.231526 0.197936 0.270882 -0.123117
C42   C     C_3   0.768381 0.802000 0.729103 -0.115315
C43   C     C_3   0.815400 0.219876 0.242074 -0.177312
C44   C     C_3   0.184559 0.780108 0.757999 -0.177390
C45   C     C_3   0.768364 0.802156 0.270810 -0.108810
C46   C     C_3   0.231686 0.197988 0.729113 -0.115570
C47   C     C_3   0.184572 0.780207 0.242133 -0.171607
C48   C     C_3   0.815344 0.219896 0.757908 -0.173383
C49   C     C_3   0.731625 0.698008 0.770901 -0.116364
C50   C     C_3   0.268539 0.302172 0.229233 -0.117593
C51   C     C_3   0.315325 0.720110 0.742154 -0.175873
C52   C     C_3   0.684659 0.280054 0.257852 -0.175329
C53   C     C_3   0.268304 0.302000 0.770892 -0.116074
C54   C     C_3   0.731696 0.698006 0.229104 -0.116139
C55   C     C_3   0.684678 0.280088 0.742091 -0.173775
C56   C     C_3   0.315336 0.719926 0.257746 -0.175882
C57   C     C_3   0.184642 0.219962 0.242258 -0.184307
C58   C     C_3   0.815441 0.780140 0.757699 -0.182338
C59   C     C_3   0.745192 0.219993 0.221462 -0.156812
C60   C     C_3   0.254790 0.779953 0.778600 -0.157487
C61   C     C_3   0.815507 0.780144 0.242234 -0.184090
C62   C     C_3   0.184541 0.219848 0.757707 -0.183998
C63   C     C_3   0.254761 0.780245 0.221470 -0.156274
C64   C     C_3   0.745036 0.219984 0.778498 -0.154786
C65   C     C_3   0.684565 0.719867 0.742304 -0.183657
C66   C     C_3   0.315420 0.280147 0.257859 -0.181115
C67   C     C_3   0.245129 0.720294 0.721554 -0.155663
C68   C     C_3   0.754861 0.279936 0.278464 -0.160261
C69   C     C_3   0.315449 0.280141 0.742298 -0.184495
C70   C     C_3   0.684559 0.720017 0.257680 -0.184715
C71   C     C_3   0.754987 0.279997 0.721502 -0.157447
C72   C     C_3   0.245164 0.719901 0.278410 -0.159230
C73   C     C_3   0.199247 0.301303 0.249920 0.031224
C74   C     C_3   0.800789 0.698754 0.750134 0.032447
C75   C     C_3   0.699220 0.198744 0.250081 0.030969
C76   C     C_3   0.300720 0.801359 0.749988 0.028199
C77   C     C_3   0.800801 0.698791 0.249876 0.030736
C78   C     C_3   0.199194 0.301234 0.750128 0.033279
C79   C     C_3   0.300754 0.801289 0.250084 0.032379
C80   C     C_3   0.699210 0.198769 0.749860 0.034059
C81   C     C_3   0.699217 0.801254 0.749869 0.031593
C82   C     C_3   0.300819 0.198803 0.250186 0.033213
C83   C     C_3   0.199165 0.698842 0.750147 0.029120
C84   C     C_3   0.800839 0.301183 0.249849 0.031549
C85   C     C_3   0.300797 0.198755 0.749877 0.032484
C86   C     C_3   0.699264 0.801349 0.250053 0.029689
C87   C     C_3   0.800809 0.301215 0.750140 0.032620
C88   C     C_3   0.199155 0.698841 0.249805 0.033643
C89   C     C_3   0.245251 0.280210 0.278532 -0.158826
C90   C     C_3   0.754596 0.719686 0.721557 -0.160865
C91   C     C_3   0.768565 0.197703 0.270710 -0.122156
C92   C     C_3   0.231366 0.802459 0.729378 -0.115160
C93   C     C_3   0.754510 0.719903 0.278425 -0.156033
C94   C     C_3   0.245473 0.280301 0.721553 -0.160667
C95   C     C_3   0.231437 0.802185 0.270762 -0.123010
C96   C     C_3   0.768654 0.197753 0.729252 -0.130550
C97   C     C_3   0.745410 0.780322 0.778447 -0.159523
C98   C     C_3   0.254794 0.219908 0.221585 -0.157979
C99   C     C_3   0.268522 0.697760 0.770774 -0.113821
C100  C     C_3   0.731496 0.302227 0.229217 -0.113754
C101  C     C_3   0.254518 0.219686 0.778453 -0.159842
C102  C     C_3   0.745528 0.780286 0.221487 -0.160461
C103  C     C_3   0.731367 0.302229 0.770748 -0.128632
C104  C     C_3   0.268471 0.697950 0.229119 -0.127409
C105  C     C_R   0.554893 0.039998 0.115116 -0.101358
C106  C     C_R   0.445108 0.959987 0.884883 -0.101340
C107  C     C_R   0.952969 0.548994 0.115051 -0.099946
C108  C     C_R   0.047030 0.451011 0.884950 -0.099938
C109  C     C_R   0.445009 0.959969 0.115132 -0.096404
C110  C     C_R   0.554972 0.040044 0.884870 -0.096411
C111  C     C_R   0.047168 0.451098 0.115030 -0.100118
C112  C     C_R   0.952835 0.548911 0.884969 -0.100154
C113  C     C_R   0.046518 0.548503 0.614964 -0.105367
C114  C     C_R   0.048030 0.450900 0.384759 -0.103593
C115  C     C_R   0.452875 0.048919 0.615051 -0.099951
C116  C     C_R   0.547184 0.951178 0.384957 -0.102126
C117  C     C_R   0.952300 0.450667 0.615230 -0.098986
C118  C     C_R   0.953239 0.548254 0.385027 -0.111282
C119  C     C_R   0.547258 0.951198 0.615025 -0.100213
C120  C     C_R   0.452671 0.048781 0.384970 -0.100462
C121  C     C_R   0.554967 0.039892 0.082212 -0.084077
C122  C     C_R   0.445029 0.960091 0.917787 -0.084090
C123  C     C_R   0.953029 0.549011 0.082175 -0.078412
C124  C     C_R   0.046973 0.451002 0.917826 -0.078401
C125  C     C_R   0.445088 0.959866 0.082246 -0.080826
C126  C     C_R   0.554889 0.040143 0.917756 -0.080833
C127  C     C_R   0.047107 0.451087 0.082154 -0.078547
C128  C     C_R   0.952898 0.548929 0.917845 -0.078550
C129  C     C_R   0.045150 0.549332 0.582140 -0.085579
C130  C     C_R   0.046717 0.449188 0.417590 -0.084838
C131  C     C_R   0.452923 0.048933 0.582175 -0.078504
C132  C     C_R   0.547131 0.951185 0.417832 -0.080252
C133  C     C_R   0.953865 0.448742 0.582422 -0.082629
C134  C     C_R   0.954424 0.548894 0.417872 -0.087941
C135  C     C_R   0.547205 0.951204 0.582149 -0.078699
C136  C     C_R   0.452726 0.048801 0.417846 -0.079737
C137  C     C_R   0.500029 0.999875 0.065856 -0.099857
C138  C     C_R   0.499955 0.000120 0.934144 -0.099855
C139  C     C_R   0.000060 0.500043 0.065837 -0.071757
C140  C     C_R   0.999945 0.499975 0.934162 -0.071755
C141  C     C_R   0.999610 0.498715 0.565868 -0.093841
C142  C     C_R   0.000483 0.498719 0.434123 -0.085366
C143  C     C_R   0.500055 0.000066 0.565837 -0.072482
C144  C     C_R   0.499938 0.000007 0.434165 -0.071926
H1    H     H_    0.129964 0.196464 0.235854 0.148566
H2    H     H_    0.870157 0.803677 0.764021 0.148957
H3    H     H_    0.740163 0.194437 0.198101 0.155368
H4    H     H_    0.259824 0.805406 0.801981 0.155762
H5    H     H_    0.870250 0.803641 0.235897 0.148874
H6    H     H_    0.129813 0.196298 0.764034 0.148321
H7    H     H_    0.259848 0.806099 0.198154 0.160285
H8    H     H_    0.739815 0.194272 0.801836 0.160037
H9    H     H_    0.629849 0.696330 0.735982 0.148630
H10   H     H_    0.370097 0.303646 0.264265 0.149018
H11   H     H_    0.240448 0.695090 0.698138 0.148949
H12   H     H_    0.759917 0.305602 0.301808 0.161090
H13   H     H_    0.370177 0.303691 0.735972 0.148239
H14   H     H_    0.629824 0.696511 0.264025 0.148314
H15   H     H_    0.760232 0.305691 0.698161 0.168130
H16   H     H_    0.240143 0.694070 0.301728 0.160367
H17   H     H_    0.217269 0.154278 0.287986 0.172440
H18   H     H_    0.782530 0.845565 0.711941 0.173238
H19   H     H_    0.870051 0.196337 0.235605 0.149518
H20   H     H_    0.129900 0.803589 0.764491 0.150132
H21   H     H_    0.782506 0.845768 0.287940 0.174889
H22   H     H_    0.217590 0.154416 0.711958 0.173268
H23   H     H_    0.129908 0.803775 0.235731 0.149875
H24   H     H_    0.869970 0.196366 0.764391 0.149540
H25   H     H_    0.717476 0.654443 0.788063 0.173196
H26   H     H_    0.282794 0.345839 0.212133 0.173111
H27   H     H_    0.369981 0.696625 0.735658 0.149664
H28   H     H_    0.630004 0.303589 0.264317 0.149847
H29   H     H_    0.282400 0.345572 0.788047 0.173228
H30   H     H_    0.717556 0.654378 0.211981 0.173382
H31   H     H_    0.630052 0.303620 0.735608 0.149749
H32   H     H_    0.370002 0.696357 0.264147 0.149618
H33   H     H_    0.240174 0.306020 0.301855 0.169404
H34   H     H_    0.759447 0.693738 0.698257 0.161553
H35   H     H_    0.782897 0.153913 0.287739 0.167757
H36   H     H_    0.216973 0.846304 0.712383 0.169642
H37   H     H_    0.758895 0.694405 0.301797 0.149861
H38   H     H_    0.240680 0.306237 0.698248 0.161939
H39   H     H_    0.217129 0.845856 0.287852 0.167619
H40   H     H_    0.783068 0.153990 0.712220 0.166844
H41   H     H_    0.740559 0.806273 0.801746 0.163604
H42   H     H_    0.259782 0.194101 0.198262 0.163445
H43   H     H_    0.282914 0.653906 0.787764 0.169458
H44   H     H_    0.717164 0.346010 0.212186 0.169340
H45   H     H_    0.259312 0.193747 0.801756 0.163674
H46   H     H_    0.740751 0.806145 0.198167 0.163998
H47   H     H_    0.716954 0.345993 0.787780 0.167416
H48   H     H_    0.282780 0.654287 0.212026 0.167486
N1    N     N_R   0.440583 0.025712 0.015509 -0.116936
N2    N     N_R   0.559399 0.974278 0.984491 -0.116936
N3    N     N_R   0.064126 0.509221 0.015443 -0.113073
N4    N     N_R   0.935879 0.490801 0.984556 -0.113080
N5    N     N_R   0.559412 0.974198 0.015448 -0.115742
N6    N     N_R   0.440570 0.025792 0.984552 -0.115735
N7    N     N_R   0.935907 0.490816 0.015499 -0.112502
N8    N     N_R   0.064097 0.509206 0.984500 -0.112494
N9    N     N_R   0.935221 0.497896 0.515396 -0.122386
N10   N     N_R   0.064885 0.498669 0.484592 -0.121356
N11   N     N_R   0.564092 0.009439 0.515445 -0.114135
N12   N     N_R   0.435897 0.990654 0.484558 -0.113932
N13   N     N_R   0.064671 0.498157 0.515510 -0.121395
N14   N     N_R   0.935441 0.497380 0.484478 -0.120417
N15   N     N_R   0.435927 0.990666 0.515501 -0.113472
N16   N     N_R   0.564062 0.009430 0.484502 -0.114086
O1    O     O_3   0.500000 0.000000 0.250000 -0.502044
O2    O     O_3   0.500000 1.000000 0.750000 -0.502132
O3    O     O_3   0.000000 0.500000 0.250000 -0.501955
O4    O     O_3   0.000000 0.500000 0.750000 -0.502059
O5    O     O_R   0.438450 0.000020 0.319320 -0.624881
O6    O     O_R   0.561550 0.999980 0.680680 -0.625058
O7    O     O_R   0.999980 0.438450 0.319320 -0.623608
O8    O     O_R   0.000020 0.561550 0.680680 -0.626040
O9    O     O_R   0.561550 0.999980 0.319320 -0.624092
O10   O     O_R   0.438450 0.000020 0.680680 -0.623457
O11   O     O_R   0.000020 0.561550 0.319320 -0.626174
O12   O     O_R   0.999980 0.438450 0.680680 -0.623416
O13   O     O_R   0.938450 0.500020 0.819320 -0.624733
O14   O     O_R   0.061550 0.499980 0.180680 -0.624695
O15   O     O_R   0.499980 0.938450 0.819320 -0.624820
O16   O     O_R   0.500020 0.061550 0.180680 -0.624773
O17   O     O_R   0.061550 0.499980 0.819320 -0.623153
O18   O     O_R   0.938450 0.500020 0.180680 -0.623184
O19   O     O_R   0.500020 0.061550 0.819320 -0.621140
O20   O     O_R   0.499980 0.938450 0.180680 -0.621181
O21   O     O_R   0.648010 0.086580 0.268180 -0.641315
O22   O     O_R   0.351990 0.913420 0.731820 -0.641105
O23   O     O_R   0.913420 0.648010 0.268180 -0.631099
O24   O     O_R   0.086580 0.351990 0.731820 -0.635780
O25   O     O_R   0.351990 0.913420 0.268180 -0.642133
O26   O     O_R   0.648010 0.086580 0.731820 -0.642014
O27   O     O_R   0.086580 0.351990 0.268180 -0.630722
O28   O     O_R   0.913420 0.648010 0.731820 -0.635024
O29   O     O_R   0.148010 0.586580 0.768180 -0.641013
O30   O     O_R   0.851990 0.413420 0.231820 -0.641240
O31   O     O_R   0.413420 0.148010 0.768180 -0.634982
O32   O     O_R   0.586580 0.851990 0.231820 -0.634847
O33   O     O_R   0.851990 0.413420 0.768180 -0.642623
O34   O     O_R   0.148010 0.586580 0.231820 -0.641227
O35   O     O_R   0.586580 0.851990 0.768180 -0.634825
O36   O     O_R   0.413420 0.148010 0.231820 -0.635032
O37   O     O_R   0.413460 0.851950 0.231830 -0.633482
O38   O     O_R   0.586540 0.148050 0.768170 -0.633678
O39   O     O_R   0.148050 0.413460 0.231830 -0.641109
O40   O     O_R   0.851950 0.586540 0.768170 -0.639860
O41   O     O_R   0.586540 0.148050 0.231830 -0.633257
O42   O     O_R   0.413460 0.851950 0.768170 -0.633201
O43   O     O_R   0.851950 0.586540 0.231830 -0.639861
O44   O     O_R   0.148050 0.413460 0.768170 -0.640173
O45   O     O_R   0.913460 0.351950 0.731830 -0.632019
O46   O     O_R   0.086540 0.648050 0.268170 -0.636671
O47   O     O_R   0.648050 0.913460 0.731830 -0.639767
O48   O     O_R   0.351950 0.086540 0.268170 -0.639612
O49   O     O_R   0.086540 0.648050 0.731830 -0.632318
O50   O     O_R   0.913460 0.351950 0.268170 -0.637269
O51   O     O_R   0.351950 0.086540 0.731830 -0.640398
O52   O     O_R   0.648050 0.913460 0.268170 -0.640460
Zn1   Zn    Zn3+2 0.499980 0.087890 0.224030 1.023988
Zn2   Zn    Zn3+2 0.500020 0.912110 0.775970 1.024056
Zn3   Zn    Zn3+2 0.912110 0.499980 0.224030 1.020215
Zn4   Zn    Zn3+2 0.087890 0.500020 0.775970 1.020176
Zn5   Zn    Zn3+2 0.500020 0.912110 0.224030 1.027516
Zn6   Zn    Zn3+2 0.499980 0.087890 0.775970 1.027363
Zn7   Zn    Zn3+2 0.087890 0.500020 0.224030 1.020793
Zn8   Zn    Zn3+2 0.912110 0.499980 0.775970 1.020648
Zn9   Zn    Zn3+2 0.999980 0.587890 0.724030 1.021962
Zn10  Zn    Zn3+2 0.000020 0.412110 0.275970 1.024139
Zn11  Zn    Zn3+2 0.412110 0.999980 0.724030 1.020258
Zn12  Zn    Zn3+2 0.587890 0.000020 0.275970 1.019700
Zn13  Zn    Zn3+2 0.000020 0.412110 0.724030 1.024375
Zn14  Zn    Zn3+2 0.999980 0.587890 0.275970 1.021432
Zn15  Zn    Zn3+2 0.587890 0.000020 0.724030 1.022019
Zn16  Zn    Zn3+2 0.412110 0.999980 0.275970 1.022076
C145  C     C_2   0.612366 0.081967 0.132568 0.985995
O53   O     O_2   0.624167 0.146791 0.126353 -0.586384
O54   O     O_R   0.652504 0.047264 0.156228 -0.811475
H49   H     H_    0.689426 0.081562 0.166534 0.331804
C146  C     C_2   0.387649 0.918003 0.867428 0.986020
O55   O     O_2   0.375869 0.853175 0.873642 -0.586389
O56   O     O_R   0.347502 0.952698 0.843770 -0.811474
H50   H     H_    0.310591 0.918391 0.833462 0.331777
C147  C     C_2   0.908364 0.604189 0.132525 0.947659
O57   O     O_2   0.840899 0.604721 0.130225 -0.551123
O58   O     O_R   0.943830 0.653854 0.152452 -0.817484
H51   H     H_    0.907723 0.687644 0.163581 0.338305
C148  C     C_2   0.091630 0.395810 0.867477 0.947624
O59   O     O_2   0.159094 0.395262 0.869782 -0.551133
O60   O     O_R   0.056161 0.346156 0.847547 -0.817736
H52   H     H_    0.092265 0.312359 0.836419 0.338214
C149  C     C_2   0.387503 0.917677 0.132451 0.977872
O61   O     O_2   0.351355 0.947780 0.152906 -0.642367
O62   O     O_R   0.374893 0.843450 0.125293 -0.762546
H53   H     H_    0.334609 0.820722 0.138649 0.347285
C150  C     C_2   0.612468 0.082353 0.867553 0.977902
O63   O     O_2   0.648631 0.052260 0.847100 -0.642321
O64   O     O_R   0.625052 0.156585 0.874711 -0.762563
H54   H     H_    0.665332 0.179325 0.861357 0.347261
C151  C     C_2   0.091783 0.395909 0.132484 0.947803
O65   O     O_2   0.159249 0.395404 0.130154 -0.552272
O66   O     O_R   0.056325 0.346215 0.152423 -0.816420
H55   H     H_    0.092439 0.312428 0.163535 0.338097
C152  C     C_2   0.908219 0.604096 0.867514 0.947864
O67   O     O_2   0.840752 0.604596 0.869841 -0.552298
O68   O     O_R   0.943676 0.653794 0.847576 -0.816140
H56   H     H_    0.907563 0.687578 0.836463 0.338294
C153  C     C_2   0.098185 0.597828 0.632123 0.997378
O69   O     O_2   0.097530 0.664388 0.627366 -0.585260
O70   O     O_R   0.147201 0.567729 0.653858 -0.805375
H57   H     H_    0.179325 0.606566 0.664102 0.333070
C154  C     C_2   0.099337 0.401352 0.367435 0.981642
O71   O     O_2   0.142732 0.427258 0.348504 -0.639148
O72   O     O_R   0.097776 0.325245 0.372804 -0.756184
H58   H     H_    0.135093 0.297521 0.359598 0.354274
C155  C     C_2   0.408182 0.104043 0.632525 0.947884
O73   O     O_2   0.340714 0.104453 0.630233 -0.551453
O74   O     O_R   0.443571 0.153782 0.652443 -0.817524
H59   H     H_    0.407411 0.187514 0.663574 0.338101
C156  C     C_2   0.591955 0.896097 0.367492 0.950552
O75   O     O_2   0.659423 0.895779 0.369787 -0.546200
O76   O     O_R   0.556637 0.846285 0.347585 -0.816715
H60   H     H_    0.592845 0.812585 0.336464 0.339319
C157  C     C_2   0.901046 0.401046 0.632530 0.988229
O77   O     O_2   0.857484 0.426905 0.651409 -0.637843
O78   O     O_R   0.902828 0.324933 0.627198 -0.763334
H61   H     H_    0.865502 0.297167 0.640377 0.348725
C158  C     C_2   0.901513 0.597514 0.367845 0.992286
O79   O     O_2   0.902049 0.664075 0.372597 -0.575410
O80   O     O_R   0.852608 0.567363 0.346089 -0.807337
H62   H     H_    0.820445 0.606164 0.335827 0.334382
C159  C     C_2   0.591967 0.896076 0.632474 0.947893
O81   O     O_2   0.659436 0.895700 0.630152 -0.552719
O82   O     O_R   0.556591 0.846294 0.652400 -0.816438
H63   H     H_    0.592761 0.812565 0.663510 0.338075
C160  C     C_2   0.407883 0.103835 0.367517 0.949392
O83   O     O_2   0.340412 0.104108 0.369834 -0.552178
O84   O     O_R   0.443189 0.153674 0.347595 -0.816192
H64   H     H_    0.406970 0.187353 0.336485 0.338738
C161  C     C_2   0.613128 0.081186 0.064865 0.978131
O85   O     O_2   0.595673 0.124138 0.044179 -0.554633
O86   O     O_R   0.687797 0.070746 0.072263 -0.764991
H65   H     H_    0.721985 0.101851 0.058914 0.368223
C162  C     C_2   0.386873 0.918786 0.935131 0.978123
O87   O     O_2   0.404332 0.875843 0.955821 -0.554636
O88   O     O_R   0.312203 0.929205 0.927728 -0.764991
H66   H     H_    0.278018 0.898093 0.941077 0.368229
C163  C     C_2   0.908570 0.604148 0.064621 0.937662
O89   O     O_2   0.841247 0.606018 0.067489 -0.533092
O90   O     O_R   0.944001 0.652397 0.044054 -0.770535
H67   H     H_    0.908033 0.686523 0.033055 0.361704
C164  C     C_2   0.091432 0.395868 0.935382 0.937674
O91   O     O_2   0.158756 0.394008 0.932518 -0.533073
O92   O     O_R   0.055999 0.347612 0.955944 -0.770545
H68   H     H_    0.091966 0.313489 0.966946 0.361701
C165  C     C_2   0.387093 0.918298 0.064948 0.984410
O93   O     O_2   0.404711 0.875534 0.044211 -0.553446
O94   O     O_R   0.312394 0.928227 0.072455 -0.768115
H69   H     H_    0.278343 0.896929 0.059145 0.367085
C166  C     C_2   0.612872 0.081724 0.935056 0.984400
O95   O     O_2   0.595241 0.124476 0.955795 -0.553449
O96   O     O_R   0.687574 0.071822 0.927548 -0.768117
H70   H     H_    0.721615 0.103128 0.940859 0.367085
C167  C     C_2   0.091577 0.395960 0.064581 0.938048
O97   O     O_2   0.158901 0.394109 0.067413 -0.533861
O98   O     O_R   0.056155 0.347696 0.044041 -0.769866
H71   H     H_    0.092131 0.313577 0.033025 0.361662
C168  C     C_2   0.908431 0.604061 0.935417 0.938033
O99   O     O_2   0.841109 0.605919 0.932584 -0.533880
O100  O     O_R   0.943856 0.652324 0.955956 -0.769854
H72   H     H_    0.907884 0.686448 0.966970 0.361664
C169  C     C_2   0.091525 0.603467 0.564855 0.979296
O101  O     O_2   0.062937 0.644735 0.545812 -0.562558
O102  O     O_R   0.167729 0.607034 0.570407 -0.762864
H73   H     H_    0.193162 0.646002 0.557277 0.369872
C170  C     C_2   0.093271 0.394935 0.434735 0.984360
O103  O     O_2   0.159874 0.391463 0.429745 -0.575193
O104  O     O_R   0.060658 0.348258 0.456725 -0.748093
H74   H     H_    0.097902 0.314197 0.466986 0.373771
C171  C     C_2   0.408330 0.103966 0.564623 0.937245
O105  O     O_2   0.341005 0.105682 0.567496 -0.534402
O106  O     O_R   0.443641 0.152292 0.544052 -0.769941
H75   H     H_    0.407589 0.186332 0.533053 0.362043
C172  C     C_2   0.591786 0.896209 0.435390 0.939944
O107  O     O_2   0.659115 0.894575 0.432522 -0.530233
O108  O     O_R   0.556527 0.847836 0.455957 -0.768676
H76   H     H_    0.592616 0.813835 0.466955 0.363406
C173  C     C_2   0.907585 0.394018 0.565451 0.985960
O109  O     O_2   0.936186 0.352426 0.546526 -0.561642
O110  O     O_R   0.831458 0.390189 0.571197 -0.766453
H77   H     H_    0.806100 0.350762 0.558303 0.368502
C174  C     C_2   0.907841 0.602598 0.435329 0.977579
O111  O     O_2   0.841187 0.605983 0.430486 -0.571288
O112  O     O_R   0.940489 0.648772 0.457476 -0.748973
H78   H     H_    0.903226 0.682443 0.467967 0.374427
C175  C     C_2   0.591805 0.896188 0.564572 0.937500
O113  O     O_2   0.659131 0.894485 0.567408 -0.535204
O114  O     O_R   0.556500 0.847859 0.544024 -0.769349
H79   H     H_    0.592557 0.813829 0.533007 0.362056
C176  C     C_2   0.408059 0.103782 0.435414 0.939579
O115  O     O_2   0.340732 0.105416 0.432572 -0.532799
O116  O     O_R   0.443304 0.152166 0.455958 -0.768746
H80   H     H_    0.407206 0.186171 0.466966 0.363166

loop_
_geom_bond_atom_site_label_1
_geom_bond_atom_site_label_2
_ccdc_geom_bond_type
C132  C144  A    
C64   C103  S    
O2    Zn2   S    
C165  O93   D    
C57   H1    S    
C158  O80   S    
C11   C107  A    
O60   H52   S    
C52   C75   S    
C53   C69   S    
C42   C58   S    
C99   H43   S    
C160  O83   D    
O46   Zn14  S    
C103  H47   S    
C151  O65   D    
C26   O22   A    
C97   H41   S    
C56   C79   S    
C32   O40   A    
C17   N14   A    
C100  H44   S    
C101  H45   S    
C175  O114  S    
N2    N5    A    
C39   O47   A    
C3    O7    A    
C104  H48   S    
C27   O43   A    
C92   H36   S    
C72   C88   S    
C93   H37   S    
C56   C72   S    
C23   N4    A    
N9    N14   A    
O35   Zn2   S    
C21   N2    A    
C30   O38   A    
C44   C92   S    
C62   C101  S    
C153  O70   S    
C117  C133  A    
O2    Zn6   S    
O29   Zn4   S    
C114  C130  A    
O30   Zn3   S    
C114  C154  S    
C108  C124  A    
C164  O92   S    
C124  C140  A    
C66   C89   S    
O76   H60   S    
C84   C100  S    
C135  C175  S    
C70   C93   S    
C35   O31   A    
C5    C12   S    
C6    C11   S    
C12   C108  A    
C24   N3    A    
C36   C86   S    
C159  O81   D    
C60   C76   S    
C113  C153  S    
C38   C88   S    
C17   C142  S    
C66   C82   S    
C7    O15   A    
O66   H55   S    
C54   C70   S    
C134  C174  S    
C48   C87   S    
C33   C83   S    
C29   O25   A    
C40   O36   A    
C87   C103  S    
C38   O46   A    
C46   C62   S    
C2    O6    A    
C171  O105  D    
C15   C115  A    
O106  H75   S    
C131  C143  A    
C32   O28   A    
C62   H6    S    
O12   Zn13  S    
C133  C141  A    
O37   Zn5   S    
C20   N11   A    
C63   C104  S    
O102  H73   S    
C174  O111  D    
C74   C90   S    
C53   C78   S    
C147  O58   S    
C167  O97   D    
C55   C80   S    
C54   H30   S    
C7    O19   A    
C78   C94   S    
C41   C82   S    
C67   C92   S    
C5    O17   A    
C18   N9    A    
C34   O30   A    
C73   C89   S    
O82   H63   S    
C40   O48   A    
O4    Zn8   S    
C136  C144  A    
C156  O75   D    
C33   O49   A    
O94   H69   S    
C2    O10   A    
O48   Zn16  S    
O45   Zn13  S    
C60   H4    S    
C61   H5    S    
O18   Zn3   S    
O15   Zn2   S    
C55   C71   S    
N1    N6    A    
O43   Zn3   S    
C172  O108  S    
C59   H3    S    
C41   C89   S    
C67   C83   S    
C163  O89   D    
C119  C159  S    
C22   N5    A    
O90   H67   S    
C44   C83   S    
C45   C93   S    
C52   H28   S    
C176  O115  D    
C8    O20   A    
C53   H29   S    
O4    Zn13  S    
C22   C137  S    
C109  C149  S    
C56   H32   S    
C16   C120  A    
C32   C74   S    
C154  O72   S    
C9    C105  A    
O114  H79   S    
C123  C139  A    
C121  C137  A    
C157  O78   S    
O42   Zn2   S    
C65   H9    S    
C61   C77   S    
C152  O68   S    
C116  C132  A    
C69   H13   S    
C122  C162  S    
C28   O24   A    
C118  C134  A    
C43   C59   S    
C54   C77   S    
O39   Zn7   S    
C135  C143  A    
C145  O53   D    
C59   C100  S    
C150  O64   S    
C17   N10   A    
C42   C81   S    
C34   C84   S    
N4    N7    A    
C116  C156  S    
C88   C104  S    
C39   O35   A    
C161  O86   S    
C50   C98   S    
C37   O33   A    
C40   C82   S    
C23   C140  S    
C51   C76   S    
O25   Zn16  S    
C31   O27   A    
C23   N8    A    
C52   C100  S    
O26   Zn15  S    
O31   Zn6   S    
C42   C90   S    
C149  O61   D    
C46   C94   S    
O54   H49   S    
C106  C122  A    
O3    Zn7   S    
C148  O59   D    
C51   C67   S    
C110  C126  A    
C19   N16   A    
C10   C106  A    
O49   Zn9   S    
C86   C102  S    
O8    Zn9   S    
C12   C112  A    
C69   C85   S    
C58   C74   S    
C173  O110  S    
C109  C125  A    
C95   H39   S    
C62   C78   S    
C18   C141  S    
C42   H18   S    
O1    Zn1   S    
C146  O56   S    
C44   H20   S    
N11   N16   A    
C136  C176  S    
C45   C86   S    
C128  C140  A    
C129  C169  S    
C175  O113  D    
C133  C173  S    
C35   C85   S    
O28   Zn9   S    
C15   C119  A    
C36   O52   A    
C130  C142  A    
C170  O104  S    
C118  C158  S    
O20   Zn5   S    
O44   Zn4   S    
C117  C157  S    
O56   H50   S    
C20   N15   A    
C6    O14   A    
O38   Zn6   S    
C168  O100  S    
C7    C10   S    
C90   H34   S    
C19   C144  S    
C41   H17   S    
O3    Zn14  S    
C82   C98   S    
C107  C123  A    
O70   H57   S    
C164  O91   D    
O51   Zn11  S    
O104  H74   S    
O1    Zn5   S    
C166  O96   S    
C25   O21   A    
C18   N13   A    
C4    O8    A    
C107  C147  S    
N3    N8    A    
C169  O102  S    
C47   C63   S    
C48   C64   S    
C129  C141  A    
O22   Zn11  S    
O100  H72   S    
C34   O50   A    
C67   H11   S    
C150  O63   D    
C155  O74   S    
C26   O42   A    
C48   C96   S    
O1    Zn12  S    
C126  C138  A    
O98   H71   S    
C53   C101  S    
C112  C152  S    
C4    O12   A    
N10   N13   A    
O96   H70   S    
C22   N1    A    
C162  O88   S    
C8    O16   A    
C46   C85   S    
C159  O82   S    
O72   H58   S    
C165  O94   S    
C83   C99   S    
C64   C80   S    
C20   C143  S    
C21   C138  S    
C16   C116  A    
C160  O84   S    
C151  O66   S    
C24   C139  S    
C9    C109  A    
C65   C90   S    
C11   C111  A    
O68   H56   S    
C68   C84   S    
C56   C104  S    
C69   C94   S    
O88   H66   S    
C66   H10   S    
C126  C166  S    
C63   C79   S    
C71   C96   S    
C125  C137  A    
C153  O69   D    
C119  C135  A    
O23   Zn14  S    
O47   Zn15  S    
C70   H14   S    
O52   Zn12  S    
O80   H62   S    
C28   O44   A    
C79   C95   S    
C147  O57   D    
C134  C142  A    
C65   C81   S    
O84   H64   S    
C29   C79   S    
O5    Zn16  S    
O1    Zn16  S    
O6    Zn15  S    
C50   H26   S    
C1    C16   S    
C30   O26   A    
C2    C15   S    
C122  C138  A    
C3    C14   S    
C113  C129  A    
C71   C87   S    
C37   O45   A    
C1    O5    A    
C115  C155  S    
O62   H53   S    
C172  O107  D    
C46   H22   S    
C29   O37   A    
O32   Zn5   S    
C54   C102  S    
C13   C117  A    
O112  H78   S    
O9    Zn12  S    
O3    Zn3   S    
C124  C164  S    
C41   C57   S    
O78   H61   S    
C98   H42   S    
C14   C114  A    
C49   H25   S    
O14   Zn7   S    
C123  C163  S    
C154  O71   D    
C44   C60   S    
C57   C98   S    
C6    O18   A    
C45   C61   S    
C19   N12   A    
C102  H46   S    
C10   C110  A    
O7    Zn10  S    
C157  O77   D    
O50   Zn10  S    
C112  C128  A    
C49   C97   S    
C33   O29   A    
O74   H59   S    
C3    O11   A    
C152  O67   D    
C171  O106  S    
C49   C74   S    
C1    O9    A    
C94   H38   S    
C25   C75   S    
C45   H21   S    
C43   H19   S    
C36   O32   A    
C5    O13   A    
O86   H65   S    
C131  C171  S    
C105  C145  S    
C158  O79   D    
O116  H80   S    
C21   N6    A    
O64   H54   S    
C60   C99   S    
O110  H77   S    
C115  C131  A    
C161  O85   D    
O27   Zn10  S    
C128  C168  S    
C174  O112  S    
C49   C65   S    
C167  O98   S    
O21   Zn12  S    
C31   C73   S    
C57   C73   S    
C110  C150  S    
C55   C103  S    
C68   C91   S    
C4    C13   S    
C72   C95   S    
O92   H68   S    
C24   N7    A    
O2    Zn11  S    
C156  O76   S    
C91   H35   S    
O3    Zn10  S    
C26   C76   S    
N12   N15   A    
C89   H33   S    
C80   C96   S    
C28   C78   S    
C120  C136  A    
C52   C68   S    
C30   C80   S    
C163  O90   S    
C68   H12   S    
C43   C84   S    
C31   O39   A    
C58   C97   S    
C127  C139  A    
C96   H40   S    
C176  O116  S    
C127  C167  S    
C125  C165  S    
C51   C99   S    
C38   O34   A    
C35   O51   A    
C39   C81   S    
C50   C73   S    
C120  C160  S    
C8    C9    S    
C14   C118  A    
C146  O55   D    
O11   Zn14  S    
C43   C91   S    
C25   O41   A    
C132  C172  S    
C47   H23   S    
C108  C148  S    
C48   H24   S    
C63   H7    S    
O2    Zn15  S    
O33   Zn8   S    
C105  C121  A    
O34   Zn7   S    
C50   C66   S    
C55   H31   S    
C170  O103  D    
C76   C92   S    
C27   O23   A    
C64   H8    S    
C145  O54   S    
O58   H51   S    
C111  C127  A    
C70   C86   S    
C59   C75   S    
C85   C101  S    
C77   C93   S    
C168  O99   D    
O4    Zn4   S    
O24   Zn13  S    
C37   C87   S    
C27   C77   S    
C121  C161  S    
C58   H2    S    
O19   Zn6   S    
O16   Zn1   S    
O40   Zn8   S    
C75   C91   S    
C71   H15   S    
C166  O95   D    
O10   Zn11  S    
C72   H16   S    
C106  C146  S    
C47   C88   S    
C51   H27   S    
C61   C102  S    
C149  O62   S    
O13   Zn8   S    
C169  O101  D    
C173  O109  D    
C81   C97   S    
O4    Zn9   S    
C148  O60   S    
C155  O73   D    
C111  C151  S    
C130  C170  S    
C47   C95   S    
O36   Zn1   S    
O17   Zn4   S    
O41   Zn1   S    
C162  O87   D    
C13   C113  A    
O108  H76   S    
