data_mof_unit_30140.cif
_audit_creation_date              2013-03-05T16:13:16-0500
_audit_creation_method            fapswitch 2.2
_symmetry_space_group_name_H-M    P1
_symmetry_Int_Tables_number       1
_space_group_crystal_system       triclinic
_cell_length_a                    10.71574
_cell_length_b                    9.83779
_cell_length_c                    14.967663
_cell_angle_alpha                 89.994141
_cell_angle_beta                  90.109012
_cell_angle_gamma                 90.007313
_cell_volume                      1577.87617957

loop_
_atom_site_label
_atom_site_type_symbol
_atom_site_description
_atom_site_fract_x
_atom_site_fract_y
_atom_site_fract_z
_atom_type_partial_charge
O1    O     O_R   0.316770 0.614620 0.499990 -0.624684
O2    O     O_R   0.683230 0.385380 0.500010 -0.626085
O3    O     O_R   0.683230 0.614620 0.500010 -0.627327
O4    O     O_R   0.316770 0.385380 0.499990 -0.627169
N1    N     N_R   0.500000 0.857200 0.500000 -0.092190
N2    N     N_R   0.500000 0.142800 0.500000 -0.101354
C1    C     C_R   0.259866 0.499993 0.499972 0.974207
C2    C     C_R   0.740141 0.500008 0.500142 0.975510
O5    O     O_R   0.499990 0.614660 0.369060 -0.604404
O6    O     O_R   0.500010 0.385340 0.630940 -0.603042
O7    O     O_R   0.500010 0.614660 0.630940 -0.601507
O8    O     O_R   0.499990 0.385340 0.369060 -0.600886
C3    C     C_R   0.499874 0.499993 0.327965 1.012836
C4    C     C_R   0.499964 0.499975 0.672044 1.010990
Zn1   Zn    Zn3+2 0.500000 0.653120 0.500000 1.029340
Zn2   Zn    Zn3+2 0.500000 0.346880 0.500000 1.025671
H1    H     H_    0.643046 0.126573 0.597503 0.169327
H2    H     H_    0.356903 0.873470 0.402547 0.142307
H3    H     H_    0.356960 0.126567 0.402496 0.171924
H4    H     H_    0.643079 0.873477 0.597463 0.145844
C5    C     C_R   0.579510 0.071979 0.554186 -0.044093
C6    C     C_R   0.420474 0.928042 0.445833 -0.035149
C7    C     C_R   0.420489 0.071974 0.445816 -0.043723
C8    C     C_R   0.579519 0.928048 0.554170 -0.035506
C9    C     C_R   0.063955 0.378292 0.515733 -0.129090
C10   C     C_R   0.936081 0.621745 0.484575 -0.116538
C11   C     C_R   0.936145 0.378314 0.515838 -0.112391
C12   C     C_R   0.063886 0.621708 0.484426 -0.125844
C13   C     C_R   0.591364 0.571423 0.092982 -0.185007
C14   C     C_R   0.590307 0.425693 0.907127 -0.181991
C15   C     C_R   0.408096 0.572612 0.906816 -0.185075
C16   C     C_R   0.407150 0.427466 0.093120 -0.181606
H5    H     H_    0.662667 0.625255 0.055784 0.199292
H6    H     H_    0.660826 0.370462 0.944390 0.199931
H7    H     H_    0.337407 0.627644 0.943840 0.199024
H8    H     H_    0.335739 0.373343 0.056027 0.199881
C17   C     C_R   0.593527 0.571737 0.185614 0.271579
C18   C     C_R   0.592575 0.426026 0.814503 0.274486
C19   C     C_R   0.406426 0.572999 0.814176 0.268848
C20   C     C_R   0.405384 0.427730 0.185767 0.270603
C21   C     C_R   0.499548 0.499907 0.232039 -0.287499
C22   C     C_R   0.499724 0.499801 0.767985 -0.287696
H9    H     H_    0.112643 0.283670 0.528401 0.166198
H10   H     H_    0.887398 0.716360 0.471865 0.176160
H11   H     H_    0.887510 0.283724 0.528640 0.171457
H12   H     H_    0.112511 0.716307 0.471648 0.161980
C23   C     C_R   0.499186 0.499281 0.047839 0.006900
C24   C     C_R   0.499087 0.499029 0.952185 0.006970
C25   C     C_R   0.872595 0.500031 0.500223 -0.000120
C26   C     C_R   0.127428 0.499987 0.500021 0.018734
N3    N     N_R   0.693324 0.641105 0.231089 0.222236
O9    O     O_R   0.751142 0.582889 0.297300 -0.408325
O10   O     O_R   0.739280 0.752602 0.197860 -0.348791
N4    N     N_R   0.691265 0.355087 0.769127 0.213975
O11   O     O_R   0.750287 0.412755 0.703401 -0.420733
O12   O     O_R   0.734873 0.242064 0.801871 -0.362053
N5    N     N_R   0.307839 0.644000 0.768455 0.223670
O13   O     O_R   0.249268 0.586599 0.702267 -0.403141
O14   O     O_R   0.263592 0.756482 0.801427 -0.346463
N6    N     N_R   0.306018 0.358244 0.231408 0.214802
O15   O     O_R   0.248534 0.416402 0.297634 -0.415972
O16   O     O_R   0.260334 0.246313 0.198510 -0.359233

loop_
_geom_bond_atom_site_label_1
_geom_bond_atom_site_label_2
_geom_bond_distance
_ccdc_geom_bond_type
O4    Zn2   1.999690 S    
H3    C7    1.081972 S    
O1    Zn1   1.999595 S    
C9    C11   1.369583 A    
H2    C6    1.081826 S    
O2    Zn2   1.999595 S    
C10   C12   1.369527 A    
C23   C24   1.431716 S    
C18   N4    1.438655 S    
C4    C22   1.436025 S    
C11   H11   1.083728 S    
C3    C21   1.435781 S    
O5    Zn1   1.996093 S    
C10   H10   1.083719 S    
O6    Zn2   1.996090 S    
C10   C25   1.397051 A    
C12   H12   1.083694 S    
N5    O13   1.300740 A    
N1    C8    1.366242 A    
O7    Zn1   1.996014 S    
C13   C23   1.390430 A    
O4    C1    1.281926 A    
C20   N6    1.438825 S    
N2    C7    1.366195 A    
C16   H8    1.084273 S    
C14   C24   1.390552 A    
C9    H9    1.083685 S    
C16   C23   1.390473 A    
C15   C19   1.386692 A    
C18   C22   1.413844 A    
C19   C22   1.413856 A    
N4    O12   1.301541 A    
C15   C24   1.390458 A    
C16   C20   1.386880 A    
C17   C21   1.413769 A    
O8    Zn2   1.996017 S    
C17   N3    1.438656 S    
O7    C4    1.285032 A    
C15   H7    1.084325 S    
N1    Zn1   2.007696 S    
N5    O14   1.301537 A    
C14   H6    1.084327 S    
N2    Zn2   2.007696 S    
N3    O9    1.300631 A    
C19   N5    1.438612 S    
C13   H5    1.084297 S    
O3    Zn1   1.999690 S    
O8    C3    1.284696 A    
C14   C18   1.386628 A    
N6    O16   1.301421 A    
O3    C2    1.281955 A    
O6    C4    1.284709 A    
C5    C8    1.415966 A    
C13   C17   1.386647 A    
O5    C3    1.284920 A    
N4    O11   1.300692 A    
C20   C21   1.413955 A    
O2    C2    1.281959 A    
O1    C1    1.281907 A    
N2    C5    1.366206 A    
C12   C26   1.396989 A    
C2    C25   1.419339 S    
H4    C8    1.081814 S    
C6    C7    1.415967 A    
C9    C26   1.396992 A    
N1    C6    1.366256 A    
C11   C25   1.397051 A    
C1    C26   1.419181 S    
N6    O15   1.300719 A    
N3    O10   1.301430 A    
H1    C5    1.081980 S    
