data_mof_unit_49865.cif
_audit_creation_date              2013-03-05T16:18:16-0500
_audit_creation_method            fapswitch 2.2
_symmetry_space_group_name_H-M    P1
_symmetry_Int_Tables_number       1
_space_group_crystal_system       triclinic
_cell_length_a                    8.510487
_cell_length_b                    19.123727
_cell_length_c                    22.788609
_cell_angle_alpha                 100.274423
_cell_angle_beta                  89.946942
_cell_angle_gamma                 91.603655
_cell_volume                      3647.96334677

loop_
_atom_site_label
_atom_site_type_symbol
_atom_site_description
_atom_site_fract_x
_atom_site_fract_y
_atom_site_fract_z
_atom_type_partial_charge
P1    P     P_3+3 0.933470 0.664380 0.557030 0.487399
O1    O     O_2   0.108070 0.674980 0.540650 -0.376184
O2    O     O_3   0.861930 0.586170 0.535430 -0.348272
O3    O     O_3   0.366390 0.628250 0.433820 -0.337198
O4    O     O_2   0.275607 0.755738 0.471454 -0.430210
O5    O     O_3   0.934129 0.682336 0.634977 -0.569797
O6    O     O_3   0.377455 0.736676 0.361197 -0.595408
H1    H     H_    0.238689 0.647687 0.333415 0.193058
C1    C     C_3   0.334669 0.690023 0.257835 0.029248
H2    H     H_    0.261039 0.736728 0.258088 0.151311
P2    P     P_3+3 0.383600 0.440030 0.365120 0.528923
P3    P     P_3+3 0.937937 0.583041 0.324271 0.502007
O7    O     O_2   0.211060 0.461230 0.357810 -0.352468
O8    O     O_3   0.958150 0.591500 0.402390 -0.323183
O9    O     O_2   0.067634 0.533187 0.295715 -0.359299
O10   O     O_3   0.377440 0.348493 0.334805 -0.575541
O11   O     O_3   0.984111 0.663973 0.300187 -0.523925
C2    C     C_3   0.898289 0.721581 0.330763 0.681216
H3    H     H_    0.916040 0.726892 0.379840 0.097456
C3    C     C_3   0.956661 0.790688 0.309543 -0.357276
H4    H     H_    0.019741 0.777172 0.266628 0.227685
C4    C     C_3   0.837031 0.377706 0.341801 0.441758
H5    H     H_    0.714956 0.392630 0.354256 0.051703
H6    H     H_    0.919268 0.423164 0.357756 0.149883
C5    C     C_3   0.849250 0.359175 0.274220 -0.903503
H7    H     H_    0.763839 0.315375 0.256682 0.262048
H8    H     H_    0.824027 0.405765 0.253668 0.210566
H9    H     H_    0.970216 0.342031 0.261409 0.292302
Ba1   Ba    Ba6+2 0.157290 0.533910 0.474710 1.615747
C6    C     C_3   0.011333 0.629188 0.657336 0.411546
H10   H     H_    0.122478 0.615425 0.633223 0.112574
H11   H     H_    0.932556 0.581331 0.653424 0.097803
C7    C     C_3   0.049859 0.657205 0.722723 -0.916505
H12   H     H_    0.120322 0.707769 0.726950 0.277435
H13   H     H_    0.119892 0.618607 0.741917 0.225776
H14   H     H_    0.939350 0.666963 0.748699 0.255407
C8    C     C_3   0.365223 0.302928 0.376502 0.883635
H15   H     H_    0.372128 0.330560 0.423713 0.033269
C9    C     C_3   0.493069 0.248184 0.363210 -0.869750
H16   H     H_    0.468720 0.210996 0.320647 0.261076
H17   H     H_    0.501358 0.217152 0.399675 0.229947
H18   H     H_    0.606711 0.274587 0.357663 0.253321
P4    P     P_3+3 0.876840 0.335610 0.442930 0.519821
O12   O     O_2   0.702240 0.324970 0.459330 -0.381411
O13   O     O_3   0.948380 0.413820 0.464520 -0.384893
O14   O     O_3   0.443920 0.371740 0.566130 -0.384459
O15   O     O_3   0.876233 0.317380 0.364927 -0.513974
P5    P     P_3+3 0.868762 0.421848 0.675747 0.420221
O16   O     O_3   0.358830 0.538360 0.571050 -0.394190
O17   O     O_3   0.852160 0.408490 0.597560 -0.387783
O18   O     O_2   0.719187 0.459588 0.700767 -0.417406
O19   O     O_3   0.844212 0.339858 0.699781 -0.555911
Ba2   Ba    Ba6+2 0.652900 0.466090 0.525240 1.567634
P6    P     P_3+3 0.406331 0.717531 0.432735 0.419507
C10   C     C_3   0.347437 0.673208 0.320725 0.290027
H19   H     H_    0.441349 0.634654 0.320906 0.063308
H20   H     H_    0.452215 0.703290 0.241279 0.142785
O20   O     O_3   0.451480 0.461630 0.428900 -0.335661
C11   C     C_3   0.478283 0.684694 0.626575 0.436443
H21   H     H_    0.602941 0.670477 0.617932 0.094243
H22   H     H_    0.408498 0.670850 0.584686 0.113556
C12   C     C_3   0.472250 0.764726 0.647087 -0.997779
H23   H     H_    0.541852 0.780967 0.688735 0.276830
H24   H     H_    0.521952 0.792431 0.612077 0.214531
H25   H     H_    0.348517 0.780627 0.655459 0.265934
P7    P     P_3+3 0.419978 0.558196 0.645891 0.456607
O21   O     O_2   0.599240 0.538720 0.642170 -0.345811
O22   O     O_3   0.415688 0.650145 0.671240 -0.552369
H26   H     H_    0.858330 0.824073 0.299829 0.198344
C13   C     C_3   0.925030 0.286479 0.662066 0.755397
H27   H     H_    0.900774 0.286966 0.614161 0.090252
C14   C     C_3   0.869531 0.213158 0.673427 -1.002791
H28   H     H_    0.746402 0.201803 0.657853 0.261429
H29   H     H_    0.941831 0.170629 0.648108 0.232467
H30   H     H_    0.877708 0.210641 0.721678 0.273218
P8    P     P_3+3 0.409115 0.281449 0.565024 0.401445
C15   C     C_3   0.482399 0.316176 0.676855 0.404381
H31   H     H_    0.379420 0.350150 0.681015 0.050045
O23   O     O_2   0.526346 0.246300 0.518168 -0.422134
O24   O     O_3   0.464756 0.255385 0.632156 -0.556916
H32   H     H_    0.579979 0.348938 0.664368 0.163494
C16   C     C_3   0.516597 0.296613 0.738223 -0.370231
H33   H     H_    0.523781 0.346187 0.772146 0.183319
H34   H     H_    0.631378 0.271502 0.737838 0.243024
C17   C     C_R   0.949944 0.198179 0.470956 -0.240527
H35   H     H_    0.863367 0.176917 0.437324 0.154393
C18   C     C_R   0.988174 0.271934 0.478596 0.368253
C19   C     C_R   0.139823 0.187698 0.546895 -0.342506
H36   H     H_    0.182647 0.164642 0.583397 0.148723
C20   C     C_R   0.208514 0.252931 0.539000 0.283724
C21   C     C_R   0.673478 0.812514 0.455372 -0.347787
H37   H     H_    0.636664 0.834649 0.417435 0.156754
C22   C     C_R   0.599428 0.748783 0.464810 0.308770
C23   C     C_R   0.854956 0.803546 0.534496 -0.318606
H38   H     H_    0.940461 0.824621 0.568591 0.154183
C24   C     C_R   0.815832 0.730189 0.526727 0.294358
C25   C     C_R   0.017701 0.154141 0.508734 0.082072
C26   C     C_R   0.124259 0.297335 0.509726 -0.434245
H39   H     H_    0.168043 0.350955 0.509323 0.158250
C27   C     C_R   0.790626 0.847058 0.495640 0.096008
C28   C     C_R   0.674776 0.706997 0.499053 -0.399149
H40   H     H_    0.622919 0.656601 0.504910 0.186746
C29   C     C_R   0.222089 0.034162 0.536709 -0.178799
C30   C     C_R   0.313044 0.982893 0.555246 -0.131006
C31   C     C_R   0.265365 0.912538 0.540953 -0.089775
C32   C     C_R   0.120988 0.895504 0.513305 -0.153620
C33   C     C_R   0.008143 0.947209 0.510687 0.052636
C34   C     C_R   0.062838 0.020334 0.518907 0.110389
C35   C     C_R   0.848294 0.925524 0.496435 -0.080372
C36   C     C_R   0.746775 0.980493 0.485318 0.108041
C37   C     C_R   0.800415 0.053851 0.494979 0.057999
C38   C     C_R   0.960596 0.075567 0.508449 -0.063768
C39   C     C_R   0.589278 0.966086 0.465387 -0.182920
C40   C     C_R   0.498914 0.017783 0.447439 -0.121626
C41   C     C_R   0.543842 0.088188 0.464506 -0.092397
C42   C     C_R   0.686412 0.105393 0.493799 -0.151114
H41   H     H_    0.286704 0.081450 0.532672 0.145159
H42   H     H_    0.430157 0.996668 0.572974 0.141646
H43   H     H_    0.344760 0.871329 0.547510 0.145890
H44   H     H_    0.096820 0.841447 0.493694 0.188020
H45   H     H_    0.525176 0.917839 0.466934 0.144341
H46   H     H_    0.383186 0.004004 0.428325 0.145011
H47   H     H_    0.462336 0.128686 0.458705 0.156650
H48   H     H_    0.709007 0.159237 0.515373 0.180515
H49   H     H_    0.233617 0.340344 0.055661 0.172274
H50   H     H_    0.144085 0.338637 0.954223 0.170444
C43   C     C_R   0.633694 0.526789 0.335895 0.066854
C44   C     C_R   0.431783 0.542303 0.939309 -0.053011
C45   C     C_R   0.380815 0.540234 0.880171 0.524224
O25   O     O_2   0.423782 0.587948 0.853904 -0.579938
N1    N     N_R   0.281392 0.485535 0.852056 -0.166123
C46   C     C_R   0.229445 0.432617 0.882677 0.513317
O26   O     O_2   0.144182 0.383747 0.857690 -0.602849
C47   C     C_R   0.276295 0.433989 0.942358 -0.044109
C48   C     C_R   0.378525 0.489077 0.970582 -0.016051
C49   C     C_R   0.534354 0.596858 0.967977 -0.111958
C50   C     C_R   0.579358 0.599706 0.027196 -0.104800
C51   C     C_R   0.525472 0.547398 0.059297 -0.053972
C52   C     C_R   0.427651 0.491083 0.030538 -0.011620
C53   C     C_R   0.224516 0.381207 0.974355 -0.121428
C54   C     C_R   0.276170 0.382214 0.032736 -0.107762
C55   C     C_R   0.378816 0.436844 0.061403 -0.044362
C56   C     C_R   0.434340 0.438153 0.120058 0.553075
N2    N     N_R   0.522272 0.496216 0.149960 -0.153469
C57   C     C_R   0.565117 0.551122 0.119812 0.602277
C58   C     C_2   0.082680 0.473644 0.772017 -0.177467
C59   C     C_3   0.038222 0.479690 0.708533 0.197580
C60   C     C_1   0.312120 0.503781 0.691008 0.282238
C61   C     C_2   0.356780 0.496076 0.744938 -0.227184
C62   C     C_2   0.235450 0.483517 0.790089 0.115140
C63   C     C_R   0.713831 0.529325 0.234473 -0.289750
C64   C     C_R   0.746706 0.543244 0.295756 0.129424
C65   C     C_R   0.495898 0.489078 0.315172 0.159287
C66   C     C_R   0.458023 0.479575 0.254328 -0.194959
C67   C     C_R   0.564959 0.501279 0.212885 0.148382
O27   O     O_2   0.405951 0.386892 0.144062 -0.586548
O28   O     O_2   0.634816 0.604396 0.146055 -0.591404
C68   C     C_2   0.178842 0.474823 0.668095 -0.502578
H51   H     H_    0.657690 0.642921 0.047724 0.172130
H52   H     H_    0.803950 0.541459 0.203953 0.220466
H53   H     H_    0.579848 0.637983 0.944790 0.171606
H54   H     H_    0.480125 0.499503 0.756992 0.188296
H55   H     H_    0.989942 0.468110 0.803807 0.171745
H56   H     H_    0.344757 0.455596 0.239923 0.220760
H57   H     H_    0.166058 0.455431 0.620458 0.170493
Cl1   Cl    Cl    0.185726 0.253647 0.362173 -0.659583
Cl2   Cl    Cl    0.251507 0.616714 0.207091 -0.611118
C69   C     C_3   0.099119 0.297476 0.675205 -0.954863
H58   H     H_    0.145858 0.332852 0.645585 0.193471
H59   H     H_    0.117890 0.323971 0.722138 0.279743
H60   H     H_    0.163333 0.247236 0.667298 0.248216
C70   C     C_3   0.395283 0.245529 0.758287 -0.830336
H61   H     H_    0.367927 0.199650 0.722108 0.275044
H62   H     H_    0.443242 0.224516 0.796816 0.250964
H63   H     H_    0.286861 0.273556 0.773655 0.276893
C71   C     C_3   0.723437 0.710178 0.316878 -1.056283
H64   H     H_    0.705791 0.685081 0.269469 0.288703
H65   H     H_    0.674331 0.675839 0.346771 0.240623
H66   H     H_    0.658880 0.760441 0.325732 0.246515
C72   C     C_3   0.061966 0.837949 0.355280 -0.953093
H67   H     H_    0.988105 0.869092 0.389941 0.259681
H68   H     H_    0.141957 0.805991 0.377124 0.312568
H69   H     H_    0.132395 0.875584 0.333333 0.274199
Cl3   Cl    Cl    0.661824 0.556896 0.412176 -0.590453

loop_
_geom_bond_atom_site_label_1
_geom_bond_atom_site_label_2
_geom_bond_distance
_ccdc_geom_bond_type
P7    O22   1.751635 S    
C10   H19   1.102932 S    
C28   H40   1.078617 S    
P2    O7    1.551187 D    
P3    C64   1.845622 S    
C37   C38   1.431323 A    
P8    O23   1.538477 D    
O6    C10   1.404564 S    
C44   C45   1.409625 A    
C43   C65   1.396622 A    
O14   P8    1.739461 S    
C40   C41   1.376567 A    
C3    C72   1.525370 S    
Ba1   O16   2.775128 S    
C17   H35   1.081089 S    
C70   H61   1.111137 S    
C5    H9    1.112090 S    
C48   C52   1.422868 A    
H50   C53   1.085333 S    
C12   H23   1.110728 S    
O1    Ba1   2.885740 S    
O7    Ba1   2.819681 S    
C39   C40   1.386903 A    
P5    O19   1.757821 S    
C44   C49   1.408627 A    
C47   C53   1.407765 A    
C6    H10   1.107840 S    
C11   O22   1.405532 S    
C52   C55   1.406743 A    
C32   C33   1.406363 A    
C51   C57   1.408962 A    
C41   C42   1.388123 A    
P5    C59   1.865373 S    
C7    H14   1.113152 S    
C2    C3    1.554982 S    
C2    H3    1.114843 S    
O2    Ba1   2.978728 S    
C36   C37   1.441919 A    
P6    C22   1.839428 S    
C12   H24   1.110766 S    
C58   C62   1.362037 D    
O12   Ba2   2.886484 S    
P4    Ba2   3.459313 S    
P5    O18   1.539380 D    
C72   H68   1.103257 S    
C46   O26   1.223594 D    
C4    C5    1.521625 S    
P3    O11   1.766256 S    
C63   C64   1.401231 A    
C37   C42   1.405919 A    
C1    C10   1.528349 S    
C23   C27   1.437166 A    
C21   C27   1.421633 A    
P2    O20   1.546261 S    
C1    H2    1.104511 S    
P7    C60   1.819059 S    
O3    Ba1   2.776132 S    
C6    C7    1.523559 S    
C72   H69   1.109555 S    
O10   C8    1.401115 S    
C18   C26   1.388391 A    
O3    P6    1.736057 S    
C19   H36   1.076817 S    
C69   H59   1.108435 S    
C4    O15   1.399544 S    
C50   C51   1.407436 A    
O13   Ba2   2.979651 S    
C27   C35   1.562667 S    
C24   C28   1.381074 A    
C43   Cl3   1.745460 S    
C33   C35   1.431547 A    
C29   H41   1.063198 S    
C14   H30   1.111497 S    
H1    C10   1.096786 S    
C30   C31   1.376339 A    
C70   H62   1.111162 S    
C7    H12   1.112809 S    
C9    H18   1.096133 S    
C30   H42   1.083549 S    
C49   H53   1.085556 S    
C17   C18   1.418593 A    
C16   C70   1.526882 S    
C11   H22   1.111821 S    
O17   Ba2   2.750014 S    
C41   H47   1.079454 S    
O16   P7    1.755941 S    
C50   H51   1.085382 S    
P1    O5    1.747996 S    
O4    P6    1.537469 D    
C1    Cl2   1.780806 S    
C17   C25   1.438642 A    
C53   C54   1.398244 A    
C14   H29   1.110382 S    
C44   C48   1.407746 A    
H49   C54   1.085295 S    
C21   H37   1.078528 S    
C25   C38   1.565179 S    
N2    C57   1.393909 Am   
C5    H7    1.112106 S    
C15   H31   1.099521 S    
C34   C38   1.439159 A    
Ba1   O13   2.840978 S    
P1    O2    1.592785 S    
P4    O12   1.548627 D    
C8    H15   1.111640 S    
C13   C69   1.513233 S    
C43   C64   1.394595 A    
C21   C22   1.406798 A    
C57   O28   1.223501 D    
P2    O10   1.762913 S    
P3    O9    1.545008 D    
C15   H32   1.094161 S    
C33   C34   1.441402 A    
P1    Ba1   3.458701 S    
O11   C2    1.415258 S    
C60   C68   1.314788 D    
C3    H4    1.108171 S    
C23   C24   1.412658 A    
P4    O13   1.592753 S    
C36   C39   1.419384 A    
P2    Ba1   3.428550 S    
C66   C67   1.417592 A    
C29   C34   1.419179 A    
C71   H64   1.109711 S    
O5    C6    1.395387 S    
C19   C20   1.403359 A    
C26   H39   1.082745 S    
C16   H34   1.099843 S    
C4    H6    1.109697 S    
C3    H26   1.112467 S    
O8    Ba1   2.749271 S    
C22   C28   1.382306 A    
N1    C46   1.390256 Am   
C9    H16   1.111551 S    
C13   H27   1.112940 S    
C72   H67   1.107230 S    
C58   C59   1.520722 S    
C31   C32   1.385156 A    
C15   O24   1.407041 S    
C66   H56   1.081382 S    
C69   H58   1.104008 S    
C11   C12   1.520774 S    
C42   H48   1.071195 S    
C12   H25   1.111118 S    
C32   H44   1.064974 S    
C4    H5    1.108385 S    
P8    O24   1.760585 S    
P3    O8    1.766707 S    
C14   H28   1.109800 S    
Ba2   O20   2.774472 S    
C70   H63   1.105207 S    
C8    Cl1   1.771715 S    
C5    H8    1.104077 S    
C58   H55   1.086530 S    
C47   C48   1.410148 A    
C63   C67   1.415594 A    
P4    C18   1.860193 S    
C63   H52   1.082785 S    
C71   H66   1.107559 S    
N2    C67   1.465289 S    
C45   O25   1.224898 D    
C19   C25   1.418994 A    
C8    C9    1.523688 S    
C54   C55   1.409912 A    
C6    H11   1.109807 S    
O2    Ba2   2.841444 S    
C56   O27   1.223255 D    
Ba1   Ba2   4.652589 S    
C15   C16   1.540767 S    
P1    C24   1.856030 S    
O16   Ba2   2.989551 S    
P1    O1    1.548394 D    
O14   Ba2   2.775630 S    
P5    O17   1.759544 S    
C7    H13   1.109808 S    
P7    O21   1.579143 D    
C1    H20   1.107569 S    
C60   C61   1.321065 D    
C23   H38   1.081015 S    
Ba2   O21   2.819786 S    
O19   C13   1.406766 S    
C51   C52   1.407630 A    
P2    C65   1.848636 S    
C40   H46   1.083751 S    
C11   H21   1.111251 S    
C39   H45   1.064687 S    
Ba1   O20   2.990502 S    
C9    H17   1.107290 S    
C46   C47   1.413192 A    
C16   H33   1.111551 S    
C35   C36   1.435939 A    
C29   C30   1.389167 A    
C55   C56   1.413926 A    
C31   H43   1.082560 S    
N1    C62   1.459197 S    
C13   C14   1.532460 S    
C61   H54   1.082562 S    
C69   H60   1.105298 S    
O6    P6    1.752391 S    
C65   C66   1.402538 A    
C61   C62   1.501627 S    
C59   C68   1.504552 S    
P4    O15   1.749338 S    
C20   C26   1.384686 A    
C49   C50   1.394420 A    
C56   N2    1.393497 Am   
C68   H57   1.087296 S    
P8    C20   1.843392 S    
C71   H65   1.101640 S    
C45   N1    1.390340 Am   
C2    C71   1.523205 S    
