data_mof_unit_17411.cif
_audit_creation_date              2012-12-11T14:15:43-0500
_audit_creation_method            fapswitch 2.2
_symmetry_space_group_name_H-M    P1
_symmetry_Int_Tables_number       1
_space_group_crystal_system       triclinic
_cell_length_a                    11.180167
_cell_length_b                    12.744435
_cell_length_c                    23.599713
_cell_angle_alpha                 90.975226
_cell_angle_beta                  96.958352
_cell_angle_gamma                 68.379813
_cell_volume                      3101.6180957

loop_
_atom_site_label
_atom_site_type_symbol
_atom_type_description
_atom_site_fract_x
_atom_site_fract_y
_atom_site_fract_z
_atom_type_partial_charge
C1    C     C_R   0.148742 0.615948 0.428452 0.536115
C2    C     C_2   0.219577 0.205568 0.232797 -0.101987
C3    C     C_2   0.120175 0.197236 0.256979 0.025116
C4    C     C_R   0.754075 0.601133 0.403297 0.536022
C5    C     C_1   0.116087 0.215571 0.317402 -0.044881
C6    C     C_1   0.232423 0.183315 0.173223 -0.053750
C7    C     C_1   0.110842 0.239119 0.366957 -0.021890
C8    C     C_1   0.166128 0.750710 0.123251 -0.009143
C9    C     C_2   0.133425 0.695987 0.226952 -0.118006
C10   C     C_2   0.232715 0.664823 0.269158 -0.124723
C11   C     C_1   0.212751 0.645829 0.327117 -0.053959
C12   C     C_R   0.777696 0.527824 0.308544 -0.098900
C13   C     C_1   0.150912 0.723630 0.169982 -0.053280
C14   C     C_1   0.190247 0.631467 0.374696 -0.007008
C15   C     C_1   0.629926 0.753272 0.865681 0.048352
C16   C     C_R   0.100839 0.282426 0.423360 0.535918
C17   C     C_2   0.705802 0.694156 0.763946 -0.096402
C18   C     C_2   0.617190 0.715854 0.717686 -0.076549
C19   C     C_1   0.655651 0.676267 0.662565 -0.072344
C20   C     C_1   0.667349 0.728466 0.819642 0.002219
C21   C     C_1   0.692852 0.642063 0.617397 -0.020283
C22   C     C_R   0.194360 0.181867 0.855102 -0.000626
C23   C     C_R   0.656439 0.729581 0.317489 -0.031339
C24   C     C_R   0.103771 0.243326 0.643399 -0.026392
C25   C     C_R   0.058002 0.128828 0.711539 0.360625
C26   C     C_R   0.054935 0.160805 0.655101 -0.160552
C27   C     C_R   0.147369 0.299904 0.687738 0.338999
C28   C     C_R   0.149150 0.616047 0.590480 0.560727
C29   C     C_R   0.153229 0.267381 0.744118 -0.006055
C30   C     C_R   0.110097 0.179987 0.756133 -0.005717
C31   C     C_R   0.126924 0.140936 0.812081 -0.098370
C32   C     C_R   0.232689 0.273224 0.844217 -0.027109
C33   C     C_R   0.207527 0.317361 0.788223 -0.083174
C34   C     C_R   0.673085 0.747016 0.259912 0.002759
C35   C     C_R   0.141044 0.749918 0.850351 -0.001518
C36   C     C_R   0.184333 0.632117 0.649418 0.018488
C37   C     C_R   0.333733 0.605130 0.735033 0.391684
C38   C     C_R   0.312752 0.588491 0.676644 0.000441
C39   C     C_R   0.079646 0.683539 0.680298 -0.097501
C40   C     C_R   0.750588 0.602479 0.566158 0.547781
C41   C     C_R   0.100087 0.700712 0.737345 -0.052959
C42   C     C_R   0.228023 0.664177 0.764845 0.051932
C43   C     C_R   0.247793 0.692255 0.820876 0.372859
C44   C     C_R   0.014323 0.781734 0.823419 -0.171680
C45   C     C_R   0.721794 0.649906 0.225970 0.029751
C46   C     C_R   0.993888 0.758120 0.766509 -0.120813
C47   C     C_R   0.266415 0.110109 0.069317 0.537739
C48   C     C_R   0.597119 0.777105 0.081811 0.536514
C49   C     C_R   0.189522 0.788069 0.069743 0.539661
C50   C     C_R   0.240672 0.115175 0.908049 0.539506
C51   C     C_R   0.573636 0.776028 0.918256 0.574959
C52   C     C_R   0.099308 0.281278 0.585631 0.580886
C53   C     C_R   0.166730 0.787836 0.906505 0.564267
C54   C     C_R   0.654733 0.767308 0.141029 -0.025677
C55   C     C_R   0.722142 0.620762 0.342159 -0.023769
C56   C     C_R   0.712972 0.661382 0.167095 -0.100879
C57   C     C_R   0.772538 0.541479 0.250630 0.345550
C58   C     C_3   0.306252 0.315937 0.892019 -0.258196
C59   C     C_3   0.327098 0.425241 0.879736 -0.307023
C60   C     C_3   0.398703 0.457091 0.932535 -0.391645
C61   C     C_3   0.428064 0.528770 0.644825 -0.222223
C62   C     C_3   0.475321 0.400183 0.653196 -0.258805
C63   C     C_3   0.596661 0.341340 0.624166 -0.440519
C64   C     C_3   0.628809 0.961739 0.267215 -0.264270
C65   C     C_3   0.707509 0.027445 0.247445 -0.304878
C66   C     C_3   0.697611 0.127567 0.285604 -0.443385
C67   C     C_R   0.626257 0.864011 0.174085 -0.122088
C68   C     C_3   0.555499 0.817173 0.349641 -0.262813
C69   C     C_3   0.461159 0.770811 0.372829 -0.296793
C70   C     C_3   0.342432 0.865877 0.390493 -0.448626
C71   C     C_3   0.007862 0.178024 0.222005 -0.202336
C72   C     C_3   0.036428 0.051954 0.213152 -0.319730
C73   C     C_3   0.946298 0.035090 0.162857 -0.443049
C74   C     C_R   0.642471 0.855436 0.233821 -0.007232
C75   C     C_1   0.244323 0.156391 0.124467 -0.010428
Cr1   Cr    Cr6+3 0.189770 0.415650 0.511620 1.036896
Cr2   Cr    Cr6+3 0.930400 0.667320 0.496770 1.024744
Cr3   Cr    Cr6+3 0.879870 0.417010 0.491650 1.016238
Cr4   Cr    Cr6+3 0.149500 0.973980 0.985330 1.026269
Cr5   Cr    Cr6+3 0.457000 0.976510 0.994660 1.016561
Cr6   Cr    Cr6+3 0.411170 0.724270 0.995270 1.044617
F1    F     F_    0.014461 0.045674 0.722400 -0.638648
F2    F     F_    0.183953 0.386969 0.675823 -0.661420
F3    F     F_    0.371060 0.673113 0.844779 -0.584385
F4    F     F_    0.457033 0.564395 0.762197 -0.607618
F5    F     F_    0.822794 0.448816 0.219100 -0.676211
H1    H     H_    0.739821 0.587452 0.140880 0.188544
H2    H     H_    0.895804 0.787862 0.744792 0.135619
H3    H     H_    0.980317 0.710732 0.659732 0.152530
H4    H     H_    0.827743 0.443649 0.327411 0.158852
H5    H     H_    0.296701 0.223384 0.258727 0.114690
H6    H     H_    0.329211 0.655531 0.260430 0.133115
H7    H     H_    0.334999 0.483772 0.966937 0.140413
H8    H     H_    0.487990 0.384519 0.948533 0.137844
H9    H     H_    0.428590 0.527143 0.921718 0.243990
H10   H     H_    0.387196 0.413072 0.844163 0.206182
H11   H     H_    0.231976 0.494667 0.867995 0.159735
H12   H     H_    0.036594 0.705778 0.235533 0.141720
H13   H     H_    0.253466 0.328758 0.930160 0.151836
H14   H     H_    0.404045 0.249773 0.902760 0.184890
H15   H     H_    0.575911 0.361689 0.577567 0.153792
H16   H     H_    0.676514 0.368428 0.642686 0.182523
H17   H     H_    0.628603 0.248498 0.630706 0.158896
H18   H     H_    0.498171 0.376754 0.699499 0.214069
H19   H     H_    0.398366 0.369575 0.634839 0.235532
H20   H     H_    0.405616 0.552387 0.598602 0.125648
H21   H     H_    0.507927 0.556926 0.661072 0.188105
H22   H     H_    0.594416 0.182640 0.286781 0.158611
H23   H     H_    0.515151 0.762169 0.721090 0.165967
H24   H     H_    0.743897 0.097538 0.329697 0.153101
H25   H     H_    0.747416 0.178494 0.268464 0.154131
H26   H     H_    0.810908 0.970696 0.249006 0.171353
H27   H     H_    0.669866 0.060794 0.203078 0.159917
H28   H     H_    0.524753 0.018007 0.262828 0.136066
H29   H     H_    0.665138 0.939990 0.312905 0.153540
H30   H     H_    0.372724 0.917933 0.423161 0.157029
H31   H     H_    0.285823 0.920538 0.352845 0.154723
H32   H     H_    0.279047 0.829366 0.408934 0.152850
H33   H     H_    0.428538 0.721589 0.339522 0.168645
H34   H     H_    0.807241 0.645354 0.760628 0.126420
H35   H     H_    0.509496 0.714291 0.410758 0.168631
H36   H     H_    0.604950 0.849510 0.385512 0.148445
H37   H     H_    0.493483 0.888553 0.320541 0.148051
H38   H     H_    0.844323 0.090667 0.165920 0.150422
H39   H     H_    0.974219 0.055670 0.122084 0.184944
H40   H     H_    0.953133 0.946043 0.162511 0.155219
H41   H     H_    0.138229 0.007516 0.204385 0.178392
H42   H     H_    0.023136 0.013319 0.252637 0.157641
H43   H     H_    0.919571 0.215063 0.243691 0.174072
H44   H     H_    0.985478 0.224250 0.180120 0.194760
H45   H     H_    0.099006 0.070627 0.821344 0.195351
H46   H     H_    0.237251 0.385719 0.777933 0.172488
H47   H     H_    0.016592 0.120385 0.620665 0.142119
H48   H     H_    0.584500 0.946815 0.153271 0.143500
H49   H     H_    0.932279 0.828214 0.845679 0.140851
O1    O     O_R   0.196340 0.303200 0.448500 -0.513463
O2    O     O_R   0.555390 0.700940 0.062700 -0.515785
O3    O     O_R   0.295020 0.731920 0.049950 -0.500301
O4    O     O_R   0.199310 0.519670 0.454880 -0.501180
O5    O     O_R   0.094290 0.884230 0.921550 -0.518335
O6    O     O_R   0.168980 0.069410 0.926940 -0.499910
O7    O     O_R   0.358400 0.089990 0.927950 -0.521814
O8    O     O_R   0.544850 0.873850 0.939920 -0.504833
O9    O     O_R   0.536020 0.701900 0.936430 -0.455276
O10   O     O_R   0.277070 0.732810 0.932890 -0.460549
O11   O     O_3   0.339220 0.891590 0.991750 -0.248726
O12   O     O_R   0.811960 0.658090 0.547150 -0.495566
O13   O     O_R   0.045660 0.691380 0.441680 -0.512239
O14   O     O_R   0.811930 0.659460 0.430950 -0.496039
O15   O     O_R   0.757900 0.507620 0.421760 -0.528328
O16   O     O_R   0.988630 0.322990 0.439840 -0.504534
O17   O     O_R   0.196380 0.301720 0.573850 -0.470374
O18   O     O_R   0.199350 0.518300 0.571080 -0.472594
O19   O     O_R   0.045700 0.689900 0.567030 -0.525130
O20   O     O_R   0.757930 0.506140 0.547110 -0.513454
O21   O     O_R   0.988670 0.321620 0.556040 -0.504945
O22   O     O_3   0.000020 0.499990 0.500010 -0.246916
O23   O     O_R   0.113660 0.883270 0.047820 -0.521426
O24   O     O_R   0.186930 0.068530 0.043990 -0.499893
O25   O     O_R   0.377770 0.089040 0.054220 -0.520162
O26   O     O_R   0.562800 0.872960 0.056970 -0.508635

loop_
_geom_bond_atom_site_label_1
_geom_bond_atom_site_label_2
_ccdc_geom_bond_type
C24   C52   S    
C9    H12   S    
C35   C53   S    
C53   O5    A    
C41   C42   A    
C3    C71   S    
C18   H23   S    
C32   C58   S    
C63   H15   S    
Cr4   O23   S    
Cr1   O1    S    
C6    C75   T    
C39   C41   A    
C62   H19   S    
C47   O24   A    
C51   O9    A    
Cr6   O2    S    
C4    O14   A    
C45   C57   A    
C37   C38   A    
C22   C32   A    
C48   O2    A    
C72   H42   S    
C37   F4    S    
Cr4   O6    S    
C19   C21   T    
C24   C26   A    
Cr4   O24   S    
C30   C31   A    
C11   C14   T    
Cr3   O20   S    
Cr5   O25   S    
C27   C29   A    
Cr1   O17   S    
C70   H31   S    
C73   H40   S    
C29   C33   A    
Cr1   O18   S    
C17   C20   S    
C57   F5    S    
C18   C19   S    
C37   C42   A    
C9    C13   S    
C31   H45   S    
C17   H34   S    
Cr6   O9    S    
C45   C56   A    
C68   C69   S    
C41   C46   A    
C24   C27   A    
C40   O20   A    
C15   C51   S    
C66   H25   S    
C29   C30   A    
C35   C43   A    
C9    C10   D    
Cr2   O12   S    
C62   H18   S    
C1    O4    A    
C50   O6    A    
C22   C50   S    
C38   C61   S    
C60   H7    S    
C73   H38   S    
C44   H49   S    
Cr5   O11   S    
Cr4   O5    S    
C10   H6    S    
C59   C60   S    
C64   H29   S    
C49   O3    A    
C28   O19   A    
C43   F3    S    
C69   C70   S    
C63   H16   S    
C68   H37   S    
Cr6   O3    S    
C44   C46   A    
Cr3   O16   S    
Cr4   O11   S    
C46   H2    S    
C47   O25   A    
C15   C20   T    
C54   C56   A    
Cr1   O22   S    
C64   H28   S    
C22   C31   A    
C72   H41   S    
C67   H48   S    
C58   H14   S    
C63   H17   S    
Cr2   O14   S    
C5    C7    T    
C56   H1    S    
C48   O26   A    
C70   H30   S    
C58   C59   S    
C69   H33   S    
C2    C6    S    
C23   C68   S    
C48   C54   S    
C60   H9    S    
C65   H26   S    
C62   C63   S    
C35   C44   A    
Cr2   O19   S    
C71   H43   S    
Cr3   O22   S    
C69   H35   S    
C52   O17   A    
Cr5   O8    S    
C53   O10   A    
C17   C18   D    
C67   C74   A    
C66   H24   S    
C61   H20   S    
Cr2   O13   S    
C34   C45   A    
C34   C74   A    
C12   C57   A    
C33   H46   S    
C7    C16   S    
C65   C66   S    
Cr5   O7    S    
C4    C55   S    
C25   F1    S    
C59   H11   S    
C49   O23   A    
C42   C43   A    
C68   H36   S    
C2    H5    S    
C16   O1    A    
Cr3   O15   S    
Cr1   O4    S    
C12   H4    S    
C25   C30   A    
C23   C34   A    
C40   O12   A    
C65   H27   S    
C36   C39   A    
C58   H13   S    
C66   H22   S    
C72   C73   S    
C3    C5    S    
C23   C55   A    
C54   C67   A    
C51   O8    A    
C52   O21   A    
C4    O15   A    
Cr6   O10   S    
C64   C65   S    
C27   F2    S    
C2    C3    D    
C25   C26   A    
C47   C75   S    
C71   C72   S    
C26   H47   S    
C32   C33   A    
C71   H44   S    
Cr3   O21   S    
C28   O18   A    
C21   C40   S    
C70   H32   S    
C73   H39   S    
C36   C38   A    
C16   O16   A    
C61   C62   S    
C61   H21   S    
Cr5   O26   S    
C12   C55   A    
C10   C11   S    
C8    C13   T    
C28   C36   S    
Cr6   O11   S    
C59   H10   S    
C64   C74   S    
C1    O13   A    
C1    C14   S    
C8    C49   S    
C39   H3    S    
C50   O7    A    
Cr2   O22   S    
C60   H8    S    
