data_mof_unit_29261.cif
_audit_creation_date              2013-03-05T15:58:35-0500
_audit_creation_method            fapswitch 2.2
_symmetry_space_group_name_H-M    P1
_symmetry_Int_Tables_number       1
_space_group_crystal_system       triclinic
_cell_length_a                    15.2509
_cell_length_b                    13.954011
_cell_length_c                    10.684684
_cell_angle_alpha                 90.42561
_cell_angle_beta                  84.01484
_cell_angle_gamma                 89.26155
_cell_volume                      2261.15016864

loop_
_atom_site_label
_atom_site_type_symbol
_atom_site_description
_atom_site_fract_x
_atom_site_fract_y
_atom_site_fract_z
_atom_type_partial_charge
O1    O     O_R   0.370260 0.582280 0.500030 -0.572978
O2    O     O_R   0.629740 0.417720 0.499970 -0.571031
O3    O     O_R   0.629740 0.582280 0.499970 -0.586345
O4    O     O_R   0.370260 0.417720 0.500030 -0.592050
C1    C     C_R   0.328373 0.500554 0.507804 0.832568
C2    C     C_R   0.671271 0.499366 0.491493 0.936668
O5    O     O_R   0.499980 0.582260 0.316850 -0.591152
O6    O     O_R   0.500020 0.417740 0.683150 -0.602444
O7    O     O_R   0.500020 0.582260 0.683150 -0.590701
O8    O     O_R   0.499980 0.417740 0.316850 -0.588104
C3    C     C_R   0.499198 0.500012 0.259605 0.848152
C4    C     C_R   0.503951 0.500035 0.739821 0.735934
Cu1   Cu    Cu3+1 0.500000 0.597420 0.500000 0.958374
Cu2   Cu    Cu3+1 0.500000 0.402580 0.500000 0.949980
C5    C     C_3   0.431607 0.552234 0.049868 -0.154414
C6    C     C_3   0.571079 0.448249 0.949585 -0.186792
C7    C     C_3   0.507554 0.590391 0.957516 -0.141375
C8    C     C_3   0.495091 0.410064 0.041841 -0.167328
C9    C     C_3   0.426804 0.461233 0.967604 -0.123029
C10   C     C_3   0.575810 0.539320 0.031768 -0.132797
H1    H     H_    0.365781 0.426807 0.942825 0.199481
H2    H     H_    0.636497 0.574308 0.056719 0.219198
H3    H     H_    0.375561 0.598523 0.088079 0.160513
H4    H     H_    0.627191 0.402072 0.911378 0.151758
H5    H     H_    0.512694 0.664672 0.921202 0.154773
H6    H     H_    0.489988 0.335762 0.078089 0.154884
C11   C     C_3   0.502857 0.499610 0.877179 0.036154
C12   C     C_3   0.499893 0.500784 0.122241 0.005298
C13   C     C_R   0.824295 0.518386 0.378920 0.322561
C14   C     C_R   0.173509 0.478411 0.616462 0.291077
C15   C     C_R   0.768301 0.497309 0.489987 -0.190747
C16   C     C_R   0.230928 0.501792 0.507232 -0.161833
C17   C     C_R   0.805574 0.471315 0.601000 0.067510
C18   C     C_R   0.194394 0.525402 0.394318 0.079305
C19   C     C_R   0.898022 0.463327 0.599264 0.105136
C20   C     C_R   0.101698 0.529098 0.392721 0.096281
C21   C     C_R   0.953261 0.495376 0.493924 -0.002109
C22   C     C_R   0.046189 0.496364 0.497263 0.000828
C23   C     C_R   0.916094 0.526404 0.385478 -0.011155
C24   C     C_R   0.082908 0.465605 0.605991 -0.000344
C25   C     C_R   0.936795 0.424574 0.701470 -0.193043
C26   C     C_R   0.062908 0.564184 0.288158 -0.193170
C27   C     C_R   0.027281 0.424352 0.703740 -0.090886
C28   C     C_R   0.972220 0.563852 0.285321 -0.086117
H7    H     H_    0.897935 0.393485 0.781076 0.173310
H8    H     H_    0.101819 0.593579 0.207419 0.179912
H9    H     H_    0.052755 0.391198 0.783799 0.218288
H10   H     H_    0.947050 0.594990 0.203776 0.223646
C29   C     C_R   0.434739 0.796258 0.572149 0.235939
C30   C     C_R   0.565303 0.203671 0.428021 0.263386
C31   C     C_R   0.565005 0.793463 0.427142 0.231279
C32   C     C_R   0.434882 0.206520 0.572734 0.243286
N1    N     N_R   0.500000 0.743810 0.500000 -0.187278
N2    N     N_R   0.500000 0.256190 0.500000 -0.185710
C33   C     C_R   0.568319 0.895838 0.431789 0.002735
C34   C     C_R   0.431581 0.104125 0.568122 -0.000948
C35   C     C_R   0.431483 0.898606 0.567748 0.006310
C36   C     C_R   0.568485 0.101330 0.432328 0.005920
C37   C     C_R   0.499941 0.948489 0.499902 0.043051
C38   C     C_R   0.499989 0.051463 0.500095 0.036047
C39   C     C_R   0.638296 0.947360 0.368303 -0.193240
C40   C     C_R   0.361590 0.052582 0.631571 -0.189562
C41   C     C_R   0.361529 0.952788 0.631348 -0.190048
C42   C     C_R   0.638415 0.047140 0.368667 -0.188311
H11   H     H_    0.694716 0.911745 0.317663 0.158381
H12   H     H_    0.305121 0.088190 0.682096 0.158429
H13   H     H_    0.305029 0.919259 0.681689 0.157314
H14   H     H_    0.694932 0.080648 0.318339 0.157365
S1    S     S_3+6 0.783843 0.521710 0.228392 -0.071426
O9    O     O_2   0.775865 0.623827 0.187272 -0.333274
O10   O     O_2   0.847762 0.469451 0.133927 -0.311872
O11   O     O_3   0.686010 0.468868 0.230501 -0.616816
H15   H     H_    0.693042 0.420579 0.161622 0.358968
S2    S     S_3+6 0.207846 0.480826 0.770947 -0.048453
O12   O     O_2   0.137806 0.528335 0.860854 -0.251395
O13   O     O_2   0.221994 0.380158 0.814456 -0.362756
O14   O     O_3   0.299361 0.543122 0.777048 -0.560974
H16   H     H_    0.344875 0.495932 0.746904 0.323823
C43   C     C_3   0.747835 0.453502 0.722390 -0.829046
H17   H     H_    0.772831 0.493728 0.801156 0.249509
H18   H     H_    0.679432 0.478972 0.719753 0.216168
H19   H     H_    0.747239 0.375639 0.743016 0.227667
C44   C     C_3   0.253077 0.546060 0.274705 -0.816986
H20   H     H_    0.322933 0.528024 0.280970 0.214795
H21   H     H_    0.233076 0.501786 0.195919 0.248976
H22   H     H_    0.248084 0.623262 0.251669 0.229052
C45   C     C_3   0.365750 0.748171 0.660585 -0.698572
H23   H     H_    0.379544 0.673457 0.675612 0.304586
H24   H     H_    0.363078 0.781240 0.755814 0.190498
H25   H     H_    0.300245 0.754455 0.624459 0.217041
C46   C     C_3   0.634412 0.251693 0.339839 -0.767301
H26   H     H_    0.620529 0.326350 0.325188 0.300941
H27   H     H_    0.699875 0.245348 0.376080 0.219677
H28   H     H_    0.637124 0.218828 0.244487 0.185143
C47   C     C_3   0.633846 0.742625 0.337615 -0.665627
H29   H     H_    0.622427 0.667263 0.320985 0.299023
H30   H     H_    0.635614 0.775046 0.242766 0.192875
H31   H     H_    0.699498 0.748855 0.372975 0.217211
C48   C     C_3   0.365923 0.257324 0.662205 -0.686720
H32   H     H_    0.377537 0.332540 0.679003 0.274151
H33   H     H_    0.300296 0.251335 0.626705 0.219203
H34   H     H_    0.363971 0.224831 0.757026 0.195926

loop_
_geom_bond_atom_site_label_1
_geom_bond_atom_site_label_2
_geom_bond_distance
_ccdc_geom_bond_type
C14   C16   1.426630 A    
C45   H23   1.077432 S    
C33   C37   1.403905 A    
C39   C42   1.392332 A    
C29   C45   1.506791 S    
C20   C26   1.405846 A    
C47   H29   1.084518 S    
C8    H6    1.110313 S    
O3    C2    1.309796 A    
C47   H31   1.110610 S    
O14   H16   0.978579 S    
C5    C9    1.545857 S    
C30   N2    1.390498 A    
S2    O13   1.502903 D    
O1    C1    1.313248 A    
C42   H14   1.080825 S    
C19   C21   1.412787 A    
C14   S2    1.783207 S    
C35   C37   1.403015 A    
C36   C38   1.402925 A    
C7    C10   1.543495 S    
C29   C35   1.429684 A    
C8    C9    1.544373 S    
C26   H8    1.081372 S    
S1    O10   1.505435 D    
O7    Cu1   1.969892 S    
C24   C27   1.406632 A    
C44   H20   1.100484 S    
S2    O14   1.660487 S    
C48   H34   1.110763 S    
C15   C17   1.415389 A    
C9    C11   1.534777 S    
C13   S1    1.782365 S    
O3    Cu1   1.987155 S    
O6    C4    1.299208 A    
C1    C16   1.486642 S    
C6    C11   1.533492 S    
C5    H3    1.106144 S    
C2    C15   1.478114 S    
C37   C38   1.436896 A    
C6    H4    1.105979 S    
Cu1   Cu2   2.718798 S    
C13   C15   1.422796 A    
C25   C27   1.382702 A    
O2    C2    1.309786 A    
C26   C28   1.386621 A    
C19   C25   1.403504 A    
C32   N2    1.391178 A    
C35   C41   1.411370 A    
Cu1   N1    2.042728 S    
C36   C42   1.411429 A    
C41   H13   1.080830 S    
S2    O12   1.503863 D    
C40   H12   1.080750 S    
C4    C11   1.466040 S    
C30   C36   1.429523 A    
C8    C12   1.531412 S    
O8    Cu2   1.969894 S    
C46   H26   1.076226 S    
C43   H18   1.100965 S    
C17   C43   1.513822 S    
C10   C12   1.534430 S    
C34   C38   1.403891 A    
C31   N1    1.390565 A    
C7    C11   1.531537 S    
S1    O11   1.670929 S    
O5    C3    1.297260 A    
C21   C22   1.421629 A    
C46   H27   1.110567 S    
C48   H32   1.083416 S    
O5    Cu1   1.966770 S    
C6    C10   1.546026 S    
C13   C23   1.414864 A    
C40   C41   1.392518 A    
C14   C24   1.411376 A    
Cu2   N2    2.042728 S    
C10   H2    1.107790 S    
C45   H24   1.110752 S    
C34   C40   1.411538 A    
O1    Cu1   1.992571 S    
C18   C44   1.513609 S    
C5    C7    1.544048 S    
O6    Cu2   1.966769 S    
C44   H21   1.110867 S    
O11   H15   0.990696 S    
C43   H19   1.110193 S    
C47   H30   1.110794 S    
C23   C28   1.407045 A    
C32   C48   1.511130 S    
C7    H5    1.110318 S    
C20   C22   1.411859 A    
C21   C23   1.410492 A    
C46   H28   1.110759 S    
C22   C24   1.408653 A    
C5    C12   1.534559 S    
C32   C34   1.431020 A    
C3    C12   1.466748 S    
C29   N1    1.390439 A    
C33   C39   1.411382 A    
C17   C19   1.411072 A    
C18   C20   1.415849 A    
C31   C33   1.430763 A    
O4    Cu2   1.987156 S    
S1    O9    1.501416 D    
O2    Cu2   1.992571 S    
O7    C4    1.304916 A    
O8    C3    1.305299 A    
C43   H17   1.110896 S    
C39   H11   1.080754 S    
C30   C46   1.506031 S    
O4    C1    1.311299 A    
C44   H22   1.110227 S    
C6    C8    1.544044 S    
C45   H25   1.110569 S    
C31   C47   1.510563 S    
C25   H7    1.081605 S    
C27   H9    1.080383 S    
C48   H33   1.110616 S    
C28   H10   1.079976 S    
C16   C18   1.419816 A    
C9    H1    1.108158 S    
