data_mof_unit_22484.cif
_audit_creation_date              2012-12-11T15:17:53-0500
_audit_creation_method            fapswitch 2.2
_symmetry_space_group_name_H-M    P1
_symmetry_Int_Tables_number       1
_space_group_crystal_system       triclinic
_cell_length_a                    15.678333
_cell_length_b                    15.683337
_cell_length_c                    34.336253
_cell_angle_alpha                 90.026507
_cell_angle_beta                  89.860544
_cell_angle_gamma                 119.807478
_cell_volume                      7325.87832309

loop_
_atom_site_label
_atom_site_type_symbol
_atom_type_description
_atom_site_fract_x
_atom_site_fract_y
_atom_site_fract_z
_atom_type_partial_charge
C1    C     C_R   0.578223 0.441565 0.554960 0.584720
C2    C     C_R   0.558438 0.136655 0.554981 0.579145
C3    C     C_R   0.863274 0.421568 0.554979 0.586629
C4    C     C_R   0.441949 0.577968 0.054870 0.554337
C5    C     C_R   0.136538 0.558588 0.055205 0.554623
C6    C     C_R   0.421917 0.863825 0.054944 0.555971
C7    C     C_R   0.996776 0.492815 0.711712 0.425729
C8    C     C_R   0.499707 0.502051 0.710973 0.426370
C9    C     C_R   0.497589 0.992571 0.710095 0.426986
C10   C     C_R   0.490414 0.975549 0.214058 0.428602
C11   C     C_R   0.493494 0.521004 0.214180 0.430304
C12   C     C_R   0.031374 0.525133 0.215268 0.427280
C13   C     C_R   0.006814 0.431510 0.853443 -0.169592
C14   C     C_R   0.562807 0.574220 0.851326 -0.176638
C15   C     C_R   0.418824 0.978987 0.850167 -0.174706
C16   C     C_R   0.435927 0.979274 0.357665 -0.169699
C17   C     C_R   0.574020 0.576989 0.355874 -0.154353
C18   C     C_R   0.987331 0.423719 0.351194 -0.121728
C19   C     C_R   0.037052 0.441475 0.892357 0.210236
C20   C     C_R   0.555285 0.598094 0.890058 0.212123
C21   C     C_R   0.397679 0.952320 0.889480 0.216625
C22   C     C_R   0.447627 0.012558 0.396102 0.170291
C23   C     C_R   0.588004 0.562315 0.394752 0.213625
C24   C     C_R   0.954022 0.398776 0.389204 0.235837
C25   C     C_R   0.052939 0.604548 0.893582 0.214165
C26   C     C_R   0.395442 0.447284 0.894170 0.215056
C27   C     C_R   0.551707 0.949265 0.893928 0.213589
C28   C     C_R   0.624107 0.078494 0.390323 0.210902
C29   C     C_R   0.450331 0.394587 0.391455 0.186427
C30   C     C_R   0.969586 0.560871 0.398367 0.189757
C31   C     C_R   0.030287 0.597074 0.853492 0.272476
C32   C     C_R   0.399960 0.429789 0.854061 0.275643
C33   C     C_R   0.567921 0.967823 0.853564 0.265915
C34   C     C_R   0.612881 0.046701 0.351208 0.214023
C35   C     C_R   0.427698 0.416297 0.353905 0.234764
C36   C     C_R   0.013019 0.588188 0.360663 0.202896
C37   C     C_R   0.013647 0.511749 0.832974 -0.052607
C38   C     C_R   0.482658 0.497928 0.832268 -0.053184
C39   C     C_R   0.497106 0.977278 0.831381 -0.053566
C40   C     C_R   0.518126 0.002521 0.334437 -0.069939
C41   C     C_R   0.497859 0.502158 0.334837 -0.050962
C42   C     C_R   0.010767 0.515113 0.336094 -0.076008
C43   C     C_R   0.070209 0.532645 0.911074 -0.017926
C44   C     C_R   0.466798 0.538350 0.910468 -0.019577
C45   C     C_R   0.460006 0.927410 0.910222 -0.015419
C46   C     C_R   0.542473 0.072754 0.410797 -0.019383
C47   C     C_R   0.535992 0.466808 0.410869 -0.011030
C48   C     C_R   0.932529 0.462544 0.411311 -0.018831
C49   C     C_R   0.576856 0.442916 0.445696 0.583184
C50   C     C_R   0.558441 0.134502 0.445714 0.589330
C51   C     C_R   0.866535 0.422885 0.445847 0.590917
C52   C     C_R   0.443424 0.577221 0.945853 0.569306
C53   C     C_R   0.133432 0.556573 0.946043 0.573213
C54   C     C_R   0.422723 0.866341 0.945890 0.568995
C55   C     C_R   0.913512 0.453347 0.592718 -0.042293
C56   C     C_R   0.545334 0.459603 0.592599 -0.042898
C57   C     C_R   0.539619 0.083706 0.592171 -0.044828
C58   C     C_R   0.455660 0.916888 0.092295 -0.082701
C59   C     C_R   0.462115 0.545138 0.092285 -0.082652
C60   C     C_R   0.083745 0.540474 0.092853 -0.082926
C61   C     C_R   0.981114 0.424851 0.605718 0.253282
C62   C     C_R   0.571012 0.554988 0.605370 0.253218
C63   C     C_R   0.443584 0.017794 0.605514 0.253003
C64   C     C_R   0.409572 0.965565 0.109512 0.265134
C65   C     C_R   0.557729 0.591348 0.108450 0.262713
C66   C     C_R   0.037726 0.447172 0.111117 0.263803
C67   C     C_R   0.019471 0.449847 0.643956 0.211165
C68   C     C_R   0.544198 0.567860 0.643404 0.215846
C69   C     C_R   0.430517 0.975943 0.643106 0.214201
C70   C     C_R   0.419529 0.984632 0.149994 0.226165
C71   C     C_R   0.569002 0.585845 0.149019 0.228098
C72   C     C_R   0.020086 0.440734 0.151790 0.231857
C73   C     C_R   0.979122 0.490521 0.669913 -0.019228
C74   C     C_R   0.503242 0.486954 0.669283 -0.017944
C75   C     C_R   0.512272 0.010760 0.668316 -0.015901
C76   C     C_R   0.485471 0.965953 0.171548 -0.037304
C77   C     C_R   0.485689 0.523378 0.171837 -0.037436
C78   C     C_R   0.037718 0.526251 0.172568 -0.036772
C79   C     C_R   0.912792 0.519931 0.656447 0.217075
C80   C     C_R   0.477321 0.391989 0.656119 0.216460
C81   C     C_R   0.607838 0.075955 0.654597 0.217909
C82   C     C_R   0.543604 0.933129 0.152400 0.190422
C83   C     C_R   0.393200 0.465531 0.154182 0.184050
C84   C     C_R   0.068013 0.615284 0.152524 0.177605
C85   C     C_R   0.883340 0.503763 0.617777 -0.154427
C86   C     C_R   0.495829 0.379178 0.617669 -0.155139
C87   C     C_R   0.620501 0.108665 0.616343 -0.154247
C88   C     C_R   0.526637 0.907140 0.113321 -0.165594
C89   C     C_R   0.382155 0.478150 0.114767 -0.168087
C90   C     C_R   0.091726 0.621605 0.113147 -0.170581
C91   C     C_R   0.007036 0.504977 0.790229 0.398676
C92   C     C_R   0.487532 0.496063 0.789503 0.398829
C93   C     C_R   0.500553 0.984709 0.788646 0.401392
C94   C     C_R   0.504355 0.991918 0.292360 0.357781
C95   C     C_R   0.497113 0.510495 0.292514 0.392273
C96   C     C_R   0.023469 0.527808 0.293887 0.395057
Cr1   Cr    Cr6+3 0.522350 0.263930 0.500020 1.033118
Cr2   Cr    Cr6+3 0.736070 0.258420 0.500020 1.018333
Cr3   Cr    Cr6+3 0.741580 0.477650 0.500020 1.018827
Cr4   Cr    Cr6+3 0.263930 0.522350 0.000020 1.058866
Cr5   Cr    Cr6+3 0.258420 0.736070 0.000020 1.063520
Cr6   Cr    Cr6+3 0.477650 0.741580 0.000020 1.076534
H1    H     H_    0.830861 0.524685 0.607778 0.183428
H2    H     H_    0.477367 0.306395 0.607871 0.179354
H3    H     H_    0.693913 0.159978 0.606164 0.182475
H4    H     H_    0.565949 0.874568 0.099681 0.212303
H5    H     H_    0.309376 0.440145 0.102125 0.210760
H6    H     H_    0.122614 0.692240 0.098784 0.209312
H7    H     H_    0.983463 0.362890 0.838330 0.156463
H8    H     H_    0.628970 0.619567 0.834840 0.154230
H9    H     H_    0.371288 0.996118 0.833248 0.154143
H10   H     H_    0.362826 0.940686 0.345222 0.184982
H11   H     H_    0.622994 0.646823 0.342116 0.175648
H12   H     H_    0.991746 0.369679 0.332878 0.200686
N1    N     N_R   0.942172 0.419679 0.772587 -0.174258
N2    N     N_R   0.574456 0.523450 0.771438 -0.182734
N3    N     N_R   0.473558 0.044513 0.770579 -0.178702
N4    N     N_R   0.458875 0.901986 0.275479 -0.180782
N5    N     N_R   0.487887 0.583228 0.275301 -0.152751
N6    N     N_R   0.098591 0.524345 0.275759 -0.165470
N7    N     N_R   0.936706 0.413944 0.733942 -0.145494
N8    N     N_R   0.580262 0.525685 0.732819 -0.150237
N9    N     N_R   0.472815 0.048904 0.731960 -0.149962
N10   N     N_R   0.452012 0.894025 0.236870 -0.123551
N11   N     N_R   0.485266 0.587842 0.236646 -0.110767
N12   N     N_R   0.103240 0.524617 0.237050 -0.109710
N13   N     N_R   0.063328 0.577226 0.729194 -0.118449
N14   N     N_R   0.413202 0.476663 0.728831 -0.120834
N15   N     N_R   0.522791 0.931319 0.727957 -0.123345
N16   N     N_R   0.533463 0.065349 0.231019 -0.112292
N17   N     N_R   0.504110 0.449257 0.231410 -0.128868
N18   N     N_R   0.956300 0.528627 0.233410 -0.125979
N19   N     N_R   0.069188 0.582589 0.767809 -0.109751
N20   N     N_R   0.407742 0.475347 0.767492 -0.108005
N21   N     N_R   0.522834 0.926515 0.766628 -0.110594
N22   N     N_R   0.540051 0.073348 0.269600 -0.134559
N23   N     N_R   0.505724 0.444062 0.270002 -0.151115
N24   N     N_R   0.952368 0.529777 0.272116 -0.141809
O1    O     O_R   0.498680 0.159540 0.541860 -0.500596
O2    O     O_R   0.840460 0.339140 0.541860 -0.513235
O3    O     O_R   0.660860 0.501320 0.541860 -0.507597
O4    O     O_R   0.159540 0.498680 0.041860 -0.464406
O5    O     O_R   0.339140 0.840460 0.041860 -0.463657
O6    O     O_R   0.501320 0.660860 0.041860 -0.460314
O7    O     O_R   0.532760 0.358060 0.540030 -0.516549
O8    O     O_R   0.641940 0.174700 0.540030 -0.530868
O9    O     O_R   0.825300 0.467240 0.540030 -0.515536
O10   O     O_R   0.358060 0.532760 0.040030 -0.522966
O11   O     O_R   0.174700 0.641940 0.040030 -0.522312
O12   O     O_R   0.467240 0.825300 0.040030 -0.518986
O13   O     O_R   0.498590 0.161190 0.456930 -0.500089
O14   O     O_R   0.838810 0.337400 0.456930 -0.472295
O15   O     O_R   0.662600 0.501410 0.456930 -0.501933
O16   O     O_R   0.161190 0.498590 0.956930 -0.465170
O17   O     O_R   0.337400 0.838810 0.956930 -0.459596
O18   O     O_R   0.501410 0.662600 0.956930 -0.457250
O19   O     O_R   0.532680 0.359580 0.461300 -0.471584
O20   O     O_R   0.640420 0.173100 0.461300 -0.471500
O21   O     O_R   0.826900 0.467320 0.461300 -0.494570
O22   O     O_R   0.359580 0.532680 0.961300 -0.488958
O23   O     O_R   0.173100 0.640420 0.961300 -0.486149
O24   O     O_R   0.467320 0.826900 0.961300 -0.481298
O25   O     O_3   0.666667 0.333333 0.499990 -0.259750
O26   O     O_3   0.333333 0.666667 0.999990 -0.270164
O27   O     O_3   0.013796 0.379120 0.579990 -0.525011
C97   C     C_3   0.965876 0.277236 0.588230 0.068985
H13   H     H_    0.884516 0.244542 0.588878 0.164724
H14   H     H_    0.989791 0.263378 0.616796 0.208129
C98   C     C_3   0.991938 0.225426 0.556567 -0.258880
H15   H     H_    0.961489 0.232099 0.528252 0.152127
H16   H     H_    0.073186 0.261136 0.553705 0.198253
C99   C     C_3   0.950690 0.116871 0.566157 -0.482930
H17   H     H_    0.984941 0.108777 0.593153 0.184348
H18   H     H_    0.967080 0.080340 0.541903 0.131466
H19   H     H_    0.869796 0.080058 0.570311 0.165432
O28   O     O_3   0.614825 0.632896 0.579485 -0.527128
C100  C     C_3   0.717152 0.687475 0.586681 0.067617
H20   H     H_    0.750044 0.639072 0.589643 0.165283
H21   H     H_    0.732209 0.731257 0.613788 0.207202
C101  C     C_3   0.767057 0.757720 0.552567 -0.261824
H22   H     H_    0.752849 0.714406 0.525357 0.168190
H23   H     H_    0.735390 0.806931 0.549282 0.185388
C102  C     C_3   0.877876 0.820205 0.558531 -0.483155
H24   H     H_    0.893975 0.865404 0.585305 0.179756
H25   H     H_    0.911363 0.870183 0.533240 0.133850
H26   H     H_    0.911449 0.772548 0.560990 0.163843
O29   O     O_3   0.364459 0.990612 0.580786 -0.528196
C103  C     C_3   0.316261 0.043761 0.590627 0.068365
H27   H     H_    0.369041 0.123999 0.593026 0.166574
H28   H     H_    0.276542 0.017450 0.618756 0.207590
C104  C     C_3   0.241850 0.028487 0.558870 -0.265670
H29   H     H_    0.281367 0.058633 0.530915 0.164661
H30   H     H_    0.189995 0.948558 0.555094 0.186356
C105  C     C_3   0.183605 0.079809 0.568953 -0.473605
H31   H     H_    0.141371 0.049317 0.596341 0.183320
H32   H     H_    0.131106 0.068004 0.545121 0.133001
H33   H     H_    0.233925 0.160073 0.572459 0.171718
O30   O     O_3   0.350348 0.989393 0.087545 -0.483640
C106  C     C_3   0.409662 0.072541 0.063922 0.019745
H34   H     H_    0.361277 0.076814 0.041379 0.167921
H35   H     H_    0.467765 0.065349 0.047951 0.097368
C107  C     C_3   0.455779 0.168262 0.087726 -0.243034
H36   H     H_    0.397642 0.173315 0.104349 0.243938
H37   H     H_    0.509860 0.168504 0.108634 0.181322
C108  C     C_3   0.508392 0.258930 0.061871 -0.502391
H38   H     H_    0.561433 0.252920 0.042175 0.138706
H39   H     H_    0.548798 0.324972 0.080467 0.164976
H40   H     H_    0.454320 0.268336 0.044392 0.145793
O31   O     O_3   0.639352 0.648494 0.085431 -0.485073
C109  C     C_3   0.661525 0.587385 0.062026 0.021092
H41   H     H_    0.709511 0.633307 0.037839 0.168555
H42   H     H_    0.594980 0.526152 0.048155 0.095017
C110  C     C_3   0.717175 0.546693 0.085312 -0.240745
H43   H     H_    0.780680 0.607619 0.100463 0.246138
H44   H     H_    0.667305 0.493756 0.107510 0.183218
C111  C     C_3   0.756051 0.494822 0.059213 -0.504425
H45   H     H_    0.697025 0.440219 0.040169 0.139949
H46   H     H_    0.784674 0.456443 0.077594 0.162894
H47   H     H_    0.817369 0.549282 0.040942 0.146187
O32   O     O_3   0.016877 0.363447 0.090176 -0.483574
C112  C     C_3   0.935928 0.337581 0.064988 0.026614
H48   H     H_    0.938359 0.288948 0.042003 0.169178
H49   H     H_    0.940172 0.402111 0.049553 0.097082
C113  C     C_3   0.837578 0.281104 0.086857 -0.240548
H50   H     H_    0.834377 0.217853 0.102622 0.246284
H51   H     H_    0.830889 0.330425 0.108363 0.182533
C114  C     C_3   0.750304 0.241401 0.059148 -0.503678
H52   H     H_    0.753194 0.301548 0.041135 0.139959
H53   H     H_    0.680874 0.206864 0.076215 0.162373
H54   H     H_    0.750406 0.184597 0.039890 0.148112
O33   O     O_3   0.026668 0.361916 0.914105 -0.565238
C115  C     C_3   0.063735 0.306991 0.894980 0.041002
H55   H     H_    0.116109 0.301602 0.915167 0.211147
H56   H     H_    0.106025 0.341438 0.867820 0.186466
C116  C     C_3   0.979145 0.203062 0.887026 -0.269651
H57   H     H_    0.940295 0.169785 0.914820 0.177322
H58   H     H_    0.925994 0.206245 0.866610 0.193247
C117  C     C_3   0.015672 0.137578 0.869626 -0.426513
H59   H     H_    0.052959 0.167925 0.841334 0.217177
H60   H     H_    0.952517 0.062986 0.864552 0.169619
H61   H     H_    0.067010 0.131118 0.890038 0.166589
O34   O     O_3   0.633651 0.675653 0.909528 -0.561922
C118  C     C_3   0.687561 0.760157 0.885937 0.041952
H62   H     H_    0.704280 0.825611 0.903840 0.217498
H63   H     H_    0.644582 0.763547 0.860774 0.187235
C119  C     C_3   0.785641 0.768592 0.873353 -0.285392
H64   H     H_    0.840835 0.806081 0.896673 0.151914
H65   H     H_    0.776969 0.694428 0.869252 0.199954
C120  C     C_3   0.824479 0.826134 0.835465 -0.411553
H66   H     H_    0.771464 0.788798 0.811433 0.198751
H67   H     H_    0.895338 0.830817 0.827555 0.183586
H68   H     H_    0.837075 0.901723 0.838873 0.206301
O35   O     O_3   0.322429 0.956885 0.909594 -0.560390
C121  C     C_3   0.235974 0.926562 0.887393 0.043052
H69   H     H_    0.172302 0.879761 0.906441 0.216500
H70   H     H_    0.229586 0.879567 0.862009 0.194079
C122  C     C_3   0.227225 0.016136 0.875463 -0.280488
H71   H     H_    0.215230 0.049089 0.901995 0.162009
H72   H     H_    0.296164 0.072642 0.861419 0.198829
C123  C     C_3   0.141596 0.988504 0.847694 -0.421361
H73   H     H_    0.147126 0.948377 0.822039 0.218723
H74   H     H_    0.142951 0.056016 0.837169 0.184488
H75   H     H_    0.070761 0.942526 0.863015 0.174601
O36   O     O_3   0.366389 0.991957 0.418433 -0.574016
C124  C     C_3   0.330346 0.898228 0.435346 0.025595
H76   H     H_    0.389264 0.893735 0.451814 0.121813
H77   H     H_    0.300786 0.840443 0.412382 0.171597
C125  C     C_3   0.247888 0.879807 0.463787 -0.246039
H78   H     H_    0.278378 0.934429 0.487718 0.176138
H79   H     H_    0.190916 0.889406 0.448510 0.182587
C126  C     C_3   0.200665 0.776596 0.481068 -0.432281
H80   H     H_    0.169325 0.720605 0.457618 0.200708
H81   H     H_    0.140519 0.765505 0.501241 0.162919
H82   H     H_    0.255969 0.766685 0.497563 0.170208
O37   O     O_3   0.654795 0.641734 0.416443 -0.570647
C127  C     C_3   0.602822 0.674690 0.440284 0.016486
H83   H     H_    0.648785 0.711656 0.466150 0.144766
H84   H     H_    0.532314 0.613511 0.451979 0.138024
C128  C     C_3   0.584347 0.749258 0.418404 -0.270794
H85   H     H_    0.655825 0.811623 0.408658 0.179820
H86   H     H_    0.538619 0.714386 0.392249 0.182690
C129  C     C_3   0.531026 0.787670 0.444020 -0.483125
H87   H     H_    0.457319 0.726556 0.452370 0.163239
H88   H     H_    0.521373 0.843398 0.427689 0.133991
H89   H     H_    0.573871 0.822268 0.470810 0.158073
O38   O     O_3   0.932429 0.306509 0.402241 -0.487910
C130  C     C_3   0.998806 0.315342 0.432075 0.020046
H90   H     H_    0.959186 0.251463 0.451925 0.145947
H91   H     H_    0.024297 0.382417 0.450430 0.126032
C131  C     C_3   0.087592 0.312499 0.415178 -0.253488
H92   H     H_    0.061960 0.243740 0.398168 0.218486
H93   H     H_    0.128899 0.376288 0.395413 0.198046
C132  C     C_3   0.155804 0.316279 0.447674 -0.459905
H94   H     H_    0.181083 0.383909 0.465372 0.158347
H95   H     H_    0.221298 0.317146 0.435013 0.229049
H96   H     H_    0.117120 0.250866 0.466866 0.127581
S1    S     S_3+6 0.118457 0.432957 0.659373 0.052236
O39   O     O_2   0.078567 0.343217 0.684825 -0.282118
O40   O     O_2   0.171486 0.420712 0.625183 -0.222878
O41   O     O_3   0.198954 0.531315 0.685220 -0.475453
H97   H     H_    0.247333 0.513687 0.695292 0.406215
S2    S     S_3+6 0.560144 0.683318 0.658750 0.053906
O42   O     O_2   0.651891 0.734949 0.682890 -0.281493
O43   O     O_2   0.568497 0.746595 0.624452 -0.221476
O44   O     O_3   0.463362 0.665439 0.686035 -0.480675
H98   H     H_    0.480469 0.731559 0.695709 0.405755
S3    S     S_3+6 0.313652 0.879818 0.658722 0.052737
O45   O     O_2   0.266496 0.922257 0.684508 -0.281797
O46   O     O_2   0.247794 0.829329 0.624574 -0.223421
O47   O     O_3   0.328340 0.796501 0.684242 -0.478846
H99   H     H_    0.261849 0.749210 0.694105 0.406813
S4    S     S_3+6 0.349669 0.031049 0.173780 0.077170
O48   O     O_2   0.271101 0.027866 0.147840 -0.214555
O49   O     O_2   0.302009 0.971426 0.209745 -0.193586
O50   O     O_3   0.426297 0.148210 0.186837 -0.520166
H100  H     H_    0.384862 0.168315 0.201624 0.405985
S5    S     S_3+6 0.686712 0.655620 0.171293 0.066658
O51   O     O_2   0.761520 0.729814 0.143832 -0.214247
O52   O     O_2   0.679085 0.709070 0.206274 -0.213519
O53   O     O_3   0.724489 0.577429 0.185822 -0.523548
H101  H     H_    0.781833 0.616877 0.202816 0.407165
S6    S     S_3+6 0.973054 0.325907 0.176627 0.073398
O54   O     O_2   0.966486 0.245982 0.150524 -0.216956
O55   O     O_2   0.038048 0.336157 0.210456 -0.210149
O56   O     O_3   0.860222 0.293569 0.193552 -0.511491
H102  H     H_    0.841102 0.234585 0.209812 0.415861
S7    S     S_3+6 0.862488 0.574243 0.687583 0.055416
O57   O     O_2   0.810813 0.506763 0.721276 -0.191075
O58   O     O_2   0.944306 0.669966 0.702750 -0.225809
O59   O     O_3   0.781633 0.595377 0.663413 -0.574952
H103  H     H_    0.759219 0.627127 0.682661 0.391212
S8    S     S_3+6 0.425499 0.288017 0.687484 0.055784
O60   O     O_2   0.488785 0.308725 0.722957 -0.185770
O61   O     O_2   0.324721 0.266635 0.699834 -0.229531
O62   O     O_3   0.416679 0.189106 0.664681 -0.578691
H104  H     H_    0.380850 0.133977 0.683132 0.391139
S9    S     S_3+6 0.712723 0.123069 0.685245 0.053822
O63   O     O_2   0.695976 0.168553 0.720889 -0.196361
O64   O     O_2   0.729301 0.040388 0.697374 -0.218334
O65   O     O_3   0.813198 0.208937 0.661851 -0.580088
H105  H     H_    0.866569 0.232866 0.681374 0.391151
S10   S     S_3+6 0.638424 0.923658 0.176375 0.058952
O66   O     O_2   0.707692 0.021179 0.194500 -0.242168
O67   O     O_2   0.595211 0.846319 0.207555 -0.212754
O68   O     O_3   0.701066 0.893717 0.144587 -0.476209
H106  H     H_    0.760745 0.905239 0.158820 0.413627
S11   S     S_3+6 0.287889 0.382659 0.181293 0.072768
O69   O     O_2   0.308599 0.310827 0.202290 -0.234902
O70   O     O_2   0.264187 0.439043 0.210617 -0.193739
O71   O     O_3   0.191015 0.320737 0.151598 -0.474727
H107  H     H_    0.146675 0.259252 0.165725 0.413184
S12   S     S_3+6 0.085117 0.722768 0.176519 0.083474
O72   O     O_2   0.988781 0.703517 0.193624 -0.243024
O73   O     O_2   0.158857 0.749140 0.208693 -0.161137
O74   O     O_3   0.125574 0.817120 0.144985 -0.474571
H108  H     H_    0.097394 0.857623 0.154376 0.407653
O75   O     O_3   0.066409 0.686172 0.914402 -0.528704
C133  C     C_3   0.996746 0.657850 0.945253 0.033401
H109  H     H_    0.035363 0.703097 0.971133 0.153556
H110  H     H_    0.964057 0.579522 0.954489 0.096051
C134  C     C_3   0.914246 0.678351 0.934174 -0.248851
H111  H     H_    0.946445 0.758133 0.928261 0.188888
H112  H     H_    0.876906 0.636131 0.907539 0.206060
C135  C     C_3   0.837986 0.649006 0.966532 -0.505008
H113  H     H_    0.801429 0.568550 0.971707 0.143833
H114  H     H_    0.781167 0.667815 0.957822 0.194304
H115  H     H_    0.873266 0.689044 0.993801 0.150944
O76   O     O_3   0.316584 0.379188 0.916215 -0.527883
C136  C     C_3   0.349416 0.341921 0.946974 0.031657
H116  H     H_    0.312695 0.344892 0.974250 0.154426
H117  H     H_    0.430252 0.384323 0.952504 0.094428
C137  C     C_3   0.319454 0.234867 0.938900 -0.245882
H118  H     H_    0.238417 0.191751 0.935128 0.183809
H119  H     H_    0.356005 0.230746 0.911773 0.209965
C138  C     C_3   0.348721 0.189994 0.971998 -0.504767
H120  H     H_    0.429854 0.230085 0.975467 0.145187
H121  H     H_    0.324429 0.111975 0.965234 0.184503
H122  H     H_    0.313208 0.192832 0.999618 0.150483
O77   O     O_3   0.625235 0.951102 0.916896 -0.522920
C139  C     C_3   0.660322 0.030235 0.943888 0.026502
H123  H     H_    0.713802 0.024181 0.963204 0.154844
H124  H     H_    0.600733 0.024748 0.963208 0.109082
C140  C     C_3   0.713044 0.131730 0.923886 -0.258828
H125  H     H_    0.771360 0.136502 0.904305 0.220918
H126  H     H_    0.659971 0.142573 0.906171 0.164938
C141  C     C_3   0.759807 0.214879 0.953499 -0.483915
H127  H     H_    0.702364 0.213858 0.972794 0.136409
H128  H     H_    0.797603 0.286562 0.938037 0.179029
H129  H     H_    0.814971 0.207594 0.971258 0.155137
O78   O     O_3   0.717063 0.126263 0.406902 -0.477091
C142  C     C_3   0.743420 0.057115 0.420615 0.068340
H130  H     H_    0.819046 0.081079 0.410000 0.210948
H131  H     H_    0.695269 0.980805 0.409797 0.124446
C143  C     C_3   0.743883 0.054878 0.465160 -0.272774
H132  H     H_    0.786295 0.130938 0.476706 0.193165
H133  H     H_    0.667087 0.021051 0.476086 0.157127
C144  C     C_3   0.790122 0.995461 0.480172 -0.517049
H134  H     H_    0.869812 0.033659 0.473056 0.141093
H135  H     H_    0.754179 0.921033 0.466996 0.150339
H136  H     H_    0.781070 0.987270 0.512237 0.154122
O79   O     O_3   0.384298 0.310859 0.411583 -0.557694
C145  C     C_3   0.375553 0.225310 0.393935 0.069556
H137  H     H_    0.438698 0.216356 0.402422 0.164040
H138  H     H_    0.377221 0.228351 0.361654 0.179781
C146  C     C_3   0.279234 0.136080 0.407897 -0.232900
H139  H     H_    0.293834 0.103657 0.434028 0.179728
H140  H     H_    0.225702 0.159365 0.416850 0.191492
C147  C     C_3   0.230915 0.058044 0.376221 -0.371309
H141  H     H_    0.284020 0.038448 0.363638 0.200261
H142  H     H_    0.203374 0.086040 0.352495 0.218342
H143  H     H_    0.167834 0.991019 0.388750 0.170834
O80   O     O_3   0.980922 0.631656 0.425296 -0.560076
C148  C     C_3   0.914801 0.666575 0.418175 0.069366
H144  H     H_    0.840386 0.612499 0.428748 0.186713
H145  H     H_    0.908663 0.679940 0.386813 0.187563
C149  C     C_3   0.951230 0.763165 0.440497 -0.254771
H146  H     H_    0.965905 0.752878 0.471311 0.158586
H147  H     H_    0.020947 0.820723 0.427399 0.199359
C150  C     C_3   0.877086 0.798994 0.439832 -0.464821
H148  H     H_    0.855129 0.803257 0.409483 0.204526
H149  H     H_    0.910013 0.873124 0.453206 0.126530
H150  H     H_    0.811731 0.748279 0.457148 0.177755
S13   S     S_3+6 0.021272 0.692759 0.829255 0.012474
O81   O     O_2   0.004945 0.756402 0.857360 -0.354242
O82   O     O_2   0.114972 0.755706 0.807224 -0.268561
O83   O     O_3   0.926763 0.643322 0.797777 -0.462574
H151  H     H_    0.926659 0.700218 0.785318 0.389360
S14   S     S_3+6 0.303436 0.323323 0.831437 0.019858
O84   O     O_2   0.244860 0.244329 0.860570 -0.348378
O85   O     O_2   0.235979 0.351151 0.811111 -0.264877
O86   O     O_3   0.350942 0.278637 0.798615 -0.461292
H152  H     H_    0.293285 0.222109 0.786490 0.390280
S15   S     S_3+6 0.677744 0.983491 0.831410 0.011230
O87   O     O_2   0.755133 0.001177 0.861001 -0.336897
O88   O     O_2   0.654355 0.892426 0.808773 -0.278482
O89   O     O_3   0.722264 0.079940 0.800788 -0.465418
H153  H     H_    0.777887 0.079510 0.787228 0.394541
S16   S     S_3+6 0.719078 0.065706 0.324470 0.071998
O90   O     O_2   0.800685 0.169272 0.330869 -0.175307
O91   O     O_2   0.751983 0.996671 0.339423 -0.316264
O92   O     O_3   0.700726 0.047326 0.276324 -0.434445
H154  H     H_    0.675790 0.976170 0.272555 0.392713
S17   S     S_3+6 0.310808 0.344132 0.331359 0.029473
O93   O     O_2   0.317686 0.278044 0.301314 -0.235866
O94   O     O_2   0.233157 0.282818 0.360664 -0.317005
O95   O     O_3   0.278172 0.419210 0.309169 -0.476011
H155  H     H_    0.215657 0.374848 0.295739 0.405745
S18   S     S_3+6 0.077201 0.712717 0.344759 0.035414
O96   O     O_2   0.007580 0.735081 0.323019 -0.204179
O97   O     O_2   0.119410 0.781895 0.378588 -0.325996
O98   O     O_3   0.169764 0.731604 0.314627 -0.439434
H156  H     H_    0.215852 0.721312 0.330973 0.336481

loop_
_geom_bond_atom_site_label_1
_geom_bond_atom_site_label_2
_ccdc_geom_bond_type
C142  C143  S    
S6    O55   D    
O75   C133  S    
C64   O30   S    
C131  C132  S    
S1    O40   D    
C6    C58   S    
C36   C42   A    
C111  H47   S    
S9    O63   D    
C7    C73   S    
Cr2   O14   S    
O41   H97   S    
C129  H87   S    
C93   N3    A    
C103  C104  S    
C49   O15   A    
C1    C56   S    
C10   N10   A    
C144  H135  S    
C105  H33   S    
C12   N12   A    
Cr5   O17   S    
C126  H80   S    
C4    O10   A    
C38   C92   S    
C5    O11   A    
C137  H118  S    
C133  C134  S    
C121  H70   S    
O47   H99   S    
C23   O37   S    
C66   C72   A    
C22   O36   S    
C130  H91   S    
C57   C63   A    
C85   H1    S    
C99   H19   S    
C136  C137  S    
C106  H34   S    
C148  H145  S    
O95   H155  S    
C25   O75   S    
O76   C136  S    
C101  H23   S    
S13   O83   S    
S2    O43   D    
C110  H44   S    
C134  C135  S    
C117  H60   S    
O59   H103  S    
C104  H29   S    
C150  H150  S    
O65   H105  S    
C35   S17   S    
S10   O66   D    
C95   N5    A    
C31   C37   A    
S5    O53   S    
C141  H128  S    
C102  H24   S    
C149  C150  S    
C14   C38   A    
C56   C86   A    
C114  H52   S    
S15   O89   S    
S12   O72   D    
C8    C74   S    
N4    N10   A    
C92   N2    A    
C15   C39   A    
C107  H37   S    
C16   C40   A    
C147  H142  S    
C51   O14   A    
C29   O79   S    
C56   C62   A    
C102  H26   S    
C141  H129  S    
C140  H125  S    
C79   C85   A    
S9    O65   S    
O89   H153  S    
C84   S12   S    
Cr3   O9    S    
C12   N18   A    
C150  H149  S    
Cr1   O7    S    
Cr3   O3    S    
S10   O68   S    
C58   C88   A    
C4    O6    A    
C138  H120  S    
C60   C90   A    
C132  H96   S    
C29   C35   A    
C137  C138  S    
C62   C68   A    
S18   O96   D    
C104  C105  S    
C146  H139  S    
C149  H146  S    
C9    N9    A    
S10   O67   D    
C128  H86   S    
O71   H107  S    
S17   O94   D    
C143  H132  S    
O62   H104  S    
S6    O56   S    
S7    O57   D    
C27   O77   S    
C122  H72   S    
C82   S10   S    
C139  H123  S    
C25   C31   A    
C3    O9    A    
N1    N7    A    
Cr3   O21   S    
C1    O7    A    
C150  H148  S    
C86   H2    S    
C25   C43   A    
O79   C145  S    
C2    C57   S    
C17   H11   S    
C27   C33   A    
C28   C46   A    
C120  H66   S    
C112  H48   S    
C29   C47   A    
C18   C24   A    
C30   C48   A    
O80   C148  S    
C111  H46   S    
C18   C42   A    
C96   N24   A    
O35   C121  S    
C68   C74   A    
S12   O74   S    
C135  H113  S    
C103  H28   S    
C122  H71   S    
C59   C89   A    
C13   H7    S    
C11   C77   S    
N15   N21   A    
C3    C55   S    
C50   O13   A    
C8    N14   A    
C63   C69   A    
C91   N1    A    
O36   C124  S    
C100  H21   S    
C106  C107  S    
C80   C86   A    
C147  H143  S    
C44   C52   S    
C97   H14   S    
C98   H16   S    
C49   O19   A    
C84   C90   A    
C7    N7    A    
O32   C112  S    
C20   C44   A    
C99   H18   S    
C34   S16   S    
C21   C45   A    
C108  H39   S    
C58   C64   A    
C83   C89   A    
C24   O38   S    
C95   N23   A    
C23   C47   A    
C24   C48   A    
S18   O98   S    
S8    O60   D    
C146  C147  S    
C76   C82   A    
S7    O58   D    
C121  C122  S    
S15   O88   D    
C54   O24   A    
C57   C87   A    
C132  H94   S    
N14   N20   A    
C61   C67   A    
O86   H152  S    
C87   H3    S    
C116  H57   S    
C118  C119  S    
O31   C109  S    
C73   C79   A    
C147  H141  S    
C133  H110  S    
C124  H77   S    
C139  C140  S    
Cr3   O25   S    
C114  H53   S    
C100  H20   S    
C109  H42   S    
C116  C117  S    
C79   S7    S    
Cr6   O18   S    
C71   C77   A    
S14   O84   D    
C145  H137  S    
C138  H122  S    
Cr4   O16   S    
C14   H8    S    
C68   S2    S    
C119  H64   S    
C120  H68   S    
C5    C60   S    
C92   N20   A    
C40   C94   S    
C123  H73   S    
C93   N21   A    
C109  C110  S    
C63   O29   S    
S4    O50   S    
S3    O47   S    
C140  C141  S    
C90   H6    S    
C144  H134  S    
C59   C65   A    
S11   O71   S    
C94   N4    A    
C8    N8    A    
C5    O4    A    
C82   C88   A    
C55   C61   A    
S1    O41   S    
C137  H119  S    
S6    O54   D    
C61   O27   S    
C35   C41   A    
C28   C34   A    
O98   H156  S    
C127  H83   S    
C129  H89   S    
Cr6   O26   S    
C7    N13   A    
Cr1   O1    S    
C136  H117  S    
C119  C120  S    
C126  H82   S    
C52   O22   A    
C148  H144  S    
O37   C127  S    
S8    O62   S    
C113  H50   S    
Cr2   O25   S    
O77   C139  S    
S13   O82   D    
C110  H43   S    
C20   O34   S    
C134  H112  S    
C117  H61   S    
C80   S8    S    
N2    N8    A    
C42   C96   S    
C2    O1    A    
C11   N11   A    
C112  C113  S    
N6    N12   A    
O83   H151  S    
N18   N24   A    
C118  H62   S    
C142  H131  S    
C131  H92   S    
S1    O39   D    
S5    O52   D    
S16   O90   D    
C39   C93   S    
C66   O32   S    
C43   C53   S    
Cr2   O20   S    
Cr1   O25   S    
C107  C108  S    
S12   O73   D    
C128  H85   S    
C67   C73   A    
S14   O86   S    
C27   C45   A    
C105  H31   S    
C60   C66   A    
O50   H100  S    
C74   C80   A    
C67   S1    S    
C123  H75   S    
C70   S4    S    
S9    O64   D    
C19   C43   A    
C13   C19   A    
C26   C44   A    
S3    O45   D    
C14   C20   A    
C107  H36   S    
C144  H136  S    
C54   O17   A    
C26   C32   A    
C50   O20   A    
C11   N17   A    
S16   O92   S    
S18   O97   D    
C55   C85   A    
C30   C36   A    
C10   N16   A    
C121  H69   S    
N17   N23   A    
C130  H90   S    
C127  C128  S    
Cr6   O24   S    
C62   O28   S    
C89   H5    S    
O34   C118  S    
Cr1   O13   S    
C130  C131  S    
Cr4   O26   S    
C17   C23   A    
C81   C87   A    
C143  H133  S    
Cr6   O12   S    
N5    N11   A    
C26   O76   S    
C22   C46   A    
C148  C149  S    
C2    O8    A    
C113  C114  S    
S11   O69   D    
C101  H22   S    
C16   H10   S    
C139  H124  S    
C110  C111  S    
C117  H59   S    
C16   C22   A    
C129  H88   S    
Cr5   O26   S    
N13   N19   A    
S8    O61   D    
C143  C144  S    
C135  H115  S    
O78   C142  S    
C122  C123  S    
C30   O80   S    
C141  H127  S    
C32   S14   S    
O29   C103  S    
C6    O5    A    
C41   C95   S    
Cr3   O15   S    
C115  H55   S    
C135  H114  S    
C69   C75   A    
O56   H102  S    
C1    O3    A    
C33   S15   S    
C6    O12   A    
C125  H78   S    
C132  H95   S    
O44   H98   S    
C106  H35   S    
C71   S5    S    
C149  H147  S    
O27   C97   S    
C98   H15   S    
C18   H12   S    
C104  H30   S    
C142  H130  S    
C47   C49   S    
C108  H38   S    
S4    O48   D    
S2    O44   S    
C33   C39   A    
C34   C40   A    
C31   S13   S    
C102  H25   S    
O38   C130  S    
C146  H140  S    
C77   C83   A    
C128  C129  S    
C51   O21   A    
S17   O95   S    
C36   S18   S    
C10   C76   S    
C48   C51   S    
O74   H108  S    
C118  H63   S    
C12   C78   S    
C81   S9    S    
O30   C106  S    
C32   C38   A    
C83   S11   S    
C124  H76   S    
C65   O31   S    
S4    O49   D    
C101  C102  S    
C53   O16   A    
C116  H58   S    
C133  H109  S    
C115  H56   S    
S14   O85   D    
C145  H138  S    
C138  H121  S    
C72   S6    S    
C119  H65   S    
C120  H67   S    
C17   C41   A    
C37   C91   S    
C15   H9    S    
C111  H45   S    
C123  H74   S    
S13   O81   D    
C75   C81   A    
Cr2   O8    S    
C65   C71   A    
C21   O35   S    
C115  C116  S    
Cr2   O2    S    
C103  H27   S    
S3    O46   D    
Cr1   O19   S    
C140  H126  S    
S11   O70   D    
C145  C146  S    
C88   H4    S    
Cr4   O22   S    
C94   N22   A    
C91   N19   A    
C125  C126  S    
C100  C101  S    
C105  H32   S    
C69   S3    S    
C28   O78   S    
O28   C100  S    
C127  H84   S    
C45   C54   S    
S15   O87   D    
C64   C70   A    
C70   C76   A    
C97   H13   S    
C98   C99   S    
C99   H17   S    
C136  H116  S    
C108  H40   S    
C126  H81   S    
S2    O42   D    
C13   C37   A    
C96   N6    A    
N16   N22   A    
C125  H79   S    
C113  H51   S    
S7    O59   S    
C9    N15   A    
C52   O18   A    
C134  H111  S    
C46   C50   S    
Cr6   O6    S    
O53   H101  S    
Cr5   O23   S    
N3    N9    A    
S17   O93   D    
C112  H49   S    
Cr4   O4    S    
Cr5   O5    S    
C53   O23   A    
O92   H154  S    
Cr4   O10   S    
C4    C59   S    
Cr5   O11   S    
C131  H93   S    
S5    O51   D    
C124  C125  S    
S16   O91   D    
C78   C84   A    
C15   C21   A    
C114  H54   S    
C97   C98   S    
C109  H41   S    
C72   C78   A    
O33   C115  S    
C3    O2    A    
C9    C75   S    
O68   H106  S    
C19   O33   S    
