data_mof_unit_19016.cif
_audit_creation_date              2012-12-10T17:32:20-0500
_audit_creation_method            fapswitch 2.2
_symmetry_space_group_name_H-M    P1
_symmetry_Int_Tables_number       1
_space_group_crystal_system       triclinic
_cell_length_a                    12.325151
_cell_length_b                    13.024214
_cell_length_c                    15.021796
_cell_angle_alpha                 77.318897
_cell_angle_beta                  100.880116
_cell_angle_gamma                 116.327096
_cell_volume                      2096.99443421

loop_
_atom_site_label
_atom_site_type_symbol
_atom_type_description
_atom_site_fract_x
_atom_site_fract_y
_atom_site_fract_z
_atom_type_partial_charge
C1    C     C_R   0.855408 0.284900 0.509780 0.764293
C2    C     C_R   0.949720 0.563418 0.073327 0.118996
C3    C     C_R   0.072853 0.343788 0.086233 -0.017154
C4    C     C_R   0.073333 0.345894 0.992894 -0.258035
C5    C     C_R   0.033983 0.419637 0.926696 0.095722
C6    C     C_R   0.990768 0.490718 0.953578 0.061775
C7    C     C_R   0.947013 0.562325 0.886831 0.116374
C8    C     C_R   0.903996 0.632681 0.913810 -0.209090
C9    C     C_R   0.905470 0.633317 0.006602 -0.213328
C10   C     C_R   0.036651 0.423150 0.833722 -0.227683
C11   C     C_R   0.994603 0.495193 0.767756 -0.077426
C12   C     C_R   0.998441 0.498639 0.671081 0.806357
C13   C     C_R   0.948083 0.563112 0.794131 -0.247396
C14   C     C_R   0.279170 0.035807 0.391705 -0.246392
C15   C     C_R   0.226985 0.839798 0.472559 -0.116918
C16   C     C_R   0.808757 0.077273 0.584866 0.087780
C17   C     C_R   0.718921 0.984974 0.634005 -0.200629
C18   C     C_R   0.596156 0.960473 0.609690 -0.032681
C19   C     C_R   0.559673 0.020641 0.527090 0.024023
C20   C     C_R   0.650204 0.122955 0.484655 0.019124
C21   C     C_R   0.437066 0.986151 0.486924 0.053640
C22   C     C_R   0.403434 0.063654 0.418009 0.113181
C23   C     C_R   0.144872 0.714846 0.486777 0.802363
C24   C     C_R   0.494790 0.163197 0.374257 0.064607
C25   C     C_R   0.616466 0.188021 0.405658 -0.196311
C26   C     C_R   0.349479 0.872110 0.506153 -0.230658
C27   C     C_R   0.190567 0.926077 0.420931 -0.029419
C28   C     C_R   0.773819 0.158665 0.521286 -0.147789
C29   C     C_R   0.343871 0.325531 0.647654 -0.306054
C30   C     C_R   0.755754 0.641136 0.372026 0.110946
C31   C     C_R   0.659568 0.673616 0.345763 -0.239105
C32   C     C_R   0.559117 0.622172 0.395848 -0.190291
C33   C     C_R   0.552545 0.535489 0.472596 -0.016065
C34   C     C_R   0.000155 0.499479 0.329005 0.806076
C35   C     C_R   0.654296 0.506710 0.497633 0.224327
C36   C     C_R   0.448258 0.474783 0.523659 -0.057180
C37   C     C_R   0.447181 0.385514 0.598512 0.120554
C38   C     C_R   0.548516 0.357578 0.623047 0.027764
C39   C     C_R   0.649068 0.419381 0.572562 -0.198665
C40   C     C_R   0.343316 0.498237 0.502973 0.039552
C41   C     C_R   0.245051 0.353587 0.623983 0.077529
C42   C     C_R   0.952613 0.565205 0.165958 -0.243333
C43   C     C_R   0.998637 0.496926 0.232519 -0.073007
C44   C     C_R   0.039505 0.424054 0.207044 -0.242221
C45   C     C_R   0.035359 0.418870 0.114153 0.053699
C46   C     C_R   0.991988 0.490898 0.047087 0.046486
Cu1   Cu    Cu3+1 0.098270 0.475420 0.521130 0.933846
Cu2   Cu    Cu3+1 0.901730 0.524580 0.478870 0.925086
H1    H     H_    0.920639 0.621092 0.186377 0.143478
H2    H     H_    0.250022 0.098364 0.347317 0.172429
H3    H     H_    0.377721 0.805225 0.542155 0.175479
H4    H     H_    0.744898 0.933174 0.693466 0.141374
H5    H     H_    0.685661 0.259218 0.367022 0.161913
H6    H     H_    0.166667 0.307774 0.662351 0.113236
H7    H     H_    0.337594 0.256892 0.704731 0.130331
H8    H     H_    0.072944 0.370708 0.260059 0.164733
H9    H     H_    0.336476 0.563971 0.447551 0.121820
H10   H     H_    0.832265 0.679891 0.331839 0.137732
H11   H     H_    0.487268 0.650416 0.371670 0.136029
H12   H     H_    0.662466 0.738317 0.285945 0.151896
H13   H     H_    0.722710 0.396360 0.592455 0.213850
H14   H     H_    0.103757 0.289283 0.971777 0.145655
H15   H     H_    0.070266 0.369037 0.812531 0.141377
H16   H     H_    0.915315 0.618417 0.742559 0.155523
H17   H     H_    0.870065 0.687769 0.863168 0.142656
H18   H     H_    0.872512 0.688851 0.026235 0.144285
N1    N     N_R   0.246280 0.438190 0.553160 -0.180494
N2    N     N_R   0.754320 0.561190 0.447410 -0.205523
O1    O     O_R   0.972510 0.318130 0.526570 -0.592692
O2    O     O_R   0.806530 0.359650 0.490890 -0.598062
O3    O     O_R   0.082980 0.479210 0.647590 -0.572804
O4    O     O_R   0.917000 0.520730 0.611900 -0.606497
O5    O     O_R   0.193470 0.640350 0.509110 -0.578797
O6    O     O_R   0.027490 0.681870 0.473430 -0.573194
O7    O     O_R   0.083000 0.479270 0.388100 -0.585508
O8    O     O_R   0.917020 0.520790 0.352410 -0.595981
C47   C     C_3   0.467822 0.237833 0.288007 -0.421689
C48   C     C_3   0.451094 0.337888 0.311862 -0.318728
C49   C     C_3   0.440362 0.422352 0.226122 -0.812034
H19   H     H_    0.527867 0.467263 0.195027 0.247120
H20   H     H_    0.367312 0.376004 0.174779 0.263314
H21   H     H_    0.418282 0.488331 0.244730 0.243856
H22   H     H_    0.368514 0.303847 0.348245 0.222390
H23   H     H_    0.531271 0.385630 0.357789 0.235006
H24   H     H_    0.544409 0.274108 0.244701 0.199765
H25   H     H_    0.386725 0.185361 0.244714 0.207818
C50   C     C_3   0.938985 0.088194 0.605633 -0.396962
C51   C     C_3   0.947792 0.974134 0.604593 -0.355051
C52   C     C_3   0.080322 0.992016 0.612903 -0.826831
H26   H     H_    0.126412 0.054630 0.553923 0.257941
H27   H     H_    0.129819 0.025231 0.677725 0.245726
H28   H     H_    0.083728 0.908129 0.613226 0.250348
H29   H     H_    0.904160 0.907654 0.662669 0.211373
H30   H     H_    0.900404 0.940571 0.539403 0.247963
H31   H     H_    0.996262 0.151644 0.552671 0.236991
H32   H     H_    0.977404 0.116768 0.673659 0.180868
C53   C     C_1   0.513578 0.881714 0.676140 0.198133
N3    N     N_1   0.447843 0.818890 0.729601 -0.286458
C54   C     C_3   0.547512 0.261105 0.703145 -0.398177
C55   C     C_3   0.661719 0.236517 0.725121 -0.371275
C56   C     C_3   0.648910 0.139939 0.806639 -0.814517
H33   H     H_    0.639472 0.166153 0.869304 0.253415
H34   H     H_    0.568054 0.059200 0.792515 0.264590
H35   H     H_    0.731251 0.122328 0.819105 0.240297
H36   H     H_    0.676152 0.209324 0.664873 0.225841
H37   H     H_    0.742633 0.315744 0.742470 0.224744
H38   H     H_    0.534007 0.284100 0.766002 0.204253
H39   H     H_    0.468679 0.179296 0.687806 0.206518
C57   C     C_1   0.107640 0.261214 0.151409 0.213478
N4    N     N_1   0.134827 0.194608 0.203534 -0.320195
C58   C     C_1   0.065050 0.905674 0.393010 0.269533
N5    N     N_1   0.965038 0.891738 0.370570 -0.310877

loop_
_geom_bond_atom_site_label_1
_geom_bond_atom_site_label_2
_ccdc_geom_bond_type
C16   C28   A    
C50   C51   S    
C56   H33   S    
Cu2   O8    S    
C19   C20   A    
C21   C26   A    
C10   H15   S    
C53   N3    T    
C7    C8    A    
C41   N1    A    
C14   H2    S    
C47   C48   S    
C2    C46   A    
C54   H39   S    
C55   H36   S    
C5    C6    A    
C36   C37   A    
C19   C21   A    
C25   H5    S    
C30   C31   A    
C20   C25   A    
C4    H14   S    
C33   C36   A    
C18   C19   A    
C9    H18   S    
Cu1   O1    S    
C48   H22   S    
Cu1   Cu2   S    
C16   C17   A    
C40   N1    A    
C50   H31   S    
C1    C28   S    
C18   C53   S    
C14   C27   A    
C52   H27   S    
C20   C28   A    
C34   O7    A    
C15   C23   S    
C12   O4    A    
C47   H24   S    
C8    H17   S    
C56   H34   S    
C21   C22   A    
C23   O5    A    
C17   H4    S    
Cu1   N1    S    
C39   H13   S    
C51   H30   S    
Cu2   O6    S    
C36   C40   A    
C24   C25   A    
Cu1   O5    S    
C49   H20   S    
C48   C49   S    
C8    C9    A    
C15   C26   A    
C29   H7    S    
C45   C46   A    
C3    C45   A    
C1    O1    A    
C3    C57   S    
C31   H12   S    
C35   C39   A    
C43   C44   A    
C37   C38   A    
C16   C50   S    
C44   H8    S    
C15   C27   A    
C54   C55   S    
C7    C13   A    
C50   H32   S    
C17   C18   A    
Cu2   N2    S    
C52   H28   S    
Cu1   O3    S    
C12   O3    A    
C47   H25   S    
C56   H35   S    
C22   C24   A    
C42   C43   A    
Cu2   O4    S    
C23   O6    A    
C3    C4    A    
C44   C45   A    
C51   H29   S    
C40   H9    S    
C6    C46   A    
C58   N5    T    
C29   C41   A    
C31   C32   A    
C34   C43   S    
Cu2   O2    S    
C38   C54   S    
C49   H21   S    
C11   C12   S    
C6    C7    A    
C54   H38   S    
C55   H37   S    
C1    O2    A    
C32   C33   A    
C14   C22   A    
Cu1   O7    S    
C5    C10   A    
C26   H3    S    
C11   C13   A    
C38   C39   A    
C13   H16   S    
C35   N2    A    
C2    C42   A    
C30   H10   S    
C55   C56   S    
C33   C35   A    
C41   H6    S    
C10   C11   A    
C42   H1    S    
C27   C58   S    
C49   H19   S    
C48   H23   S    
C24   C47   S    
C4    C5    A    
C51   C52   S    
C29   C37   A    
C32   H11   S    
C52   H26   S    
C57   N4    T    
C2    C9    A    
C30   N2    A    
C34   O8    A    
