data_mof_unit_21606.cif
_audit_creation_date              2012-12-10T18:57:13-0500
_audit_creation_method            fapswitch 2.2
_symmetry_space_group_name_H-M    P1
_symmetry_Int_Tables_number       1
_space_group_crystal_system       triclinic
_cell_length_a                    8.724315
_cell_length_b                    10.818215
_cell_length_c                    9.555052
_cell_angle_alpha                 89.436794
_cell_angle_beta                  96.951805
_cell_angle_gamma                 90.345766
_cell_volume                      895.136474199

loop_
_atom_site_label
_atom_site_type_symbol
_atom_type_description
_atom_site_fract_x
_atom_site_fract_y
_atom_site_fract_z
_atom_type_partial_charge
C1    C     C_R   0.501818 0.262611 0.500918 0.802011
C2    C     C_R   0.600697 0.573662 0.936285 0.260059
C3    C     C_3   0.772288 0.565917 0.948924 -0.495455
C4    C     C_R   0.204275 0.495910 0.465262 0.878115
C5    C     C_3   0.772760 0.564474 0.106993 -0.515026
C6    C     C_R   0.508017 0.737557 0.500225 0.811924
C7    C     C_R   0.794858 0.489936 0.535032 0.855296
C8    C     C_2   0.039023 0.500201 0.450117 -0.422662
C9    C     C_2   0.956074 0.456948 0.550129 -0.007935
C10   C     C_R   0.482554 0.061876 0.620188 0.090166
C11   C     C_R   0.518426 0.130234 0.504844 -0.109139
C12   C     C_R   0.596129 0.939793 0.398875 0.148916
C13   C     C_R   0.585999 0.069529 0.398867 -0.261385
C14   C     C_3   0.016925 0.366274 0.667219 -0.381243
C15   C     C_3   0.913865 0.251664 0.672050 -0.878625
C16   C     C_3   0.692450 0.881932 0.295327 -0.381294
C17   C     C_3   0.844006 0.833686 0.372660 -0.848842
C18   C     C_3   0.199120 0.869297 0.634208 -0.341674
C19   C     C_3   0.140954 0.765365 0.723672 -0.841903
C20   C     C_R   0.525814 0.871115 0.502651 -0.133209
C21   C     C_R   0.480853 0.935849 0.616831 0.040093
C22   C     C_3   0.351291 0.926041 0.707033 -0.028272
C23   C     C_3   0.352959 0.067995 0.708250 -0.520377
C24   C     C_R   0.601050 0.573335 0.083894 0.240846
C25   C     C_R   0.393853 0.433913 0.063405 -0.066349
C26   C     C_R   0.394320 0.433528 0.914808 -0.094140
Cu1   Cu    Cu3+1 0.499990 0.499980 0.640670 0.918671
Cu2   Cu    Cu3+1 0.500010 0.500020 0.359330 0.929859
H1    H     H_    0.985378 0.553460 0.360759 0.145380
H2    H     H_    0.391160 0.106512 0.814272 0.184738
H3    H     H_    0.310011 0.378102 0.110387 0.140376
H4    H     H_    0.802630 0.275264 0.710033 0.275299
H5    H     H_    0.891523 0.209374 0.565970 0.249750
H6    H     H_    0.972395 0.182299 0.746322 0.236121
H7    H     H_    0.131826 0.329873 0.651620 0.219249
H8    H     H_    0.026321 0.413794 0.770407 0.200256
H9    H     H_    0.823156 0.751873 0.438718 0.247424
H10   H     H_    0.923867 0.807897 0.296039 0.227117
H11   H     H_    0.900895 0.907169 0.440824 0.248879
H12   H     H_    0.311886 0.376648 0.850985 0.129970
H13   H     H_    0.628765 0.808546 0.232533 0.218323
H14   H     H_    0.722169 0.951792 0.216687 0.185644
H15   H     H_    0.111662 0.802585 0.825035 0.238727
H16   H     H_    0.230407 0.693061 0.746287 0.283909
H17   H     H_    0.035626 0.722786 0.666539 0.237177
H18   H     H_    0.107089 0.940247 0.618386 0.202065
H19   H     H_    0.214065 0.832303 0.528692 0.198085
H20   H     H_    0.813657 0.477464 0.909177 0.221660
H21   H     H_    0.825349 0.650723 0.908524 0.193194
H22   H     H_    0.813562 0.475168 0.156252 0.222004
H23   H     H_    0.827323 0.648022 0.157304 0.198100
H24   H     H_    0.632175 0.123299 0.317124 0.158995
H25   H     H_    0.392165 0.885851 0.812643 0.167758
H26   H     H_    0.249894 0.113955 0.650987 0.186536
N1    N     N_R   0.500980 0.500930 0.148050 -0.184577
N2    N     N_R   0.500990 0.500890 0.852140 -0.189465
O1    O     O_R   0.500000 0.319640 0.618810 -0.588383
O2    O     O_R   0.500020 0.319680 0.381230 -0.586411
O3    O     O_R   0.274830 0.499980 0.591380 -0.590357
O4    O     O_R   0.274850 0.500020 0.353800 -0.583760
O5    O     O_R   0.499980 0.680320 0.618770 -0.578376
O6    O     O_R   0.500000 0.680360 0.381190 -0.583925
O7    O     O_R   0.725150 0.499980 0.646200 -0.587671
O8    O     O_R   0.725170 0.500020 0.408620 -0.592236

loop_
_geom_bond_atom_site_label_1
_geom_bond_atom_site_label_2
_ccdc_geom_bond_type
C25   H3    S    
C9    C14   S    
C19   H17   S    
C8    C9    D    
Cu2   O2    S    
C10   C23   S    
C13   H24   S    
C6    C20   S    
C15   H6    S    
C14   C15   S    
C4    C8    S    
C26   H12   S    
C18   H19   S    
C6    O6    A    
C2    C3    S    
C3    H21   S    
C25   N1    A    
C15   H4    S    
C17   H9    S    
C21   C22   S    
C12   C13   A    
C24   N1    A    
C2    C24   A    
C11   C13   A    
C7    O7    A    
C5    C24   S    
Cu1   O7    S    
C12   C20   A    
C2    N2    A    
C8    H1    S    
Cu2   O8    S    
C6    O5    A    
C25   C26   A    
Cu2   N1    S    
C19   H15   S    
C22   H25   S    
C1    O1    A    
C17   H10   S    
Cu2   O4    S    
C10   C21   A    
C14   H8    S    
C7    O8    A    
C5    H22   S    
C10   C11   A    
C26   N2    A    
C18   H18   S    
C23   H2    S    
C1    O2    A    
C3    H20   S    
C14   H7    S    
C19   H16   S    
C4    O3    A    
C23   H26   S    
C18   C19   S    
Cu1   O1    S    
Cu1   Cu2   S    
C7    C9    S    
C17   H11   S    
Cu1   N2    S    
C5    H23   S    
Cu1   O3    S    
Cu1   O5    S    
C3    C5    S    
C20   C21   A    
C18   C22   S    
C16   H14   S    
C16   H13   S    
C15   H5    S    
C22   C23   S    
C12   C16   S    
Cu2   O6    S    
C16   C17   S    
C4    O4    A    
C1    C11   S    
