data_mof_unit_54781.cif
_audit_creation_date              2012-12-10T17:33:48-0500
_audit_creation_method            fapswitch 2.2
_symmetry_space_group_name_H-M    P1
_symmetry_Int_Tables_number       1
_space_group_crystal_system       triclinic
_cell_length_a                    10.62481
_cell_length_b                    12.034748
_cell_length_c                    12.819783
_cell_angle_alpha                 93.745957
_cell_angle_beta                  91.487618
_cell_angle_gamma                 86.99799
_cell_volume                      1633.0612949

loop_
_atom_site_label
_atom_site_type_symbol
_atom_type_description
_atom_site_fract_x
_atom_site_fract_y
_atom_site_fract_z
_atom_type_partial_charge
C1    C     C_R   0.495692 0.522848 0.700448 0.910970
C2    C     C_R   0.466597 0.455426 0.974102 0.199416
C3    C     C_R   0.520185 0.548884 0.026816 0.115734
C4    C     C_R   0.742056 0.501338 0.505268 0.867024
C5    C     C_R   0.540591 0.550452 0.133151 -0.252769
C6    C     C_R   0.450789 0.368900 0.136561 -0.210218
C7    C     C_R   0.433549 0.364962 0.028907 -0.218540
C8    C     C_R   0.388752 0.950750 0.395353 -0.356488
C9    C     C_R   0.396479 0.834819 0.406793 0.609335
C10   C     C_R   0.551202 0.859229 0.542347 -0.076742
C11   C     C_R   0.544580 0.976099 0.534241 -0.153585
C12   C     C_3   0.121498 0.500598 0.507650 0.140045
C13   C     C_R   0.461317 0.022928 0.459978 -0.137543
C14   C     C_R   0.454793 0.140603 0.451415 0.539128
C15   C     C_R   0.606357 0.163557 0.591092 0.388064
C16   C     C_R   0.502972 0.477532 0.299698 0.866165
C17   C     C_R   0.622958 0.046071 0.595677 0.318391
C18   C     C_R   0.257981 0.500023 0.504062 0.830476
C19   C     C_3   0.936272 0.391367 0.549645 -0.322655
C20   C     C_3   0.079212 0.393831 0.555406 -0.435917
C21   C     C_3   0.923153 0.513197 0.396073 -0.525129
C22   C     C_3   0.924490 0.602095 0.581334 0.350332
C23   C     C_3   0.067336 0.508546 0.394991 -0.411411
C24   C     C_3   0.878667 0.502412 0.508751 0.110063
C25   C     C_3   0.483145 0.815777 0.824258 -0.314547
C26   C     C_3   0.265536 0.192270 0.370831 -0.323169
C27   C     C_3   0.667023 0.232953 0.755102 0.144962
C28   C     C_3   0.744125 0.322040 0.812500 -0.812312
C29   C     C_3   0.828662 0.986367 0.604793 -0.339167
C30   C     C_3   0.318882 0.773789 0.243794 0.092476
C31   C     C_3   0.244192 0.682165 0.187903 -0.811253
C32   C     C_3   0.877834 0.694328 0.742299 0.117224
C33   C     C_3   0.876938 0.675631 0.858448 -0.765742
C34   C     C_3   0.069671 0.602763 0.576788 -0.447603
C35   C     C_R   0.501861 0.462917 0.188118 -0.062200
C36   C     C_R   0.491125 0.539730 0.812294 -0.172107
C37   C     C_R   0.550956 0.640263 0.972959 -0.355178
C38   C     C_R   0.533442 0.637827 0.865073 0.531241
C39   C     C_R   0.450045 0.452782 0.867162 -0.380982
H1    H     H_    0.909539 0.319166 0.496264 0.179789
H2    H     H_    0.900305 0.377932 0.628319 0.226679
H3    H     H_    0.323443 0.983502 0.338548 0.164217
H4    H     H_    0.615402 0.821008 0.597988 0.196233
H5    H     H_    0.112786 0.392018 0.638334 0.178507
H6    H     H_    0.118683 0.317363 0.513380 0.172640
H7    H     H_    0.887447 0.444506 0.342704 0.185943
H8    H     H_    0.101556 0.435731 0.343879 0.160984
H9    H     H_    0.882950 0.681187 0.550543 0.054939
H10   H     H_    0.113137 0.601112 0.656716 0.173702
H11   H     H_    0.480062 0.849039 0.907218 0.148676
H12   H     H_    0.095311 0.681874 0.544222 0.158605
H13   H     H_    0.387614 0.792386 0.795719 0.157344
H14   H     H_    0.511826 0.884023 0.777310 0.202496
H15   H     H_    0.228410 0.160925 0.443441 0.130054
H16   H     H_    0.224884 0.144744 0.302123 0.152700
H17   H     H_    0.231176 0.279534 0.363332 0.191231
H18   H     H_    0.698562 0.152145 0.786348 0.183044
H19   H     H_    0.565845 0.249871 0.773074 0.123212
H20   H     H_    0.722893 0.404294 0.779965 0.276509
H21   H     H_    0.721850 0.328276 0.896904 0.211441
H22   H     H_    0.846290 0.299861 0.804023 0.237879
H23   H     H_    0.885399 0.593357 0.365987 0.178323
H24   H     H_    0.861432 0.067937 0.583054 0.191630
H25   H     H_    0.818743 0.928600 0.533940 0.154251
H26   H     H_    0.902577 0.948873 0.656239 0.172165
H27   H     H_    0.417744 0.765421 0.216483 0.136352
H28   H     H_    0.274329 0.854315 0.220831 0.118267
H29   H     H_    0.142462 0.696462 0.204918 0.232259
H30   H     H_    0.256476 0.682399 0.102144 0.209162
H31   H     H_    0.276776 0.599418 0.214402 0.262361
H32   H     H_    0.788744 0.740003 0.719668 0.206789
H33   H     H_    0.958504 0.746743 0.728611 0.107624
H34   H     H_    0.099028 0.584733 0.360842 0.205328
H35   H     H_    0.969958 0.638986 0.883838 0.229228
H36   H     H_    0.857702 0.756235 0.903839 0.210869
H37   H     H_    0.803170 0.617492 0.874523 0.268107
H38   H     H_    0.582591 0.621806 0.173831 0.145163
H39   H     H_    0.420233 0.301018 0.179577 0.196684
H40   H     H_    0.591078 0.712247 0.013947 0.154035
H41   H     H_    0.393028 0.292649 0.988935 0.131655
H42   H     H_    0.409247 0.381148 0.826118 0.163078
N1    N     N_R   0.523380 0.207800 0.519350 -0.194320
N2    N     N_R   0.476620 0.792180 0.480650 -0.143729
O1    O     O_R   0.506240 0.421700 0.658830 -0.607924
O2    O     O_3   0.398177 0.186782 0.364672 -0.583608
O3    O     O_3   0.686998 0.233833 0.646548 -0.577386
O4    O     O_3   0.715296 0.999888 0.660069 -0.624279
O5    O     O_3   0.314402 0.764167 0.353002 -0.594289
O6    O     O_3   0.887559 0.589796 0.685376 -0.629475
O7    O     O_R   0.491240 0.609310 0.646410 -0.585676
O8    O     O_R   0.692710 0.406190 0.506230 -0.584155
O9    O     O_R   0.677700 0.593810 0.493810 -0.649910
O10   O     O_R   0.508760 0.390690 0.353590 -0.571702
O11   O     O_R   0.493760 0.578300 0.341170 -0.599564
O12   O     O_R   0.322300 0.406190 0.506190 -0.627925
O13   O     O_R   0.307290 0.593810 0.493770 -0.582467
O14   O     O_3   0.572040 0.725110 0.810716 -0.606329
Zn1   Zn    Zn3+2 0.510020 0.374730 0.508290 0.997710
Zn2   Zn    Zn3+2 0.489980 0.625270 0.491710 0.979082

loop_
_geom_bond_atom_site_label_1
_geom_bond_atom_site_label_2
_ccdc_geom_bond_type
C22   H9    S    
C29   H24   S    
C1    O7    A    
C18   O13   A    
C19   C20   S    
C26   H16   S    
O12   Zn1   S    
C32   H33   S    
C1    O1    A    
C37   H40   S    
C12   C23   S    
C34   H12   S    
C8    C13   A    
C8    H3    S    
C9    O5    S    
C30   C31   S    
C4    C24   S    
C6    H39   S    
O13   Zn2   S    
C10   N2    A    
C6    C35   A    
C25   H11   S    
C2    C39   A    
C33   H36   S    
C31   H31   S    
C2    C7    A    
C8    C9    A    
C15   N1    A    
C30   H28   S    
C4    O8    A    
C28   H22   S    
C29   H25   S    
N2    Zn2   S    
C13   C14   A    
C18   O12   A    
N1    Zn1   S    
C23   H34   S    
C38   O14   S    
C26   H15   S    
C20   H5    S    
C32   H32   S    
C19   H1    S    
C28   H21   S    
C31   H29   S    
C22   C34   S    
C23   H8    S    
C39   H42   S    
C27   H18   S    
C27   O3    S    
C37   C38   A    
C33   H37   S    
C32   O6    S    
C12   C20   S    
C16   O10   A    
C21   H23   S    
C30   H27   S    
C9    N2    A    
C15   O3    S    
C29   H26   S    
C25   O14   S    
C21   C23   S    
C5    H38   S    
C22   C24   S    
C14   N1    A    
C12   C34   S    
O7    Zn2   S    
C21   H7    S    
C28   H20   S    
C15   C17   A    
C11   C17   A    
C34   H10   S    
C10   H4    S    
C17   O4    S    
C36   C39   A    
C20   H6    S    
C14   O2    S    
C25   H14   S    
C3    C5    A    
C27   H19   S    
C26   H17   S    
O9    Zn2   S    
C6    C7    A    
C16   O11   A    
O1    Zn1   S    
C32   C33   S    
C36   C38   A    
C2    C3    A    
C25   H13   S    
C16   C35   S    
C11   C13   A    
O11   Zn2   S    
C26   O2    S    
C5    C35   A    
C22   O6    S    
C19   C24   S    
O8    Zn1   S    
C29   O4    S    
C10   C11   A    
C33   H35   S    
C31   H30   S    
C3    C37   A    
C21   C24   S    
C12   C18   S    
C27   C28   S    
C30   O5    S    
O10   Zn1   S    
C19   H2    S    
C1    C36   S    
C7    H41   S    
C4    O9    A    
