data_mof_unit_28570.cif
_audit_creation_date              2012-12-11T15:31:43-0500
_audit_creation_method            fapswitch 2.2
_symmetry_space_group_name_H-M    P1
_symmetry_Int_Tables_number       1
_space_group_crystal_system       triclinic
_cell_length_a                    6.954071
_cell_length_b                    14.740788
_cell_length_c                    21.317611
_cell_angle_alpha                 74.91775
_cell_angle_beta                  90.372034
_cell_angle_gamma                 90.531091
_cell_volume                      2109.85234652

loop_
_atom_site_label
_atom_site_type_symbol
_atom_type_description
_atom_site_fract_x
_atom_site_fract_y
_atom_site_fract_z
_atom_type_partial_charge
O1    O     O_R   0.648150 0.130050 0.214300 -0.535069
O2    O     O_R   0.351850 0.869950 0.785700 -0.535069
O3    O     O_R   0.320490 0.006660 0.340150 -0.543682
O4    O     O_R   0.679510 0.993340 0.659850 -0.543682
O5    O     O_R   0.146100 0.869940 0.285700 -0.539358
O6    O     O_R   0.853900 0.130060 0.714300 -0.539357
C1    C     C_R   0.489327 0.001579 0.367128 0.674731
C2    C     C_R   0.510673 0.998421 0.632872 0.674731
O7    O     O_R   0.318690 0.137980 0.218120 -0.542246
O8    O     O_R   0.681310 0.862020 0.781880 -0.542246
O9    O     O_R   0.144280 0.002190 0.162800 -0.544117
O10   O     O_R   0.855720 0.997810 0.837200 -0.544117
C3    C     C_R   0.487934 0.175587 0.205916 0.718470
C4    C     C_R   0.512065 0.824413 0.794084 0.718470
O11   O     O_R   0.649960 0.997790 0.337200 -0.541148
O12   O     O_R   0.350040 0.002210 0.662800 -0.541147
O13   O     O_3   0.479300 0.955290 0.231990 -0.370924
O14   O     O_3   0.520700 0.044710 0.768010 -0.370924
V1    V     V_3+5 0.206040 0.008290 0.253340 1.409939
V2    V     V_3+5 0.793960 0.991710 0.746660 1.409939
O15   O     O_R   0.814320 0.993320 0.159850 -0.537722
O16   O     O_R   0.185680 0.006680 0.840150 -0.537723
C5    C     C_R   0.982340 0.000290 0.132731 0.712531
C6    C     C_R   0.017660 0.999710 0.867269 0.712530
O17   O     O_R   0.816120 0.862000 0.281880 -0.540630
O18   O     O_R   0.183880 0.138000 0.718120 -0.540630
C7    C     C_R   0.984358 0.824364 0.293818 0.692025
C8    C     C_R   0.015642 0.175636 0.706182 0.692025
V3    V     V_3+5 0.705540 0.991700 0.246660 1.422154
V4    V     V_3+5 0.294460 0.008300 0.753340 1.422153
O19   O     O_3   0.982150 0.044700 0.268010 -0.371186
O20   O     O_3   0.017850 0.955300 0.731990 -0.371186
C9    C     C_R   0.990466 0.722876 0.321613 -0.033506
C10   C     C_R   0.009534 0.277124 0.678387 -0.033507
C11   C     C_R   0.974356 0.565305 0.308669 -0.152300
C12   C     C_R   0.025648 0.434694 0.691331 -0.152306
C13   C     C_R   0.976768 0.661951 0.281484 -0.173339
C14   C     C_R   0.023234 0.338048 0.718516 -0.173335
C15   C     C_R   0.001607 0.687387 0.389051 -0.212539
C16   C     C_R   0.998393 0.312613 0.610949 -0.212539
C17   C     C_R   0.996988 0.589404 0.418214 0.085312
C18   C     C_R   0.003014 0.410596 0.581786 0.085313
C19   C     C_R   0.983211 0.528653 0.376402 0.137236
C20   C     C_R   0.016792 0.471347 0.623598 0.137236
C21   C     C_R   0.003726 0.549943 0.487114 0.061005
C22   C     C_R   0.996277 0.450057 0.512886 0.061005
C23   C     C_R   0.982773 0.393044 0.468918 -0.192187
C24   C     C_R   0.017231 0.606956 0.531082 -0.192185
C25   C     C_R   0.976756 0.431753 0.402273 -0.211219
C26   C     C_R   0.023248 0.568246 0.597727 -0.211221
H1    H     H_    0.965981 0.385074 0.370569 0.121647
H2    H     H_    0.034025 0.614926 0.629430 0.121646
H3    H     H_    0.989377 0.261432 0.583038 0.089757
H4    H     H_    0.010620 0.738568 0.416962 0.089757
H5    H     H_    0.032858 0.310739 0.770758 0.108827
H6    H     H_    0.967146 0.689261 0.229242 0.108827
H7    H     H_    0.963649 0.519052 0.276688 0.131872
H8    H     H_    0.036357 0.480947 0.723312 0.131869
H9    H     H_    0.976051 0.317558 0.484170 0.117661
H10   H     H_    0.023954 0.682442 0.515830 0.117660
C27   C     C_3   0.849852 0.949041 0.985449 -0.262967
C28   C     C_3   0.150148 0.050959 0.014551 -0.262967
C29   C     C_3   0.008118 0.911705 0.037348 0.089409
C30   C     C_3   0.991882 0.088294 0.962652 0.089408
H11   H     H_    0.731416 0.905969 0.973112 0.127837
H12   H     H_    0.268584 0.094031 0.026888 0.127837
C31   C     C_3   0.991204 0.000708 0.062434 -0.099398
C32   C     C_3   0.008796 0.999291 0.937566 -0.099399
C33   C     C_3   0.836929 0.038152 0.010547 0.235699
C34   C     C_3   0.163071 0.961847 0.989453 0.235699
C35   C     C_3   0.680891 0.994729 0.479497 -0.119109
C36   C     C_3   0.319109 0.005271 0.520503 -0.119109
C37   C     C_3   0.602801 0.073699 0.507947 -0.136551
C38   C     C_3   0.397199 0.926301 0.492053 -0.136551
H13   H     H_    0.687535 0.134550 0.514960 0.098556
H14   H     H_    0.312465 0.865450 0.485040 0.098556
H15   H     H_    0.830182 0.990440 0.462387 0.107605
H16   H     H_    0.169818 0.009560 0.537613 0.107605
C39   C     C_3   0.502467 0.999008 0.562250 -0.004456
C40   C     C_3   0.497533 0.000992 0.437749 -0.004456
C41   C     C_3   0.580616 0.920053 0.534608 -0.143210
C42   C     C_3   0.419384 0.079947 0.465392 -0.143210
H17   H     H_    0.646773 0.854024 0.563600 0.100076
H18   H     H_    0.353227 0.145976 0.436400 0.100076
C43   C     C_R   0.498054 0.277147 0.178289 -0.066962
C44   C     C_R   0.501946 0.722853 0.821711 -0.066959
C45   C     C_R   0.518153 0.434812 0.192439 0.206832
C46   C     C_R   0.481853 0.565188 0.807561 0.206828
C47   C     C_R   0.510306 0.337345 0.218815 -0.214755
C48   C     C_R   0.489700 0.662654 0.781185 -0.214761
C49   C     C_R   0.493371 0.313096 0.111000 -0.226851
C50   C     C_R   0.506625 0.686904 0.889000 -0.226851
C51   C     C_R   0.500679 0.411035 0.082097 0.040578
C52   C     C_R   0.499322 0.588965 0.917903 0.040576
C53   C     C_R   0.514216 0.471873 0.124046 0.126159
C54   C     C_R   0.485789 0.528127 0.875954 0.126166
C55   C     C_R   0.495158 0.450194 0.013088 0.074526
C56   C     C_R   0.504844 0.549806 0.986912 0.074524
C57   C     C_R   0.520212 0.606989 0.030602 -0.202324
C58   C     C_R   0.479794 0.393010 0.969397 -0.202327
C59   C     C_R   0.524580 0.568877 0.097212 -0.208585
C60   C     C_R   0.475428 0.431123 0.902788 -0.208581
H19   H     H_    0.536341 0.616977 0.127796 0.154806
H20   H     H_    0.463671 0.383023 0.872203 0.154810
H21   H     H_    0.515911 0.737986 0.916964 0.112612
H22   H     H_    0.484077 0.262015 0.083036 0.112611
H23   H     H_    0.487201 0.691806 0.728966 0.097875
H24   H     H_    0.512807 0.308193 0.271033 0.097873
H25   H     H_    0.529353 0.682394 0.015318 0.129172
H26   H     H_    0.470657 0.317606 0.984681 0.129172
N1    N     N_3   0.529788 0.496331 0.234854 -0.689629
H27   H     H_    0.552236 0.457886 0.282947 0.233027
H28   H     H_    0.396059 0.528656 0.233536 0.224490
N2    N     N_3   0.470220 0.503668 0.765146 -0.689635
H29   H     H_    0.447743 0.542112 0.717054 0.233028
H30   H     H_    0.603958 0.471353 0.766457 0.224495
C61   C     C_3   0.017788 0.812431 0.082401 -0.375582
C62   C     C_3   0.025113 0.737406 0.044463 -0.280673
C63   C     C_3   0.032323 0.639124 0.090664 -0.750444
H31   H     H_    0.160404 0.632232 0.122822 0.225672
H32   H     H_    0.901812 0.625296 0.121435 0.234530
H33   H     H_    0.040236 0.585843 0.062313 0.231663
H34   H     H_    0.895614 0.742507 0.012938 0.190481
H35   H     H_    0.154720 0.748314 0.013111 0.221386
H36   H     H_    0.147559 0.807442 0.113795 0.165846
H37   H     H_    0.888478 0.800576 0.113955 0.159050
C64   C     C_3   0.982213 0.187569 0.917599 -0.375582
C65   C     C_3   0.974891 0.262594 0.955537 -0.280673
C66   C     C_3   0.967684 0.360875 0.909335 -0.750443
H38   H     H_    0.098195 0.374703 0.878565 0.234530
H39   H     H_    0.839604 0.367769 0.877178 0.225674
H40   H     H_    0.959772 0.414157 0.937687 0.231662
H41   H     H_    0.845284 0.251687 0.986889 0.221385
H42   H     H_    0.104390 0.257492 0.987062 0.190481
H43   H     H_    0.111522 0.199423 0.886044 0.159051
H44   H     H_    0.852441 0.192558 0.886205 0.165846
N3    N     N_3   0.659373 0.081851 0.022702 -0.694635
H45   H     H_    0.584787 0.101825 0.978622 0.215176
H46   H     H_    0.577517 0.029950 0.054227 0.231074
N4    N     N_3   0.340627 0.918149 0.977298 -0.694634
H47   H     H_    0.415215 0.898177 0.021378 0.215176
H48   H     H_    0.422482 0.970050 0.945772 0.231074

loop_
_geom_bond_atom_site_label_1
_geom_bond_atom_site_label_2
_ccdc_geom_bond_type
C46   C54   A    
C58   H26   S    
C54   C60   A    
C37   H13   S    
N1    H27   S    
O4    C2    A    
V1    O19   S    
C65   C66   S    
C55   C56   A    
C43   C49   A    
C23   C25   A    
C21   C22   A    
C7    C9    S    
C34   N4    S    
N3    H46   S    
O9    V1    S    
C9    C15   A    
C38   H14   S    
C28   C31   S    
C10   C16   A    
C30   C32   S    
C11   C13   A    
C64   H43   S    
C48   H23   S    
C36   C39   S    
C12   H8    S    
C29   C61   S    
C63   H33   S    
C15   H4    S    
C45   N1    S    
C52   C56   A    
O12   V4    S    
C57   H25   S    
O13   V3    S    
C28   C34   S    
C18   C22   A    
C5    C31   S    
C27   C29   S    
O7    C3    A    
C62   C63   S    
C36   H16   S    
O5    C7    A    
C13   H6    S    
O7    V1    S    
O6    C8    A    
C14   H5    S    
O8    V2    S    
C25   H1    S    
C45   C53   A    
C2    C39   S    
C26   H2    S    
C24   H10   S    
O14   V4    S    
C11   C19   A    
C61   H37   S    
C28   C30   S    
C52   C54   A    
C66   H40   S    
C2    O12   A    
C24   C26   A    
C8    C10   S    
C51   C53   A    
C38   C40   S    
O17   V3    S    
C17   C19   A    
C49   H22   S    
C18   C20   A    
O1    V3    S    
C35   C40   S    
C41   H17   S    
O11   V3    S    
C63   H32   S    
C33   N3    S    
C29   C31   S    
C28   H12   S    
C64   H44   S    
C4    C44   S    
C36   C38   S    
C44   C48   A    
C39   C41   S    
C43   C47   A    
C19   C25   A    
C1    O11   A    
O15   V3    S    
C9    C13   A    
C31   C33   S    
C60   H20   S    
C65   H42   S    
C49   C51   A    
C29   C34   S    
C30   C64   S    
O10   V2    S    
C58   C60   A    
C37   C39   S    
N1    H28   S    
C62   H35   S    
C30   C33   S    
N4    H47   S    
O3    V1    S    
C40   C42   S    
C57   C59   A    
C46   C48   A    
C56   C57   A    
C42   H18   S    
C45   C47   A    
O8    C4    A    
O16   C6    A    
C12   C20   A    
O1    C3    A    
C38   C41   S    
C64   C65   S    
C51   C55   A    
C37   C42   S    
C35   H15   S    
C55   C58   A    
C35   C37   S    
C66   H38   S    
V2    O20   S    
C21   C24   A    
C20   C26   A    
C22   C23   A    
O16   V4    S    
C10   C14   A    
O18   C8    A    
N4    H48   S    
C16   C18   A    
N2    H30   S    
C63   H31   S    
N2    H29   S    
O5    V1    S    
O17   C7    A    
O6    V2    S    
N3    H45   S    
O10   C6    A    
O3    C1    A    
O2    V4    S    
C11   H7    S    
C27   C33   S    
O15   C5    A    
V3    O19   S    
C44   C50   A    
C61   C62   S    
C12   C14   A    
V4    O20   S    
C27   C32   S    
C50   C52   A    
C47   H24   S    
O9    C5    A    
O13   V1    S    
O14   V2    S    
C62   H34   S    
C46   N2    S    
O2    C4    A    
C6    C32   S    
C23   H9    S    
O4    V2    S    
C27   H11   S    
C50   H21   S    
C15   C17   A    
C59   H19   S    
C16   H3    S    
C3    C43   S    
C32   C34   S    
C17   C21   A    
C35   C41   S    
C65   H41   S    
C61   H36   S    
C36   C42   S    
C53   C59   A    
C1    C40   S    
C66   H39   S    
O18   V4    S    
