data_mof_unit_46300.cif
_audit_creation_date              2012-12-11T17:41:31-0500
_audit_creation_method            fapswitch 2.2
_symmetry_space_group_name_H-M    P1
_symmetry_Int_Tables_number       1
_space_group_crystal_system       triclinic
_cell_length_a                    16.293786
_cell_length_b                    15.328098
_cell_length_c                    15.433055
_cell_angle_alpha                 109.509051
_cell_angle_beta                  121.416561
_cell_angle_gamma                 59.216872
_cell_volume                      2814.05777277

loop_
_atom_site_label
_atom_site_type_symbol
_atom_type_description
_atom_site_fract_x
_atom_site_fract_y
_atom_site_fract_z
_atom_type_partial_charge
C1    C     C_R   0.789060 0.951005 0.776694 -0.116112
C2    C     C_R   0.210937 0.048999 0.223307 -0.116118
C3    C     C_R   0.164733 0.281466 0.512301 0.035065
C4    C     C_R   0.835265 0.718533 0.487697 0.035066
C5    C     C_R   0.502232 0.320975 0.507462 0.016122
C6    C     C_R   0.497767 0.679026 0.492542 0.016124
C7    C     C_R   0.504343 0.981066 0.815854 0.058742
C8    C     C_R   0.495658 0.018923 0.184143 0.058740
C9    C     C_R   0.865090 0.809416 0.020108 -0.078061
C10   C     C_R   0.134915 0.190578 0.979893 -0.078060
C11   C     C_R   0.768385 0.825648 0.007189 -0.089262
C12   C     C_R   0.231618 0.174342 0.992810 -0.089260
C13   C     C_R   0.695313 0.924174 0.020281 0.025722
C14   C     C_R   0.304688 0.075815 0.979717 0.025723
C15   C     C_R   0.721313 0.008110 0.052999 0.270034
C16   C     C_R   0.278686 0.991882 0.947000 0.270032
C17   C     C_R   0.819259 0.990655 0.067837 -0.176017
C18   C     C_R   0.180739 0.009341 0.932165 -0.176021
C19   C     C_R   0.890420 0.891884 0.049616 -0.243528
C20   C     C_R   0.109581 0.108113 0.950387 -0.243533
C21   C     C_R   0.582024 0.929286 0.072355 0.222015
C22   C     C_R   0.417977 0.070701 0.927643 0.222012
C23   C     C_R   0.212880 0.277850 0.457223 -0.130577
C24   C     C_R   0.787119 0.722149 0.542776 -0.130577
C25   C     C_R   0.493842 0.004060 0.086502 -0.027513
C26   C     C_R   0.506159 0.995926 0.913495 -0.027511
C27   C     C_R   0.407063 0.063674 0.006575 -0.039883
C28   C     C_R   0.592939 0.936313 0.993422 -0.039883
C29   C     C_2   0.072811 0.366827 0.523757 0.213410
C30   C     C_2   0.927186 0.633171 0.476240 0.213412
C31   C     C_2   0.045285 0.455531 0.498104 -0.150083
C32   C     C_2   0.954713 0.544468 0.501894 -0.150084
C33   C     C_2   0.940063 0.995965 0.861355 -0.233487
C34   C     C_2   0.059932 0.004040 0.138648 -0.233485
C35   C     C_R   0.129496 0.796737 0.373635 0.023827
C36   C     C_R   0.870503 0.203265 0.626368 0.023828
C37   C     C_R   0.219925 0.721292 0.436416 0.208559
C38   C     C_R   0.780072 0.278710 0.563588 0.208555
C39   C     C_R   0.291283 0.643823 0.396593 -0.017084
C40   C     C_R   0.708716 0.356178 0.603412 -0.017086
C41   C     C_R   0.262547 0.631559 0.291924 -0.107858
C42   C     C_R   0.737454 0.368443 0.708081 -0.107858
C43   C     C_R   0.166728 0.700537 0.228303 -0.098077
C44   C     C_R   0.833273 0.299465 0.771701 -0.098078
C45   C     C_R   0.589741 0.229982 0.535494 -0.112508
C46   C     C_R   0.410259 0.770019 0.464508 -0.112510
C47   C     C_R   0.102627 0.783821 0.270070 -0.187161
C48   C     C_R   0.897374 0.216181 0.729934 -0.187161
C49   C     C_R   0.412596 0.501600 0.498126 -0.139720
C50   C     C_R   0.587403 0.498401 0.501880 -0.139721
C51   C     C_R   0.508387 0.416216 0.523346 0.038801
C52   C     C_R   0.491611 0.583785 0.476660 0.038801
C53   C     C_R   0.599802 0.419294 0.536484 0.078677
C54   C     C_R   0.400196 0.580707 0.463522 0.078677
C55   C     C_2   0.952508 0.000546 0.955154 -0.123943
C56   C     C_2   0.047487 0.999459 0.044849 -0.123949
C57   C     C_R   0.413578 0.000932 0.723654 0.237354
C58   C     C_R   0.586423 0.999062 0.276344 0.237353
C59   C     C_R   0.411377 0.300951 0.446053 0.183758
C60   C     C_R   0.588623 0.699049 0.553949 0.183757
C61   C     C_R   0.592042 0.949135 0.800716 -0.130735
C62   C     C_R   0.407958 0.050857 0.199282 -0.130735
C63   C     C_R   0.215645 0.188600 0.549478 -0.036318
C64   C     C_R   0.784354 0.811399 0.450521 -0.036320
C65   C     C_R   0.793297 0.038221 0.687844 -0.135154
C66   C     C_R   0.206701 0.961783 0.312158 -0.135151
C67   C     C_R   0.843091 0.997093 0.778698 0.160695
C68   C     C_R   0.156905 0.002912 0.221305 0.160694
H1    H     H_    0.816151 0.897743 0.827814 0.117857
H2    H     H_    0.183846 0.102262 0.172189 0.117859
H3    H     H_    0.005623 0.003070 0.156451 0.140063
H4    H     H_    0.994371 0.996938 0.843553 0.140063
H5    H     H_    0.966687 0.875915 0.058440 0.145815
H6    H     H_    0.033314 0.124084 0.941566 0.145816
H7    H     H_    0.920771 0.733347 0.006749 0.145436
H8    H     H_    0.079234 0.266649 0.993254 0.145435
H9    H     H_    0.748482 0.761232 0.981842 0.170244
H10   H     H_    0.251524 0.238757 0.018156 0.170245
H11   H     H_    0.838232 0.055424 0.091748 0.148033
H12   H     H_    0.161763 0.944573 0.908255 0.148034
H13   H     H_    0.907076 0.536606 0.525709 0.162741
H14   H     H_    0.092923 0.463393 0.474291 0.162741
H15   H     H_    0.035270 0.843521 0.223243 0.148211
H16   H     H_    0.964734 0.156482 0.776761 0.148213
H17   H     H_    0.184442 0.330917 0.406582 0.150129
H18   H     H_    0.815556 0.669082 0.593416 0.150128
H19   H     H_    0.316637 0.569977 0.261698 0.157954
H20   H     H_    0.683364 0.430025 0.738309 0.157954
H21   H     H_    0.145592 0.693532 0.147740 0.135146
H22   H     H_    0.854411 0.306470 0.852265 0.135147
H23   H     H_    0.344050 0.501207 0.492581 0.173705
H24   H     H_    0.655948 0.498794 0.507425 0.173705
H25   H     H_    0.671124 0.214239 0.578242 0.117575
H26   H     H_    0.328875 0.785762 0.421763 0.117576
H27   H     H_    0.674081 0.923906 0.852441 0.129659
H28   H     H_    0.325920 0.076080 0.147556 0.129659
H29   H     H_    0.191931 0.163577 0.586966 0.170185
H30   H     H_    0.808069 0.836421 0.413033 0.170185
H31   H     H_    0.822266 0.069276 0.662397 0.103055
H32   H     H_    0.177733 0.930728 0.337607 0.103054
H33   H     H_    0.111217 0.990219 0.034563 0.156211
H34   H     H_    0.888780 0.009782 0.965441 0.156209
N1    N     N_R   0.705410 0.966550 0.689210 -0.048394
N2    N     N_R   0.294590 0.033450 0.310790 -0.048394
N3    N     N_R   0.294590 0.188320 0.465660 -0.044031
N4    N     N_R   0.705410 0.811680 0.534340 -0.044031
N5    N     N_R   0.556610 0.157790 0.497330 -0.054978
N6    N     N_R   0.443390 0.842210 0.502670 -0.054979
N7    N     N_R   0.443390 0.997080 0.657540 -0.073976
N8    N     N_R   0.556610 0.002920 0.342460 -0.073977
N9    N     N_R   0.443390 0.203250 0.451380 -0.062236
N10   N     N_R   0.556610 0.796750 0.548620 -0.062236
N11   N     N_R   0.556610 0.951620 0.703500 -0.057270
N12   N     N_R   0.443390 0.048380 0.296500 -0.057270
N13   N     N_R   0.294590 0.131500 0.522480 -0.054183
N14   N     N_R   0.705410 0.868500 0.477520 -0.054183
N15   N     N_R   0.705410 0.023370 0.632390 -0.047744
N16   N     N_R   0.294590 0.976630 0.367610 -0.047744
Ni1   Ni    Ni4+2 0.629830 0.882720 0.617850 0.245637
Ni2   Ni    Ni4+2 0.370170 0.117280 0.382150 0.245637
Ni3   Ni    Ni4+2 0.629830 0.013030 0.487540 0.246798
Ni4   Ni    Ni4+2 0.370170 0.986970 0.512460 0.246796
I1    I     I_    0.619399 0.161693 0.078939 -0.296698
I2    I     I_    0.380596 0.838297 0.921060 -0.296697
I3    I     I_    0.683314 0.789705 0.147116 -0.329111
I4    I     I_    0.316691 0.210284 0.852885 -0.329112
I5    I     I_    0.005875 0.654669 0.414205 -0.333697
I6    I     I_    0.994121 0.345328 0.585790 -0.333701
C69   C     C_1   0.081344 0.899856 0.414153 0.158534
N17   N     N_1   0.044263 0.984730 0.442377 -0.027560
C70   C     C_1   0.918654 0.100146 0.585850 0.158530
N18   N     N_1   0.955734 0.015272 0.557627 -0.027560
I7    I     I_    0.255801 0.732457 0.591986 -0.285162
I8    I     I_    0.744192 0.267542 0.408016 -0.285162
I9    I     I_    0.273678 0.987215 0.681969 -0.364886
I10   I     I_    0.726322 0.012778 0.318026 -0.364880
I11   I     I_    0.273474 0.374507 0.316533 -0.442748
I12   I     I_    0.726525 0.625496 0.683470 -0.442752

loop_
_geom_bond_atom_site_label_1
_geom_bond_atom_site_label_2
_ccdc_geom_bond_type
C33   C55   D    
C66   C68   A    
C55   C56   S    
C34   C56   D    
C64   N14   A    
C62   H28   S    
N4    Ni1   S    
C3    C23   A    
C45   H25   S    
C49   C51   A    
C39   C41   A    
C32   H13   S    
C55   H34   S    
C43   H21   S    
C7    C26   S    
C15   I1    S    
C35   C37   A    
C56   H33   S    
C62   N12   A    
C2    C68   A    
N8    Ni3   S    
C4    C24   A    
N7    Ni4   S    
C22   I4    S    
C39   C54   S    
C59   I11   S    
C49   C54   A    
C23   N3    A    
C1    N1    A    
C17   H11   S    
C12   H10   S    
C24   H18   S    
N16   Ni4   S    
C66   H32   S    
C3    C29   S    
N15   Ni3   S    
C7    C61   A    
C11   H9    S    
C33   H4    S    
C8    C58   A    
N11   Ni1   S    
C10   H8    S    
C9    C19   A    
C57   N7    A    
C10   C20   A    
C65   C67   A    
C46   N6    A    
C50   C52   A    
N3    Ni2   S    
C47   H15   S    
C14   C27   S    
C35   C69   S    
N7    N11   A    
C63   N13   A    
C64   H30   S    
C35   C47   A    
N13   Ni4   S    
C8    C25   S    
C41   C43   A    
N1    N15   A    
C42   C44   A    
C49   H23   S    
C52   C54   A    
N2    N16   A    
C41   H19   S    
C50   C53   A    
N14   Ni3   S    
C5    C59   A    
C6    C60   A    
C19   H5    S    
C65   H31   S    
C36   C70   S    
C34   C68   S    
C17   C19   A    
C58   I10   S    
C5    C45   A    
C1    H1    S    
C48   H16   S    
N4    N14   A    
N9    Ni2   S    
C51   C53   A    
C60   N10   A    
C9    C11   A    
C59   N9    A    
C31   C32   S    
C46   H26   S    
C2    N2    A    
C29   C31   D    
C20   H6    S    
C13   C28   S    
C16   C18   A    
C31   H14   S    
C10   C12   A    
C50   H24   S    
C21   C28   A    
C12   C14   A    
C22   C27   A    
C13   C15   A    
C61   N11   A    
C14   C16   A    
C24   N4    A    
N5    Ni3   S    
C21   I3    S    
C70   N18   T    
N8    N12   A    
C44   H22   S    
C33   C67   S    
C69   N17   T    
C15   C17   A    
C21   C25   A    
C30   I5    S    
C6    C46   A    
C58   N8    A    
N5    N9    A    
N3    N13   A    
N1    Ni1   S    
C63   H29   S    
N6    Ni4   S    
N10   Ni1   S    
C61   H27   S    
C3    C63   A    
C25   C27   A    
C4    C64   A    
C26   C28   A    
C45   N5    A    
C36   C38   A    
C16   I2    S    
C23   H17   S    
C37   C39   A    
C30   C32   D    
C11   C13   A    
C38   C40   A    
C40   C42   A    
C1    C67   A    
C36   C48   A    
C18   C20   A    
C38   I8    S    
C37   I7    S    
C4    C30   S    
C22   C26   A    
N6    N10   A    
C42   H20   S    
C18   H12   S    
C40   C53   S    
C66   N16   A    
C29   I6    S    
C8    C62   A    
C65   N15   A    
C57   I9    S    
C9    H7    S    
C6    C52   S    
C2    H2    S    
C43   C47   A    
C34   H3    S    
C7    C57   A    
N12   Ni2   S    
C44   C48   A    
C60   I12   S    
C5    C51   S    
N2    Ni2   S    
