data_mof_unit_52436.cif
_audit_creation_date              2012-12-10T18:09:53-0500
_audit_creation_method            fapswitch 2.2
_symmetry_space_group_name_H-M    P1
_symmetry_Int_Tables_number       1
_space_group_crystal_system       triclinic
_cell_length_a                    10.644327
_cell_length_b                    12.591325
_cell_length_c                    13.119929
_cell_angle_alpha                 82.222267
_cell_angle_beta                  90.330976
_cell_angle_gamma                 102.385159
_cell_volume                      1701.20072505

loop_
_atom_site_label
_atom_site_type_symbol
_atom_type_description
_atom_site_fract_x
_atom_site_fract_y
_atom_site_fract_z
_atom_type_partial_charge
C1    C     C_R   0.482952 0.438439 0.691465 0.896389
C2    C     C_R   0.474312 0.446982 0.974271 0.090731
C3    C     C_R   0.439228 0.464265 0.870820 -0.008939
C4    C     C_R   0.741798 0.500047 0.501373 0.890826
C5    C     C_R   0.468479 0.528825 0.036747 0.099481
C6    C     C_R   0.408281 0.616767 0.001225 0.161853
C7    C     C_R   0.357136 0.623511 0.903232 -0.234932
C8    C     C_R   0.372370 0.548263 0.838647 -0.164528
C9    C     C_R   0.522707 0.526154 0.133485 -0.260606
C10   C     C_R   0.441854 0.684122 0.165772 -0.211002
C11   C     C_R   0.473890 0.398242 0.801642 -0.174297
C12   C     C_3   0.121527 0.500150 0.503058 0.103159
C13   C     C_R   0.321913 0.088350 0.346682 -0.308240
C14   C     C_R   0.651840 0.799279 0.630065 0.021371
C15   C     C_R   0.682711 0.903723 0.658774 -0.251662
C16   C     C_R   0.512627 0.561191 0.308783 0.845313
C17   C     C_R   0.624960 0.985367 0.609739 -0.190187
C18   C     C_R   0.535781 0.962547 0.531055 0.008004
C19   C     C_R   0.507955 0.854732 0.504583 0.248387
C20   C     C_R   0.473337 0.041798 0.477807 -0.027720
C21   C     C_R   0.384511 0.011579 0.399896 0.204232
C22   C     C_R   0.359386 0.905235 0.375439 -0.311816
C23   C     C_3   0.066076 0.478664 0.396475 -0.521928
C24   C     C_R   0.420757 0.828276 0.426845 -0.219686
C25   C     C_R   0.495380 0.150645 0.498175 -0.034891
C26   C     C_R   0.348038 0.194497 0.370629 0.001374
C27   C     C_R   0.258103 0.499564 0.501080 0.847678
C28   C     C_3   0.906829 0.410881 0.589896 0.301075
C29   C     C_3   0.051094 0.408459 0.586853 -0.426540
C30   C     C_3   0.922327 0.479844 0.395817 -0.439635
C31   C     C_3   0.956495 0.613811 0.524041 -0.513149
C32   C     C_3   0.878513 0.500124 0.502763 0.036626
C33   C     C_3   0.099792 0.613864 0.526242 0.301457
C34   C     C_R   0.397925 0.695294 0.065382 -0.204166
C35   C     C_R   0.500823 0.597000 0.200197 -0.045055
C36   C     C_R   0.517035 0.301822 0.838894 0.464914
C37   C     C_R   0.530978 0.275817 0.944830 -0.262202
C38   C     C_R   0.513108 0.348380 0.011388 -0.250275
H1    H     H_    0.150233 0.679404 0.465048 0.095937
H2    H     H_    0.884351 0.434729 0.665302 0.137704
H3    H     H_    0.330013 0.555840 0.763568 0.201948
H4    H     H_    0.301077 0.255399 0.330193 0.135064
H5    H     H_    0.292212 0.881368 0.315931 0.146711
H6    H     H_    0.253995 0.066550 0.287133 0.144050
H7    H     H_    0.561165 0.181518 0.555237 0.187525
H8    H     H_    0.696041 0.735275 0.668019 0.137968
H9    H     H_    0.651950 0.064863 0.635090 0.178193
H10   H     H_    0.750951 0.921334 0.718958 0.155971
H11   H     H_    0.398229 0.748506 0.403849 0.204108
H12   H     H_    0.904947 0.545981 0.335485 0.173670
H13   H     H_    0.092894 0.420427 0.663524 0.174960
H14   H     H_    0.064564 0.327037 0.570623 0.185747
H15   H     H_    0.866427 0.401116 0.374397 0.192552
H16   H     H_    0.079076 0.397698 0.378516 0.203764
H17   H     H_    0.939843 0.679629 0.462963 0.169282
H18   H     H_    0.924227 0.633421 0.598645 0.200136
H19   H     H_    0.853686 0.279708 0.521499 0.338800
H20   H     H_    0.577969 0.173271 0.809870 0.324384
H21   H     H_    0.161316 0.716349 0.623114 0.335382
H22   H     H_    0.117945 0.542665 0.335144 0.168732
H23   H     H_    0.423580 0.739409 0.217522 0.145269
H24   H     H_    0.307187 0.687982 0.875825 0.157295
H25   H     H_    0.350925 0.762101 0.039506 0.137081
H26   H     H_    0.577782 0.465913 0.161244 0.144525
H27   H     H_    0.527108 0.323749 0.091910 0.156054
H28   H     H_    0.561258 0.201316 0.975705 0.142239
N1    N     N_R   0.433240 0.222190 0.444680 -0.107538
N2    N     N_R   0.566070 0.776970 0.554790 -0.128668
O1    O     O_R   0.468120 0.366740 0.627160 -0.544714
O2    O     O_3   0.548558 0.236268 0.770877 -0.754619
O3    O     O_3   0.148098 0.635835 0.623171 -0.778626
O4    O     O_R   0.510770 0.544830 0.662520 -0.630071
O5    O     O_R   0.663880 0.410950 0.482330 -0.581788
O6    O     O_R   0.706530 0.589040 0.517700 -0.641648
O7    O     O_R   0.489230 0.455170 0.337480 -0.620144
O8    O     O_R   0.531880 0.633260 0.372840 -0.637999
O9    O     O_R   0.293470 0.410960 0.482300 -0.635344
O10   O     O_R   0.336120 0.589050 0.517670 -0.614387
O11   O     O_3   0.829627 0.305753 0.585150 -0.757505
Zn1   Zn    Zn3+2 0.471520 0.381090 0.476390 0.967860
Zn2   Zn    Zn3+2 0.528480 0.618910 0.523610 0.928725

loop_
_geom_bond_atom_site_label_1
_geom_bond_atom_site_label_2
_ccdc_geom_bond_type
C12   C29   S    
C9    H26   S    
H19   O11   S    
C25   N1    A    
C27   O10   A    
C7    C8    A    
C14   H8    S    
C12   C23   S    
C28   C29   S    
C33   H1    S    
N2    Zn2   S    
C36   C37   A    
C16   C35   S    
C5    C6    A    
C20   C25   A    
C28   H2    S    
C16   O7    A    
C18   C19   A    
C28   O11   S    
C22   H5    S    
C1    C11   S    
C31   C33   S    
C10   C35   A    
C31   H18   S    
O7    Zn1   S    
C4    O6    A    
O4    Zn2   S    
C30   H12   S    
C21   C22   A    
C15   H10   S    
C36   O2    S    
C23   H22   S    
C30   H15   S    
C1    O4    A    
C12   C27   S    
C23   C30   S    
C28   C32   S    
C8    H3    S    
C3    C8    A    
H20   O2    S    
C1    O1    A    
C6    C34   A    
C7    H24   S    
C5    C9    A    
C37   C38   A    
C2    C38   A    
C31   C32   S    
C38   H27   S    
C37   H28   S    
C17   C18   A    
C13   C21   A    
C19   N2    A    
C10   C34   A    
C4    O5    A    
C4    C32   S    
C22   C24   A    
C13   C26   A    
C2    C5    A    
C26   N1    A    
O6    Zn2   S    
C25   H7    S    
C26   H4    S    
C23   H16   S    
C29   H13   S    
O9    Zn1   S    
C24   H11   S    
C15   C17   A    
C11   C36   A    
C16   O8    A    
N1    Zn1   S    
C17   H9    S    
C27   O9    A    
O8    Zn2   S    
C6    C7    A    
C2    C3    A    
C30   C32   S    
O10   Zn2   S    
C34   H25   S    
O5    Zn1   S    
C19   C24   A    
C18   C20   A    
C3    C11   A    
C33   O3    S    
C10   H23   S    
C20   C21   A    
C9    C35   A    
C14   N2    A    
C14   C15   A    
O1    Zn1   S    
C31   H17   S    
C12   C33   S    
C13   H6    S    
H21   O3    S    
C29   H14   S    
