data_mof_unit_25049.cif
_audit_creation_date              2012-12-11T14:17:49-0500
_audit_creation_method            fapswitch 2.2
_symmetry_space_group_name_H-M    P1
_symmetry_Int_Tables_number       1
_space_group_crystal_system       triclinic
_cell_length_a                    6.941383
_cell_length_b                    13.622099
_cell_length_c                    20.402853
_cell_angle_alpha                 102.058124
_cell_angle_beta                  89.440069
_cell_angle_gamma                 90.751266
_cell_volume                      1886.43951822

loop_
_atom_site_label
_atom_site_type_symbol
_atom_type_description
_atom_site_fract_x
_atom_site_fract_y
_atom_site_fract_z
_atom_type_partial_charge
O1    O     O_R   0.506860 0.599390 0.449240 -0.538306
O2    O     O_R   0.180220 0.594600 0.586780 -0.537578
O3    O     O_R   0.004500 0.400610 0.550760 -0.539340
C1    C     C_R   0.346984 0.614428 0.614267 0.747124
O4    O     O_R   0.177490 0.611290 0.451970 -0.541880
O5    O     O_R   0.001750 0.417420 0.414990 -0.539492
C2    C     C_R   0.347820 0.637922 0.434994 0.696562
O6    O     O_R   0.509610 0.582580 0.585010 -0.543489
O7    O     O_3   0.337420 0.436370 0.488020 -0.371289
V1    V     V_3+5 0.064680 0.511800 0.502220 1.413220
O8    O     O_R   0.671710 0.405400 0.413220 -0.545126
C3    C     C_R   0.840240 0.384002 0.386560 0.742554
O9    O     O_R   0.674440 0.388710 0.548030 -0.540965
C4    C     C_R   0.841985 0.361920 0.564699 0.697447
V2    V     V_3+5 0.564010 0.488200 0.497780 1.414943
O10   O     O_3   0.841140 0.563630 0.511980 -0.372897
C5    C     C_R   0.822613 0.110937 0.612897 -0.158617
H1    H     H_    0.816625 0.985792 0.696379 0.122520
H2    H     H_    0.808188 0.032681 0.588116 0.111081
C6    C     C_R   0.846011 0.284858 0.604754 -0.031261
C7    C     C_R   0.883029 0.315624 0.928337 -0.169110
C8    C     C_R   0.887186 0.391677 0.892405 -0.118224
C9    C     C_R   0.876957 0.368850 0.822694 -0.157151
C10   C     C_R   0.861727 0.268047 0.786808 0.076825
C11   C     C_R   0.855388 0.190415 0.824127 0.067185
C12   C     C_R   0.852776 0.241684 0.715296 0.072833
C13   C     C_R   0.835210 0.138790 0.682996 0.142189
C14   C     C_R   0.829426 0.064332 0.720722 -0.204288
C15   C     C_R   0.839876 0.089497 0.790091 -0.195566
C16   C     C_R   0.859779 0.313768 0.674457 -0.214359
C17   C     C_R   0.826501 0.183690 0.574061 -0.174200
C18   C     C_R   0.866617 0.215360 0.894983 -0.074406
H3    H     H_    0.893128 0.334972 0.982494 0.102578
H4    H     H_    0.899446 0.469172 0.918788 0.119021
H5    H     H_    0.835196 0.028744 0.816863 0.119006
C19   C     C_2   0.005911 0.288513 0.284579 -0.135582
C20   C     C_2   0.842981 0.315313 0.319930 -0.309089
H6    H     H_    0.143296 0.317297 0.305924 0.135711
C21   C     C_2   0.013366 0.219981 0.217126 -0.124778
C22   C     C_2   0.857804 0.183695 0.180263 -0.310408
H7    H     H_    0.156190 0.199629 0.197020 0.134166
H8    H     H_    0.713679 0.203541 0.198621 0.123963
C23   C     C_2   0.203308 0.783785 0.786756 -0.142723
C24   C     C_2   0.364753 0.812028 0.821516 -0.351390
H9    H     H_    0.067435 0.815251 0.807668 0.140971
H10   H     H_    0.502030 0.779665 0.803303 0.130652
C25   C     C_2   0.195060 0.706863 0.722764 0.190111
C26   C     C_2   0.351371 0.684314 0.680993 -0.318446
H11   H     H_    0.489040 0.720747 0.694969 0.103175
C27   C     C_R   0.481370 0.880435 0.386121 -0.154896
H12   H     H_    0.535234 0.953183 0.411502 0.126077
C28   C     C_R   0.365831 0.716207 0.395773 -0.039534
C29   C     C_R   0.307408 0.687758 0.073927 -0.213427
C30   C     C_R   0.315894 0.610070 0.108199 -0.119261
C31   C     C_R   0.363273 0.628671 0.176361 0.188507
C32   C     C_R   0.379149 0.730303 0.213310 0.057110
C33   C     C_R   0.390598 0.807932 0.176059 -0.010441
C34   C     C_R   0.389050 0.758251 0.284934 0.040639
C35   C     C_R   0.451305 0.857069 0.316177 0.121439
C36   C     C_R   0.479102 0.930621 0.277266 0.143356
C37   C     C_R   0.440726 0.906251 0.208717 -0.185212
C38   C     C_R   0.329900 0.692805 0.326977 -0.215175
C39   C     C_R   0.445250 0.809372 0.424908 -0.173218
C40   C     C_R   0.353832 0.785609 0.106241 -0.063969
H13   H     H_    0.256323 0.622855 0.307324 0.127724
H14   H     H_    0.276408 0.670480 0.020763 0.113229
H15   H     H_    0.296429 0.533741 0.080226 0.125338
H16   H     H_    0.453979 0.965136 0.180531 0.122598
O11   O     O_R   0.203230 0.917310 0.915020 -0.539590
O12   O     O_R   0.535500 0.888690 0.048040 -0.541121
O13   O     O_R   0.711080 0.082610 0.085000 -0.545617
C41   C     C_R   0.365665 0.862792 0.065621 0.695614
O14   O     O_R   0.532630 0.905370 0.913230 -0.547995
O15   O     O_R   0.708190 0.099410 0.949230 -0.538802
C42   C     C_R   0.365087 0.883630 0.886772 0.759431
O16   O     O_R   0.206120 0.900510 0.050790 -0.538828
O17   O     O_3   0.375360 0.063570 0.011990 -0.372971
V3    V     V_3+5 0.648170 0.988200 0.997780 1.413137
O18   O     O_R   0.038240 0.111390 0.951940 -0.540797
C43   C     C_R   0.870713 0.137871 0.935070 0.687778
O19   O     O_R   0.041120 0.094710 0.086750 -0.541796
C44   C     C_R   0.872041 0.115762 0.113529 0.745056
V4    V     V_3+5 0.148810 0.011930 0.002180 1.421175
O20   O     O_3   0.871750 0.936430 0.988010 -0.372304
H17   H     H_    0.814036 0.161189 0.520091 0.103623
H18   H     H_    0.704334 0.286664 0.300235 0.131201
C45   C     C_3   0.000385 0.656340 0.706953 -0.718888
H19   H     H_    0.899000 0.675429 0.750083 0.171318
H20   H     H_    0.933627 0.681470 0.664130 0.213442
H21   H     H_    0.015621 0.573439 0.695740 0.195986
H22   H     H_    0.477048 0.827535 0.477994 0.104115
C46   C     C_3   0.542321 0.036770 0.307920 -0.802572
H23   H     H_    0.554359 0.084420 0.270011 0.204372
H24   H     H_    0.435892 0.072052 0.346381 0.206801
H25   H     H_    0.685985 0.036163 0.331284 0.212258
C47   C     C_3   0.427443 0.538370 0.202408 -0.831415
H26   H     H_    0.527776 0.559479 0.245151 0.217868
H27   H     H_    0.300382 0.496342 0.216123 0.205206
H28   H     H_    0.509877 0.486587 0.163014 0.210689
H29   H     H_    0.873105 0.393073 0.694983 0.090439
H30   H     H_    0.881464 0.432055 0.798639 0.108428

loop_
_geom_bond_atom_site_label_1
_geom_bond_atom_site_label_2
_ccdc_geom_bond_type
C34   C38   A    
C31   C32   A    
C17   H17   S    
O12   V3    S    
C41   O16   A    
O19   C44   A    
C21   H7    S    
C6    C16   A    
C29   C30   A    
C12   C13   A    
C27   C35   A    
C14   C15   A    
C10   C12   A    
C2    C28   S    
O5    C3    A    
C29   C40   A    
C7    H3    S    
O17   V4    S    
V2    O10   S    
C47   H28   S    
C16   H29   S    
C32   C33   A    
C3    C20   S    
O8    V2    S    
V4    O20   S    
C47   H27   S    
C9    C10   A    
O1    V2    S    
O7    V1    S    
C1    O6    A    
O13   C44   A    
C11   C18   A    
C22   H8    S    
C35   C36   A    
O15   C43   A    
O9    C4    A    
C27   C39   A    
O14   C42   A    
O16   V4    S    
O19   V4    S    
C24   H10   S    
C36   C46   S    
C11   C15   A    
C8    H4    S    
C7    C18   A    
C5    C13   A    
C22   C44   S    
C20   H18   S    
H1    C14   S    
C10   C11   A    
C21   C22   D    
O4    C2    A    
C30   H15   S    
C34   C35   A    
O17   V3    S    
C46   H25   S    
C36   C37   A    
C25   C45   S    
C24   C42   S    
O2    C1    A    
C23   C24   D    
O11   V4    S    
C4    C6    S    
C18   C43   S    
C25   C26   D    
O14   V3    S    
C47   H26   S    
C46   H24   S    
C27   H12   S    
C29   H14   S    
C23   H9    S    
O3    C4    A    
C26   H11   S    
C12   C16   A    
O6    V2    S    
O9    V2    S    
C5    C17   A    
O2    V1    S    
C33   C40   A    
C1    C26   S    
C30   C31   A    
C19   C20   D    
C38   H13   S    
O1    C2    A    
C19   C21   S    
C31   C47   S    
C28   C39   A    
O5    V1    S    
O12   C41   A    
O8    C3    A    
C33   C37   A    
C15   H5    S    
C45   H20   S    
O7    V2    S    
O4    V1    S    
O3    V1    S    
C28   C38   A    
O18   V4    S    
C37   H16   S    
C9    H30   S    
C19   H6    S    
C46   H23   S    
C5    H2    S    
C32   C34   A    
O11   C42   A    
C40   C41   S    
O18   C43   A    
V3    O20   S    
C45   H19   S    
O15   V3    S    
C45   H21   S    
C39   H22   S    
C13   C14   A    
C8    C9    A    
V1    O10   S    
C7    C8    A    
C23   C25   S    
O13   V3    S    
C6    C17   A    
