data_mof_unit_65186.cif
_audit_creation_date              2013-03-05T16:32:16-0500
_audit_creation_method            fapswitch 2.2
_symmetry_space_group_name_H-M    P1
_symmetry_Int_Tables_number       1
_space_group_crystal_system       triclinic
_cell_length_a                    41.614439
_cell_length_b                    35.665894
_cell_length_c                    21.412918
_cell_angle_alpha                 90.023581
_cell_angle_beta                  58.970985
_cell_angle_gamma                 89.999493
_cell_volume                      27233.6802213

loop_
_atom_site_label
_atom_site_type_symbol
_atom_site_description
_atom_site_fract_x
_atom_site_fract_y
_atom_site_fract_z
_atom_type_partial_charge
O1    O     O_R   0.945630 0.468530 0.054370 -0.533917
O2    O     O_R   0.054370 0.468530 0.945630 -0.533778
O3    O     O_R   0.445630 0.968530 0.054370 -0.533887
O4    O     O_R   0.554370 0.968530 0.945630 -0.533707
O5    O     O_R   0.945630 0.531470 0.054380 -0.553610
O6    O     O_R   0.054370 0.531470 0.945620 -0.553652
O7    O     O_R   0.445630 0.031470 0.054380 -0.553552
O8    O     O_R   0.554370 0.031470 0.945620 -0.553551
C1    C     C_R   0.927674 0.499985 0.072679 0.901190
C2    C     C_R   0.072326 0.499976 0.927323 0.901088
C3    C     C_R   0.427674 0.999985 0.072682 0.899667
C4    C     C_R   0.572326 0.999976 0.927321 0.900059
O9    O     O_R   0.000010 0.468530 0.091570 -0.556167
O10   O     O_R   0.999990 0.468530 0.908430 -0.556502
O11   O     O_R   0.500010 0.968530 0.091570 -0.554605
O12   O     O_R   0.499990 0.968530 0.908430 -0.554045
O13   O     O_R   0.000010 0.531470 0.091580 -0.593866
O14   O     O_R   0.999990 0.531470 0.908420 -0.593794
O15   O     O_R   0.500010 0.031470 0.091580 -0.593964
O16   O     O_R   0.499990 0.031470 0.908420 -0.593974
C5    C     C_R   0.000031 0.500028 0.120471 0.843589
C6    C     C_R   0.999972 0.500015 0.879526 0.843557
C7    C     C_R   0.500047 0.000027 0.120455 0.842424
C8    C     C_R   0.499946 0.000013 0.879552 0.841742
Cu1   Cu    Cu3+1 0.000000 0.462740 0.000000 1.135717
Cu2   Cu    Cu3+1 0.500000 0.962740 0.000000 1.137725
Cu3   Cu    Cu3+1 0.000000 0.537260 0.000000 1.077985
Cu4   Cu    Cu3+1 0.500000 0.037260 0.000000 1.077662
C9    C     C_3   0.966266 0.487854 0.263123 -0.264796
C10   C     C_3   0.033683 0.487651 0.736906 -0.264954
C11   C     C_3   0.465878 0.989026 0.263503 -0.265732
C12   C     C_3   0.534282 0.989503 0.736323 -0.266134
C13   C     C_3   0.972579 0.523105 0.298349 -0.165614
C14   C     C_3   0.027526 0.522935 0.701577 -0.166111
C15   C     C_3   0.473411 0.024038 0.297511 -0.163196
C16   C     C_3   0.526204 0.024400 0.702912 -0.162395
H1    H     H_    0.950348 0.541924 0.338938 0.187030
H2    H     H_    0.049841 0.541645 0.660933 0.187061
H3    H     H_    0.451850 0.043619 0.337437 0.187005
H4    H     H_    0.547457 0.044306 0.663322 0.187033
H5    H     H_    0.938955 0.477381 0.272733 0.184252
H6    H     H_    0.060947 0.477039 0.727322 0.184004
H7    H     H_    0.438220 0.979510 0.273457 0.183600
H8    H     H_    0.562086 0.980404 0.726206 0.183027
C17   C     C_3   0.000173 0.500392 0.311170 -0.072022
C18   C     C_3   0.999829 0.500364 0.688827 -0.071595
C19   C     C_3   0.500190 0.000377 0.311154 -0.071911
C20   C     C_3   0.499801 0.000340 0.688855 -0.071427
C21   C     C_3   0.994039 0.465940 0.276368 0.374017
C22   C     C_3   0.005809 0.465878 0.723730 0.375905
C23   C     C_3   0.492866 0.966159 0.277545 0.373732
C24   C     C_3   0.507657 0.966234 0.721881 0.375908
C25   C     C_3   0.026888 0.478036 0.202826 0.358457
C26   C     C_3   0.973017 0.478136 0.797239 0.359979
C27   C     C_3   0.526123 0.977104 0.203605 0.358648
C28   C     C_3   0.474230 0.976673 0.796003 0.360107
C29   C     C_3   0.033724 0.512771 0.236921 -0.218421
C30   C     C_3   0.966335 0.512908 0.763040 -0.219101
C31   C     C_3   0.534159 0.011580 0.236493 -0.220800
C32   C     C_3   0.465659 0.011024 0.763704 -0.222897
C33   C     C_3   0.006024 0.535424 0.223208 -0.135342
C34   C     C_3   0.994138 0.535419 0.776679 -0.135790
C35   C     C_3   0.507268 0.035183 0.221960 -0.133767
C36   C     C_3   0.492176 0.035029 0.778648 -0.133336
C37   C     C_3   0.999828 0.500185 0.188907 -0.087756
C38   C     C_3   0.000177 0.500147 0.811086 -0.087638
C39   C     C_3   0.499854 0.000180 0.188882 -0.087995
C40   C     C_3   0.500134 0.000141 0.811130 -0.088094
H9    H     H_    0.061314 0.522642 0.226782 0.209295
H10   H     H_    0.938789 0.522918 0.773153 0.209276
H11   H     H_    0.562076 0.020490 0.226017 0.208022
H12   H     H_    0.437604 0.019514 0.774338 0.207283
H13   H     H_    0.010780 0.564212 0.200416 0.204236
H14   H     H_    0.989512 0.564230 0.799380 0.204237
H15   H     H_    0.513032 0.063783 0.198148 0.204507
H16   H     H_    0.485962 0.063537 0.802955 0.204648
C41   C     C_R   0.673180 0.522517 0.283435 0.202122
C42   C     C_R   0.326800 0.522451 0.716664 0.202258
C43   C     C_R   0.173181 0.022516 0.283440 0.202132
C44   C     C_R   0.826799 0.022451 0.716660 0.202265
C45   C     C_R   0.633644 0.523912 0.324675 0.171874
C46   C     C_R   0.366335 0.523862 0.675428 0.171176
C47   C     C_R   0.133645 0.023911 0.324676 0.171870
C48   C     C_R   0.866335 0.023862 0.675427 0.171176
C49   C     C_R   0.613624 0.500525 0.386358 -0.243222
C50   C     C_R   0.386374 0.500511 0.613646 -0.243224
C51   C     C_R   0.113624 0.000525 0.386359 -0.243223
C52   C     C_R   0.886374 0.000510 0.613645 -0.243227
C53   C     C_R   0.633095 0.475871 0.406771 0.295720
C54   C     C_R   0.366923 0.475876 0.593136 0.295890
C55   C     C_R   0.133094 0.975870 0.406775 0.295719
C56   C     C_R   0.866924 0.975875 0.593133 0.295890
C57   C     C_R   0.672888 0.476013 0.367553 0.321600
C58   C     C_R   0.327130 0.476006 0.632356 0.321732
C59   C     C_R   0.172887 0.976013 0.367561 0.321594
C60   C     C_R   0.827130 0.976006 0.632350 0.321736
C61   C     C_R   0.692537 0.498556 0.305251 -0.139999
C62   C     C_R   0.307463 0.498513 0.694750 -0.139898
C63   C     C_R   0.192537 0.998556 0.305260 -0.140002
C64   C     C_R   0.807463 0.998513 0.694743 -0.139897
C65   C     C_1   0.733020 0.498818 0.266657 0.223996
C66   C     C_1   0.266980 0.498767 0.733345 0.223955
C67   C     C_1   0.233019 0.998819 0.266670 0.223993
C68   C     C_1   0.766980 0.998767 0.733334 0.223964
C69   C     C_1   0.766789 0.499058 0.234723 0.145174
C70   C     C_1   0.233211 0.499003 0.765282 0.145198
C71   C     C_1   0.266788 0.999059 0.234739 0.145086
C72   C     C_1   0.733211 0.999004 0.765269 0.145149
C73   C     C_R   0.826431 0.527097 0.144522 -0.268901
C74   C     C_R   0.173563 0.527072 0.855483 -0.268937
C75   C     C_R   0.326430 0.027103 0.144548 -0.268826
C76   C     C_R   0.673564 0.027074 0.855471 -0.268862
H17   H     H_    0.810655 0.548186 0.135025 0.194417
H18   H     H_    0.189334 0.548175 0.864974 0.194275
H19   H     H_    0.310653 0.048195 0.135060 0.194402
H20   H     H_    0.689335 0.048176 0.864960 0.194269
C77   C     C_R   0.865812 0.527544 0.103406 0.361798
C78   C     C_R   0.134182 0.527532 0.896600 0.361804
C79   C     C_R   0.365810 0.027550 0.103429 0.361018
C80   C     C_R   0.634183 0.027533 0.896590 0.361344
C81   C     C_R   0.886130 0.499802 0.115565 -0.144181
C82   C     C_R   0.113870 0.499775 0.884447 -0.144151
C83   C     C_R   0.386130 0.999803 0.115574 -0.144348
C84   C     C_R   0.613870 0.999775 0.884440 -0.144291
C85   C     C_R   0.866878 0.472043 0.169424 0.258773
C86   C     C_R   0.133129 0.471985 0.830597 0.258956
C87   C     C_R   0.366878 0.972040 0.169426 0.258880
C88   C     C_R   0.633128 0.971987 0.830587 0.258915
C89   C     C_R   0.827079 0.471385 0.209301 0.260210
C90   C     C_R   0.172928 0.471316 0.790722 0.260136
C91   C     C_R   0.327079 0.971383 0.209306 0.260072
C92   C     C_R   0.672928 0.971319 0.790708 0.260041
C93   C     C_R   0.807183 0.499297 0.196597 -0.089729
C94   C     C_R   0.192818 0.499246 0.803415 -0.089637
C95   C     C_R   0.307182 0.999299 0.196613 -0.089713
C96   C     C_R   0.692818 0.999248 0.803401 -0.089616
O17   O     O_R   0.031460 0.554330 0.468560 -0.559803
O18   O     O_R   0.968540 0.554330 0.531440 -0.559849
O19   O     O_R   0.531460 0.054330 0.468560 -0.559789
O20   O     O_R   0.468540 0.054330 0.531440 -0.559704
C97   C     C_R   0.999996 0.572204 0.500002 0.935883
C98   C     C_R   0.499996 0.072203 0.500005 0.935592
O21   O     O_R   0.031470 0.499960 0.376970 -0.583199
O22   O     O_R   0.968530 0.499960 0.623030 -0.583519
O23   O     O_R   0.531470 0.999960 0.376970 -0.583644
O24   O     O_R   0.468530 0.999960 0.623030 -0.584222
O25   O     O_R   0.968530 0.499940 0.439910 -0.578683
O26   O     O_R   0.031470 0.499940 0.560090 -0.578163
O27   O     O_R   0.468530 0.999940 0.439910 -0.577485
O28   O     O_R   0.531470 0.999940 0.560090 -0.576298
C99   C     C_R   0.000032 0.500017 0.379507 0.886304
C100  C     C_R   0.999968 0.500004 0.620493 0.886469
C101  C     C_R   0.500035 0.000015 0.379505 0.885632
C102  C     C_R   0.499964 0.999999 0.620497 0.885372
Cu5   Cu    Cu3+1 0.037270 0.499960 0.462740 1.104310
Cu6   Cu    Cu3+1 0.962730 0.499960 0.537260 1.100173
Cu7   Cu    Cu3+1 0.537270 0.999960 0.462740 1.104997
Cu8   Cu    Cu3+1 0.462730 0.999960 0.537260 1.100184
O29   O     O_R   0.031490 0.445590 0.468510 -0.549878
O30   O     O_R   0.968510 0.445590 0.531490 -0.553843
O31   O     O_R   0.531490 0.945590 0.468510 -0.549460
O32   O     O_R   0.468510 0.945590 0.531490 -0.553957
C103  C     C_R   0.000007 0.427672 0.499962 0.959813
C104  C     C_R   0.500007 0.927670 0.499959 0.958076
O33   O     O_R   0.500010 0.554270 0.552980 -0.580395
O34   O     O_R   0.499990 0.554270 0.447020 -0.580137
O35   O     O_R   0.000010 0.054270 0.552980 -0.580401
O36   O     O_R   0.999990 0.054270 0.447020 -0.580128
C105  C     C_R   0.500128 0.572147 0.499893 0.858127
C106  C     C_R   0.000128 0.072147 0.499893 0.858117
O37   O     O_R   0.554380 0.499900 0.498630 -0.554339
O38   O     O_R   0.445620 0.499900 0.501370 -0.553710
O39   O     O_R   0.054380 0.999900 0.498630 -0.554344
O40   O     O_R   0.945620 0.999900 0.501370 -0.553708
O41   O     O_R   0.554370 0.499880 0.392640 -0.541898
O42   O     O_R   0.445630 0.499880 0.607360 -0.541536
O43   O     O_R   0.054370 0.999880 0.392640 -0.541896
O44   O     O_R   0.945630 0.999880 0.607360 -0.541538
C107  C     C_R   0.572149 0.500200 0.427825 0.948722
C108  C     C_R   0.427850 0.500197 0.572176 0.949379
C109  C     C_R   0.072149 0.000200 0.427825 0.948729
C110  C     C_R   0.927850 0.000197 0.572176 0.949382
Cu9   Cu    Cu3+1 0.500000 0.499910 0.562760 1.159719
Cu10  Cu    Cu3+1 0.500000 0.499910 0.437240 1.160012
Cu11  Cu    Cu3+1 0.000000 0.999910 0.562760 1.159704
Cu12  Cu    Cu3+1 0.000000 0.999910 0.437240 1.160008
O45   O     O_R   0.500000 0.445540 0.553030 -0.545378
O46   O     O_R   0.500000 0.445540 0.446970 -0.545387
O47   O     O_R   0.000000 0.945540 0.553030 -0.545378
O48   O     O_R   0.000000 0.945540 0.446970 -0.545390
C111  C     C_R   0.499997 0.427787 0.499992 0.942788
C112  C     C_R   0.999998 0.927787 0.499991 0.942794
C113  C     C_R   0.473972 0.326807 0.563182 0.307929
C114  C     C_R   0.525983 0.326771 0.436783 0.307907
C115  C     C_R   0.973974 0.826806 0.563170 0.307932
C116  C     C_R   0.025986 0.826774 0.436771 0.307908
C117  C     C_R   0.474298 0.366518 0.563699 0.186276
C118  C     C_R   0.525666 0.366483 0.436262 0.186329
C119  C     C_R   0.974301 0.866518 0.563693 0.186273
C120  C     C_R   0.025668 0.866486 0.436256 0.186335
C121  C     C_R   0.499986 0.386323 0.499982 -0.308759
C122  C     C_R   0.999988 0.886324 0.499978 -0.308762
C123  C     C_R   0.499976 0.307446 0.499984 -0.081573
C124  C     C_R   0.999978 0.807447 0.499970 -0.081581
C125  C     C_1   0.499975 0.266966 0.499993 0.260774
C126  C     C_1   0.999977 0.766968 0.499973 0.260772
C127  C     C_1   0.999976 0.733178 0.499980 0.184087
C128  C     C_1   0.499975 0.233176 0.500002 0.184047
C129  C     C_R   0.977513 0.673035 0.565661 0.236790
C130  C     C_R   0.022446 0.672999 0.434318 0.236852
C131  C     C_R   0.477527 0.173029 0.565685 0.236837
C132  C     C_R   0.522433 0.172998 0.434330 0.236870
C133  C     C_R   0.977571 0.633491 0.565735 0.209625
C134  C     C_R   0.022398 0.633456 0.434255 0.209570
C135  C     C_R   0.477583 0.133486 0.565756 0.209161
C136  C     C_R   0.522386 0.133455 0.434262 0.209314
C137  C     C_R   0.999987 0.613641 0.499998 -0.343091
C138  C     C_R   0.499987 0.113638 0.500008 -0.343155
C139  C     C_R   0.999978 0.692659 0.499986 -0.228155
C140  C     C_R   0.499978 0.192656 0.500007 -0.228071
C141  C     C_R   0.504445 0.672916 0.438776 0.316710
C142  C     C_R   0.502362 0.672779 0.555381 0.311388
C143  C     C_R   0.004452 0.172922 0.438784 0.316713
C144  C     C_R   0.002359 0.172779 0.555398 0.311370
C145  C     C_R   0.502738 0.633604 0.441097 -0.170630
C146  C     C_R   0.500659 0.633488 0.556005 -0.172135
C147  C     C_R   0.002743 0.133610 0.441100 -0.170641
C148  C     C_R   0.000656 0.133487 0.556015 -0.172139
H21   H     H_    0.503384 0.618520 0.396561 0.217183
H22   H     H_    0.499610 0.618331 0.600832 0.216319
H23   H     H_    0.003393 0.118527 0.396558 0.217179
H24   H     H_    0.999603 0.118328 0.600844 0.216319
C149  C     C_R   0.500936 0.613649 0.499205 -0.128672
C150  C     C_R   0.000937 0.113651 0.499208 -0.128674
C151  C     C_R   0.503893 0.692696 0.496702 -0.134831
C152  C     C_R   0.003895 0.192699 0.496717 -0.134856
C153  C     C_1   0.502373 0.733142 0.498402 0.156020
C154  C     C_1   0.002376 0.233147 0.498423 0.156003
C155  C     C_1   0.001307 0.266910 0.499831 0.282793
C156  C     C_1   0.501305 0.766904 0.499804 0.282786
C157  C     C_R   0.974274 0.326364 0.490137 0.277108
C158  C     C_R   0.027007 0.327051 0.510034 0.284815
C159  C     C_R   0.474194 0.826360 0.490359 0.276862
C160  C     C_R   0.527096 0.827041 0.509741 0.284639
C161  C     C_R   0.973407 0.366168 0.491527 0.251443
C162  C     C_R   0.026257 0.366830 0.511457 0.243788
C163  C     C_R   0.473328 0.866163 0.491757 0.251143
C164  C     C_R   0.526349 0.866819 0.511175 0.242900
C165  C     C_R   0.000156 0.386176 0.500053 -0.181834
C166  C     C_R   0.500157 0.886170 0.500037 -0.182892
C167  C     C_R   0.000396 0.307344 0.501329 -0.061694
C168  C     C_R   0.500400 0.807338 0.501297 -0.061548
O49   O     O_3   0.693336 0.455051 0.389349 -0.646195
H25   H     H_    0.678113 0.451353 0.442777 0.353686
O50   O     O_3   0.306698 0.455067 0.610475 -0.646043
H26   H     H_    0.321925 0.451399 0.557033 0.353792
O51   O     O_3   0.193334 0.955051 0.389360 -0.646192
H27   H     H_    0.178109 0.951353 0.442788 0.353691
O52   O     O_3   0.806700 0.955067 0.610467 -0.646025
H28   H     H_    0.821927 0.951398 0.557024 0.353809
O53   O     O_3   0.884928 0.554276 0.050080 -0.681348
H29   H     H_    0.866614 0.571402 0.048395 0.350078
O54   O     O_3   0.115060 0.554292 0.949920 -0.681440
H30   H     H_    0.133370 0.571425 0.951601 0.350000
O55   O     O_3   0.384926 0.054287 0.050112 -0.682296
H31   H     H_    0.366611 0.071416 0.048437 0.350015
O56   O     O_3   0.615061 0.054293 0.949911 -0.682031
H32   H     H_    0.633372 0.071427 0.951589 0.349965
O57   O     O_3   0.887765 0.446962 0.183415 -0.684167
H33   H     H_    0.871682 0.435190 0.231640 0.371298
O58   O     O_3   0.112247 0.446886 0.816614 -0.684038
H34   H     H_    0.128333 0.435088 0.768393 0.371333
O59   O     O_3   0.387766 0.946956 0.183407 -0.683871
H35   H     H_    0.371684 0.935182 0.231630 0.371372
O60   O     O_3   0.612246 0.946889 0.816604 -0.683674
H36   H     H_    0.628331 0.935092 0.768381 0.371463
N1    N     N_R   0.807072 0.441892 0.260626 0.125536
O61   O     O_R   0.780488 0.449790 0.326748 -0.287158
O62   O     O_R   0.814623 0.406981 0.240632 -0.276965
N2    N     N_R   0.192942 0.441795 0.739406 0.125627
O63   O     O_R   0.219528 0.449658 0.673284 -0.286792
O64   O     O_R   0.185397 0.406895 0.759412 -0.276121
N3    N     N_R   0.307073 0.941886 0.260623 0.125541
O65   O     O_R   0.280488 0.949780 0.326747 -0.287069
O66   O     O_R   0.314625 0.906977 0.240618 -0.276953
N4    N     N_R   0.692940 0.941798 0.739390 0.125650
O67   O     O_R   0.719527 0.949662 0.673269 -0.286673
O68   O     O_R   0.685395 0.906898 0.759393 -0.276043
O69   O     O_3   0.448421 0.305938 0.622793 -0.630582
H37   H     H_    0.427954 0.322273 0.658471 0.388685
O70   O     O_3   0.551528 0.305868 0.377173 -0.630673
H38   H     H_    0.571997 0.322182 0.341490 0.388591
O71   O     O_3   0.948423 0.805936 0.622778 -0.630578
H39   H     H_    0.927957 0.822270 0.658460 0.388691
O72   O     O_3   0.051531 0.805873 0.377159 -0.630681
H40   H     H_    0.072000 0.822187 0.341479 0.388588
N5    N     N_R   0.448260 0.386680 0.628366 0.133763
O73   O     O_R   0.424356 0.409799 0.627324 -0.341017
O74   O     O_R   0.448719 0.382283 0.688217 -0.278371
N6    N     N_R   0.551707 0.386610 0.371594 0.133707
O75   O     O_R   0.575615 0.409725 0.372634 -0.340998
O76   O     O_R   0.551247 0.382186 0.311744 -0.278548
N7    N     N_R   0.948262 0.886678 0.628362 0.133764
O77   O     O_R   0.924358 0.909797 0.627323 -0.341012
O78   O     O_R   0.948721 0.882279 0.688212 -0.278375
N8    N     N_R   0.051710 0.886615 0.371591 0.133703
O79   O     O_R   0.075617 0.909729 0.372635 -0.341009
O80   O     O_R   0.051250 0.882194 0.311739 -0.278562
N9    N     N_R   0.955496 0.693188 0.632876 0.175389
O81   O     O_R   0.958204 0.685207 0.689282 -0.249716
O82   O     O_R   0.932343 0.719269 0.638222 -0.264600
N10   N     N_R   0.044460 0.693115 0.367097 0.175365
O83   O     O_R   0.041753 0.685095 0.310693 -0.249841
O84   O     O_R   0.067610 0.719197 0.361741 -0.264832
N11   N     N_R   0.455524 0.193181 0.632908 0.175363
O85   O     O_R   0.458248 0.185194 0.689294 -0.249857
O86   O     O_R   0.432368 0.219264 0.638282 -0.264586
N12   N     N_R   0.544433 0.193116 0.367106 0.175345
O87   O     O_R   0.541709 0.185098 0.310722 -0.249923
O88   O     O_R   0.567589 0.219197 0.361728 -0.264805
N13   N     N_R   0.954983 0.613571 0.632907 0.170577
O89   O     O_R   0.919336 0.620775 0.673568 -0.254590
O90   O     O_R   0.970280 0.589254 0.655026 -0.375133
N14   N     N_R   0.044991 0.613501 0.367089 0.170574
O91   O     O_R   0.080638 0.620686 0.326434 -0.254596
O92   O     O_R   0.029697 0.589175 0.344961 -0.375224
N15   N     N_R   0.454999 0.113563 0.632929 0.170715
O93   O     O_R   0.419356 0.120779 0.673613 -0.254273
O94   O     O_R   0.470291 0.089221 0.655016 -0.374353
N16   N     N_R   0.544973 0.113501 0.367088 0.170655
O95   O     O_R   0.580616 0.120695 0.326410 -0.254377
O96   O     O_R   0.529679 0.089161 0.344984 -0.374703
N17   N     N_R   0.506551 0.692087 0.377497 0.153809
O97   O     O_R   0.492544 0.676700 0.341585 -0.283730
O98   O     O_R   0.525795 0.722884 0.352404 -0.299231
N18   N     N_R   0.502340 0.691806 0.614822 0.142990
O99   O     O_R   0.486274 0.676451 0.679118 -0.276819
O100  O     O_R   0.521697 0.722345 0.603576 -0.284356
N19   N     N_R   0.006562 0.192096 0.377505 0.153822
O101  O     O_R   0.992560 0.176711 0.341582 -0.283766
O102  O     O_R   0.025806 0.222894 0.352421 -0.299193
N20   N     N_R   0.002333 0.191802 0.614847 0.142991
O103  O     O_R   0.986263 0.176444 0.679141 -0.276853
O104  O     O_R   0.021689 0.222340 0.603612 -0.284276
O105  O     O_3   0.950914 0.305302 0.475816 -0.677693
H41   H     H_    0.944432 0.320151 0.444777 0.361333
O106  O     O_3   0.053794 0.306675 0.515217 -0.659117
H42   H     H_    0.076786 0.322048 0.496186 0.355785
O107  O     O_3   0.450746 0.805299 0.476275 -0.677794
H43   H     H_    0.444180 0.820148 0.445361 0.361375
O108  O     O_3   0.553959 0.806662 0.514666 -0.659180
H44   H     H_    0.576966 0.822028 0.495448 0.355827
O109  O     O_3   0.947022 0.386181 0.484475 -0.668808
H45   H     H_    0.923752 0.371134 0.504965 0.352040
O110  O     O_3   0.049356 0.387484 0.527098 -0.670237
H46   H     H_    0.055262 0.372391 0.558721 0.361205
O111  O     O_3   0.446867 0.886174 0.484944 -0.667859
H47   H     H_    0.423589 0.871129 0.505598 0.352086
O112  O     O_3   0.549544 0.887466 0.526568 -0.668778
H48   H     H_    0.555549 0.872366 0.558041 0.361743
O113  O     O_3   0.988461 0.429760 0.305256 -0.686390
H49   H     H_    0.984960 0.413671 0.271465 0.355305
O114  O     O_3   0.011217 0.429673 0.694953 -0.698425
H50   H     H_    0.014745 0.413576 0.728679 0.353502
O115  O     O_3   0.486029 0.930196 0.307694 -0.685346
H51   H     H_    0.481970 0.914238 0.274460 0.355252
O116  O     O_3   0.515048 0.930379 0.691124 -0.697260
H52   H     H_    0.519434 0.914495 0.723996 0.353309
O117  O     O_3   0.054712 0.454138 0.151893 -0.683062
H53   H     H_    0.067669 0.444153 0.176329 0.349166
O118  O     O_3   0.945088 0.454376 0.848246 -0.683714
H54   H     H_    0.932088 0.444451 0.823841 0.348554
O119  O     O_3   0.553105 0.952250 0.153543 -0.682200
H55   H     H_    0.565680 0.941802 0.178376 0.348865
O120  O     O_3   0.447638 0.951411 0.845626 -0.682394
H56   H     H_    0.435244 0.940762 0.820591 0.347986
N21   N     N_R   0.693666 0.546859 0.221646 0.167487
O121  O     O_R   0.720347 0.533585 0.159833 -0.310082
O122  O     O_R   0.686187 0.582554 0.227363 -0.245367
N22   N     N_R   0.306294 0.546757 0.778556 0.167395
O123  O     O_R   0.279627 0.533447 0.840316 -0.309806
O124  O     O_R   0.313738 0.582455 0.772986 -0.246459
N23   N     N_R   0.193668 0.046859 0.221652 0.167486
O125  O     O_R   0.220351 0.033585 0.159840 -0.310199
O126  O     O_R   0.186188 0.082554 0.227368 -0.245387
N24   N     N_R   0.806292 0.046757 0.778551 0.167398
O127  O     O_R   0.779624 0.033448 0.840310 -0.309870
O128  O     O_R   0.813737 0.082455 0.772981 -0.246450
N25   N     N_R   0.613903 0.549045 0.303616 0.179412
O129  O     O_R   0.620347 0.548558 0.237356 -0.228768
O130  O     O_R   0.590061 0.573092 0.350169 -0.349538
N26   N     N_R   0.386056 0.548971 0.696596 0.179595
O131  O     O_R   0.379602 0.548446 0.762862 -0.227809
O132  O     O_R   0.409902 0.573021 0.650129 -0.346354
N27   N     N_R   0.113905 0.049044 0.303615 0.179411
O133  O     O_R   0.120350 0.048556 0.237353 -0.228792
O134  O     O_R   0.090063 0.073091 0.350167 -0.349548
N28   N     N_R   0.886054 0.048970 0.696597 0.179595
O135  O     O_R   0.879598 0.048445 0.762864 -0.227817
O136  O     O_R   0.909901 0.073020 0.650131 -0.346349
O137  O     O_3   0.612518 0.451079 0.463243 -0.676994
H57   H     H_    0.627618 0.428167 0.455190 0.356767
O138  O     O_3   0.387519 0.451113 0.536567 -0.676937
H58   H     H_    0.372437 0.428200 0.544532 0.356838
O139  O     O_3   0.112516 0.951079 0.463246 -0.676993
H59   H     H_    0.127616 0.928166 0.455194 0.356768
O140  O     O_3   0.887520 0.951112 0.536565 -0.676932
H60   H     H_    0.872439 0.928199 0.544529 0.356843

loop_
_geom_bond_atom_site_label_1
_geom_bond_atom_site_label_2
_geom_bond_distance
_ccdc_geom_bond_type
C63   C67   1.444250 S    
O111  H47   0.990182 S    
C51   C55   1.409340 A    
C13   C17   1.541219 S    
O70   H38   0.988585 S    
C68   C72   1.204910 T    
C141  N17   1.441914 S    
C74   C78   1.404847 A    
N7    O78   1.301091 A    
C117  N5    1.435598 S    
N17   O97   1.301580 A    
C11   C39   1.543355 S    
C131  C140  1.409602 A    
C123  C125  1.443745 S    
C17   C29   1.544085 S    
Cu7   Cu8   2.658074 S    
C146  C149  1.401733 A    
O46   C111  1.300150 A    
C157  C161  1.420003 A    
C158  C167  1.402770 A    
O37   Cu9   1.950159 S    
C76   C96   1.395744 A    
C27   C31   1.536796 S    
C28   O120  1.397847 S    
C59   C63   1.403941 A    
C32   H12   1.110138 S    
O58   H34   0.989134 S    
O35   Cu11  1.950138 S    
C141  C145  1.403491 A    
C64   C68   1.444239 S    
C144  N20   1.441748 S    
O27   C101  1.282041 A    
C12   C24   1.537907 S    
N14   O91   1.301123 A    
C151  C153  1.443571 S    
C1    C81   1.481682 S    
C45   N25   1.436642 S    
C132  C136  1.410325 A    
C135  N15   1.436771 S    
C116  C124  1.403093 A    
C143  N19   1.441912 S    
C160  O108  1.382292 S    
O21   C99   1.281104 A    
C15   C19   1.541149 S    
C80   O56   1.382088 S    
C90   C94   1.408185 A    
C144  C148  1.402883 A    
C164  C166  1.410428 A    
O32   C104  1.292148 A    
O33   C105  1.301378 A    
Cu5   Cu6   2.658074 S    
N16   O95   1.301126 A    
C73   C93   1.395755 A    
O33   Cu9   1.950138 S    
O30   C103  1.292107 A    
O34   Cu10  1.949967 S    
N26   O132  1.301274 A    
C50   C54   1.409362 A    
C113  O69   1.384002 S    
C76   C80   1.404845 A    
C34   C38   1.542774 S    
N20   O103  1.301574 A    
C30   H10   1.110138 S    
C19   C101  1.460334 S    
C62   C66   1.444240 S    
O13   C5    1.281171 A    
O43   Cu12  1.950295 S    
C17   C99   1.460352 S    
C129  C139  1.409586 A    
Cu12  O48   1.950401 S    
N24   O128  1.301253 A    
Cu9   Cu10  2.687752 S    
O23   Cu7   1.971879 S    
C42   C46   1.411170 A    
C52   C110  1.479068 S    
N7    O77   1.301066 A    
O24   C102  1.280994 A    
C16   H4    1.110161 S    
C161  O109  1.381618 S    
C47   N27   1.436638 S    
N8    O79   1.301072 A    
O9    C5    1.282573 A    
C158  C162  1.419055 A    
O44   C110  1.299942 A    
C89   C93   1.408180 A    
N25   O129  1.301165 A    
O8    Cu4   1.949728 S    
N23   O125  1.301249 A    
C130  N10   1.437816 S    
N6    O75   1.301073 A    
C69   C93   1.441325 S    
C163  C166  1.411091 A    
C43   C63   1.409126 A    
C118  N6    1.435600 S    
O3    Cu2   1.949732 S    
C48   C52   1.414540 A    
N18   O99   1.301574 A    
C2    C82   1.481685 S    
O18   C97   1.290342 A    
O120  H56   0.991229 S    
C29   C33   1.554635 S    
C53   O137  1.382274 S    
C79   C83   1.410284 A    
C42   N22   1.438468 S    
C31   C35   1.554661 S    
C113  C123  1.403079 A    
C32   C36   1.554639 S    
C146  H22   1.082948 S    
O115  H51   0.991200 S    
N4    O68   1.301246 A    
C60   O52   1.382237 S    
C21   C25   1.521810 S    
O19   C98   1.290298 A    
C23   C27   1.521856 S    
C87   C91   1.419423 A    
O3    C3    1.291612 A    
C19   C31   1.544163 S    
C116  O72   1.384001 S    
C33   C37   1.542747 S    
C20   C24   1.525017 S    
O19   Cu7   1.950138 S    
C13   C33   1.552693 S    
N13   O89   1.301124 A    
O112  H48   0.990227 S    
C86   C90   1.419425 A    
C21   O113  1.397924 S    
C111  C121  1.478851 S    
C24   O116  1.397902 S    
C136  N16   1.436744 S    
C16   C36   1.552703 S    
N22   O123  1.301252 A    
C79   O55   1.382087 S    
C147  H23   1.082943 S    
O107  H43   0.989991 S    
O28   Cu7   1.971012 S    
C9    C13   1.556337 S    
O108  H44   0.990143 S    
C157  C167  1.402873 A    
C120  N8    1.435600 S    
C75   C95   1.395755 A    
C26   O118  1.397828 S    
O40   C110  1.299925 A    
C91   N3    1.437081 S    
O137  H57   0.990243 S    
C9    C21   1.537935 S    
O5    C1    1.292844 A    
O39   Cu11  1.950159 S    
C11   H7    1.110193 S    
C12   C16   1.556481 S    
C136  C138  1.413625 A    
O49   H25   0.990209 S    
C143  C147  1.403515 A    
C56   C60   1.419087 A    
N10   O83   1.301210 A    
O17   Cu5   1.950138 S    
C75   C79   1.404859 A    
O51   H27   0.990209 S    
C78   C82   1.410284 A    
Cu7   O31   1.950131 S    
C7    C39   1.461102 S    
C98   C138  1.477816 S    
N12   O88   1.301082 A    
O20   Cu8   1.950244 S    
O5    Cu3   1.949841 S    
C83   C87   1.414414 A    
C78   O54   1.382090 S    
N10   O84   1.301083 A    
C119  C122  1.414340 A    
C41   C61   1.409126 A    
C14   C18   1.541210 S    
O26   Cu5   1.971012 S    
C25   C37   1.525484 S    
O27   Cu8   1.971014 S    
C74   H18   1.084365 S    
O16   Cu4   1.971970 S    
O8    C4    1.292819 A    
N1    O61   1.301062 A    
C18   C30   1.544060 S    
N5    O74   1.301091 A    
O37   C107  1.299918 A    
C87   O59   1.383533 S    
C115  C119  1.416496 A    
N9    O82   1.301083 A    
C12   H8    1.110188 S    
O36   Cu12  1.949967 S    
C10   C14   1.556325 S    
Cu5   O29   1.950131 S    
O13   Cu3   1.972132 S    
Cu6   O30   1.950025 S    
N2    O63   1.301065 A    
C135  C138  1.413629 A    
N15   O94   1.301132 A    
C8    C40   1.461104 S    
C104  C166  1.480142 S    
C28   C40   1.525556 S    
C130  C139  1.409571 A    
O22   Cu6   1.971877 S    
O25   C99   1.281970 A    
C88   O60   1.383535 S    
C81   C85   1.414412 A    
O71   H39   0.988584 S    
C85   C89   1.419423 A    
O21   Cu5   1.971879 S    
C92   C96   1.408183 A    
O69   H37   0.988585 S    
C132  N12   1.437814 S    
O15   Cu4   1.972132 S    
C9    C37   1.543339 S    
C120  C122  1.414331 A    
N28   O136  1.301275 A    
C74   C94   1.395747 A    
O4    C4    1.291633 A    
C57   C61   1.403944 A    
C76   H20   1.084371 S    
C55   O139  1.382274 S    
O110  H46   0.990225 S    
C20   C102  1.460315 S    
C9    H5    1.110198 S    
O14   C6    1.281131 A    
C161  C165  1.411024 A    
C10   H6    1.110195 S    
O26   C100  1.281953 A    
C11   C23   1.537894 S    
C51   C109  1.479038 S    
C67   C71   1.204913 T    
O56   H32   0.991749 S    
Cu11  O47   1.950230 S    
C26   C38   1.525471 S    
O10   C6    1.282620 A    
C23   O115  1.397936 S    
C58   O50   1.382236 S    
C115  O71   1.384003 S    
C114  C118  1.416527 A    
C35   H15   1.110133 S    
O43   C109  1.299938 A    
C60   C64   1.403926 A    
C164  O112  1.382196 S    
C25   O117  1.397829 S    
C16   C20   1.541107 S    
C53   C57   1.419094 A    
N21   O122  1.301252 A    
C44   N24   1.438468 S    
C143  C152  1.416557 A    
C55   C59   1.419091 A    
O42   C108  1.299940 A    
N14   O92   1.301100 A    
C153  C156  1.204772 T    
N3    O65   1.301065 A    
C45   C49   1.414517 A    
O52   H28   0.990209 S    
C162  C165  1.410366 A    
C30   C34   1.554598 S    
C47   C51   1.414516 A    
C18   C100  1.460334 S    
O60   H36   0.989135 S    
C48   N28   1.436662 S    
C44   C48   1.411171 A    
O109  H45   0.990177 S    
C73   C77   1.404861 A    
O54   H30   0.991747 S    
C22   C26   1.521822 S    
N16   O96   1.301118 A    
O20   C98   1.290326 A    
C22   O114  1.397902 S    
C57   O49   1.382235 S    
C58   C62   1.403928 A    
O118  H54   0.991171 S    
C14   C34   1.552658 S    
C71   C95   1.441325 S    
C97   C137  1.477881 S    
C159  O107  1.382230 S    
O138  H58   0.990243 S    
O48   C112  1.300142 A    
N8    O80   1.301094 A    
O114  H50   0.991137 S    
C84   C88   1.414415 A    
C77   O53   1.382088 S    
O38   C108  1.299927 A    
O36   C106  1.301726 A    
C10   C22   1.537973 S    
O39   C109  1.299914 A    
N11   O85   1.301209 A    
O57   H33   0.989136 S    
C141  C151  1.416544 A    
C46   N26   1.436663 S    
C133  N13   1.436718 S    
N6    O76   1.301091 A    
C54   C58   1.419083 A    
N17   O98   1.301292 A    
O12   Cu2   1.971926 S    
C142  C151  1.416207 A    
C86   O58   1.383535 S    
O1    C1    1.291604 A    
N18   O100  1.301307 A    
O106  H42   0.990142 S    
C49   C53   1.409338 A    
C19   C23   1.525006 S    
C115  C124  1.403079 A    
C33   H13   1.110125 S    
C46   C50   1.414541 A    
C145  H21   1.082943 S    
C160  C164  1.419034 A    
C15   H3    1.110134 S    
Cu9   O45   1.950230 S    
N19   O101  1.301579 A    
C17   C21   1.525029 S    
O25   Cu6   1.971014 S    
C105  C149  1.480502 S    
O24   Cu8   1.971877 S    
C156  C168  1.442482 S    
C159  C163  1.419992 A    
C11   C15   1.556442 S    
C36   C40   1.542711 S    
C148  H24   1.082947 S    
O31   C104  1.291989 A    
N22   O124  1.301251 A    
C147  C150  1.401757 A    
O17   C97   1.290314 A    
C154  C155  1.204803 T    
C25   C29   1.536915 S    
C5    C37   1.461099 S    
C126  C127  1.205154 T    
Cu2   Cu4   2.657826 S    
C3    C83   1.481691 S    
N26   O131  1.301165 A    
O6    C2    1.292825 A    
O4    Cu2   1.949838 S    
N27   O133  1.301164 A    
C132  C140  1.409578 A    
C145  C149  1.401756 A    
N24   O127  1.301248 A    
C144  C152  1.416209 A    
N15   O93   1.301125 A    
C43   C47   1.411161 A    
C131  N11   1.437814 S    
Cu11  Cu12  2.687752 S    
O53   H29   0.991748 S    
C119  N7    1.435600 S    
O2    Cu1   1.949838 S    
O10   Cu1   1.971926 S    
C90   N2    1.437080 S    
C129  C133  1.410345 A    
O7    Cu4   1.949841 S    
C28   C32   1.536763 S    
C142  N18   1.441748 S    
O22   C100  1.281111 A    
N25   O130  1.301255 A    
C34   H14   1.110125 S    
O41   Cu10  1.950295 S    
C128  C140  1.445175 S    
O42   Cu9   1.950295 S    
C131  C135  1.410359 A    
N3    O66   1.301243 A    
N5    O73   1.301068 A    
O15   C7    1.281212 A    
O116  H52   0.991223 S    
C129  N9    1.437815 S    
C158  O106  1.382286 S    
C116  C120  1.416519 A    
C56   O140  1.382275 S    
N9    O81   1.301211 A    
O7    C3    1.292840 A    
C106  C150  1.480542 S    
N2    O64   1.301246 A    
C72   C96   1.441317 S    
C91   C95   1.408178 A    
N4    O67   1.301065 A    
C142  C146  1.402873 A    
C152  C154  1.443614 S    
C27   O119  1.397842 S    
C43   N23   1.438468 S    
C6    C38   1.461113 S    
C77   C81   1.410281 A    
N20   O104  1.301308 A    
C15   C35   1.552714 S    
C92   N4    1.437079 S    
C52   C56   1.409361 A    
N13   O90   1.301109 A    
O72   H40   0.988588 S    
O140  H60   0.990243 S    
C89   N1    1.437077 S    
C41   C45   1.411160 A    
O55   H31   0.991748 S    
O45   C111  1.300101 A    
C73   H17   1.084367 S    
C12   C40   1.543366 S    
O23   C101  1.281031 A    
O11   C7    1.282540 A    
O12   C8    1.282565 A    
C44   C64   1.409122 A    
O1    Cu1   1.949732 S    
O44   Cu11  1.950295 S    
O9    Cu1   1.971752 S    
C88   C92   1.419431 A    
C157  O105  1.382228 S    
C114  O70   1.384000 S    
C20   C32   1.544195 S    
O35   C106  1.301379 A    
C65   C69   1.204919 T    
C35   C39   1.542710 S    
N11   O86   1.301084 A    
C41   N21   1.438471 S    
C163  O111  1.381618 S    
C155  C167  1.442521 S    
O16   C8    1.281189 A    
C103  C165  1.480029 S    
C133  C137  1.413615 A    
O11   Cu2   1.971752 S    
O41   C107  1.299934 A    
C130  C134  1.410321 A    
Cu10  O46   1.950401 S    
C85   O57   1.383532 S    
C82   C86   1.414418 A    
O47   C112  1.300100 A    
N23   O126  1.301255 A    
C42   C62   1.409118 A    
N12   O87   1.301210 A    
O38   Cu10  1.950159 S    
O6    Cu3   1.949728 S    
C4    C84   1.481683 S    
C70   C94   1.441312 S    
C49   C107  1.479042 S    
C118  C121  1.414331 A    
C50   C108  1.479065 S    
O59   H35   0.989136 S    
C36   H16   1.110139 S    
C117  C121  1.414346 A    
N21   O121  1.301248 A    
C10   C38   1.543347 S    
N19   O102  1.301294 A    
C124  C126  1.443723 S    
N1    O62   1.301245 A    
O29   C103  1.291966 A    
O50   H26   0.990209 S    
O2    C2    1.291626 A    
C13   H1    1.110102 S    
O117  H53   0.991163 S    
C26   C30   1.536946 S    
C125  C128  1.205165 T    
O18   Cu6   1.950244 S    
C59   O51   1.382235 S    
C159  C168  1.402840 A    
C160  C168  1.402729 A    
C134  N14   1.436708 S    
C14   H2    1.110112 S    
C148  C150  1.401741 A    
O14   Cu3   1.971970 S    
C134  C137  1.413620 A    
C27   C39   1.525543 S    
C162  O110  1.382199 S    
Cu1   Cu3   2.657826 S    
O113  H49   0.991140 S    
C18   C22   1.525049 S    
C127  C139  1.445154 S    
O119  H55   0.991198 S    
O40   Cu12  1.950159 S    
N27   O134  1.301258 A    
C54   O138  1.382276 S    
C113  C117  1.416505 A    
C114  C123  1.403098 A    
C66   C70   1.204912 T    
O139  H59   0.990240 S    
Cu8   O32   1.950025 S    
C80   C84   1.410288 A    
O34   C105  1.301710 A    
O28   C102  1.282074 A    
C112  C122  1.478829 S    
N28   O135  1.301166 A    
C75   H19   1.084368 S    
C29   H9    1.110137 S    
O105  H41   0.989989 S    
C61   C65   1.444247 S    
C24   C28   1.521880 S    
C31   H11   1.110137 S    
