data_mof_unit_59186.cif
_audit_creation_date              2012-10-26T19:25:51-0400
_audit_creation_method            fapswitch 2.2
_symmetry_space_group_name_H-M    P1
_symmetry_Int_Tables_number       1
_space_group_crystal_system       triclinic
_cell_length_a                    15.044012
_cell_length_b                    13.708226
_cell_length_c                    11.747409
_cell_angle_alpha                 90.038673
_cell_angle_beta                  89.64436
_cell_angle_gamma                 89.910487
_cell_volume                      2422.57939113

loop_
_atom_site_label
_atom_site_type_symbol
_atom_type_description
_atom_site_fract_x
_atom_site_fract_y
_atom_site_fract_z
_atom_type_partial_charge
C1    C     C_R   0.329174 0.500055 0.500070 0.537327
C2    C     C_R   0.558437 0.206828 0.432186 0.046698
C3    C     C_R   0.560038 0.792885 0.434544 0.047016
C4    C     C_R   0.441581 0.207141 0.567896 0.048261
C5    C     C_R   0.563287 0.896257 0.434190 -0.009002
C6    C     C_R   0.440113 0.103762 0.570797 -0.006937
C7    C     C_R   0.437006 0.896552 0.566198 -0.009259
C8    C     C_R   0.560090 0.103460 0.429658 -0.006912
C9    C     C_R   0.500183 0.948299 0.500274 -0.017668
C10   C     C_R   0.500147 0.051697 0.500275 -0.018257
C11   C     C_R   0.627510 0.948117 0.369020 0.116468
C12   C     C_R   0.671031 0.499906 0.499966 0.539188
C13   C     C_R   0.379931 0.052082 0.641964 0.118303
C14   C     C_R   0.372873 0.948634 0.631490 0.117106
C15   C     C_R   0.620385 0.051569 0.358665 0.117366
C16   C     C_R   0.500094 0.499976 0.283787 0.537802
C17   C     C_R   0.499913 0.500021 0.716213 0.538026
C18   C     C_1   0.500117 0.499939 0.162174 -0.027657
C19   C     C_1   0.499969 0.500042 0.837825 -0.027415
C20   C     C_1   0.500102 0.499959 0.059853 -0.036285
C21   C     C_1   0.500039 0.500008 0.940146 -0.036254
C22   C     C_R   0.813976 0.533229 0.403848 0.059146
C23   C     C_R   0.906886 0.521254 0.398478 0.005314
C24   C     C_R   0.187023 0.489180 0.603102 0.066887
C25   C     C_R   0.767495 0.499558 0.499945 -0.006117
C26   C     C_R   0.233001 0.500059 0.499953 -0.003195
C27   C     C_R   0.813019 0.464916 0.595723 0.062172
C28   C     C_R   0.188076 0.510102 0.396602 0.068768
C29   C     C_R   0.905985 0.475980 0.600977 0.005118
C30   C     C_R   0.094622 0.517228 0.396952 0.002465
C31   C     C_R   0.953445 0.498670 0.499719 -0.110725
C32   C     C_R   0.047279 0.498812 0.499679 -0.113829
C33   C     C_3   0.871875 0.546122 0.840247 0.019822
C34   C     C_R   0.093726 0.480584 0.602380 0.002831
C35   C     C_3   0.940634 0.617262 0.887925 -0.263869
C36   C     C_3   0.895955 0.713303 0.921890 -0.484241
C37   C     C_3   0.116809 0.668810 0.208885 0.037430
C38   C     C_3   0.061050 0.733057 0.131051 -0.268371
C39   C     C_3   0.085855 0.840481 0.142775 -0.492979
C40   C     C_3   0.116545 0.327088 0.786985 0.040314
C41   C     C_3   0.063066 0.260755 0.865703 -0.269198
C42   C     C_3   0.090995 0.154228 0.852689 -0.488773
C43   C     C_3   0.874495 0.448540 0.160759 0.020016
C44   C     C_3   0.943473 0.376965 0.112934 -0.263064
C45   C     C_R   0.952929 0.463038 0.704104 0.300054
C46   C     C_3   0.899239 0.280399 0.081399 -0.486299
C47   C     C_R   0.047149 0.540170 0.296712 0.295809
C48   C     C_R   0.045521 0.456201 0.702251 0.295707
C49   C     C_R   0.954620 0.533080 0.295106 0.299656
C50   C     C_R   0.439889 0.793163 0.565387 0.046619
Cu1   Cu    Cu3+1 0.500000 0.597420 0.500000 0.922488
Cu2   Cu    Cu3+1 0.500000 0.402580 0.500000 0.920032
H1    H     H_    0.394944 0.750914 0.617790 0.150710
H2    H     H_    0.715660 0.465356 0.717153 0.220365
H3    H     H_    0.272008 0.442877 0.285494 0.238797
H4    H     H_    0.283496 0.565807 0.292016 0.227610
H5    H     H_    0.821147 0.531691 0.907095 0.154619
H6    H     H_    0.835868 0.582034 0.769222 0.131216
H7    H     H_    0.973376 0.584340 0.963175 0.224740
H8    H     H_    0.992199 0.632742 0.822324 0.164454
H9    H     H_    0.856521 0.742900 0.850073 0.146967
H10   H     H_    0.946803 0.768423 0.944018 0.143514
H11   H     H_    0.851466 0.701828 0.996507 0.180313
H12   H     H_    0.604413 0.248999 0.381154 0.151690
H13   H     H_    0.187230 0.674419 0.180731 0.163430
H14   H     H_    0.113872 0.698057 0.297752 0.107664
H15   H     H_    0.072798 0.709916 0.041636 0.176116
H16   H     H_    0.989490 0.723934 0.152385 0.201376
H17   H     H_    0.073311 0.866009 0.231201 0.151201
H18   H     H_    0.044850 0.884800 0.083880 0.146887
H19   H     H_    0.157085 0.851479 0.120919 0.155187
H20   H     H_    0.187369 0.322698 0.812636 0.165337
H21   H     H_    0.113086 0.298631 0.697856 0.115766
H22   H     H_    0.074580 0.283780 0.955001 0.174314
H23   H     H_    0.604412 0.750391 0.381519 0.142788
H24   H     H_    0.991166 0.267798 0.846149 0.198328
H25   H     H_    0.079860 0.128952 0.764059 0.158311
H26   H     H_    0.050907 0.108208 0.911338 0.143688
H27   H     H_    0.162337 0.145337 0.874181 0.159975
H28   H     H_    0.823815 0.462401 0.094448 0.154081
H29   H     H_    0.838447 0.413344 0.232742 0.132351
H30   H     H_    0.975843 0.409070 0.036483 0.223901
H31   H     H_    0.995279 0.362445 0.177757 0.166190
H32   H     H_    0.860680 0.251165 0.154750 0.155858
H33   H     H_    0.950338 0.225439 0.058204 0.143288
H34   H     H_    0.395437 0.249606 0.618581 0.147220
H35   H     H_    0.853990 0.291016 0.008048 0.175088
H36   H     H_    0.755512 0.941782 0.308960 0.236740
H37   H     H_    0.723961 0.844255 0.373497 0.206667
H38   H     H_    0.305463 0.058367 0.789477 0.238734
H39   H     H_    0.370611 0.150841 0.769853 0.210957
H40   H     H_    0.246011 0.942972 0.696818 0.236069
H41   H     H_    0.274648 0.847636 0.624697 0.207922
H42   H     H_    0.698551 0.057727 0.213778 0.244191
H43   H     H_    0.629104 0.147884 0.228654 0.212705
H44   H     H_    0.717587 0.533023 0.282656 0.218752
H45   H     H_    0.737821 0.643496 0.342744 0.238762
H46   H     H_    0.282206 0.435271 0.708090 0.222827
H47   H     H_    0.268346 0.557921 0.714518 0.234133
H48   H     H_    0.735556 0.355066 0.655993 0.251857
N1    N     N_R   0.500000 0.743810 0.500000 -0.250926
N2    N     N_3   0.672707 0.104517 0.275751 -0.650209
N3    N     N_R   0.500000 0.256190 0.500000 -0.252073
N4    N     N_3   0.767416 0.579651 0.311982 -0.585254
N5    N     N_3   0.234949 0.491282 0.708611 -0.577502
N6    N     N_3   0.765411 0.418350 0.687261 -0.585353
N7    N     N_3   0.237332 0.508877 0.291315 -0.576848
N8    N     N_3   0.700333 0.896023 0.315801 -0.634827
N9    N     N_3   0.327640 0.104992 0.725200 -0.657879
N10   N     N_3   0.300212 0.896452 0.684507 -0.638313
O1    O     O_R   0.370260 0.582280 0.500020 -0.511058
O2    O     O_3   0.090055 0.569882 0.197977 -0.515123
O3    O     O_3   0.087730 0.425260 0.800378 -0.517019
O4    O     O_3   0.912836 0.539693 0.190337 -0.538694
O5    O     O_R   0.629740 0.417720 0.499980 -0.508676
O6    O     O_R   0.629740 0.582280 0.499980 -0.510019
O7    O     O_R   0.370260 0.417720 0.500020 -0.504959
O8    O     O_R   0.500010 0.582270 0.337200 -0.496456
O9    O     O_R   0.499990 0.417730 0.662800 -0.502398
O10   O     O_R   0.499990 0.582270 0.662800 -0.492484
O11   O     O_R   0.500010 0.417730 0.337200 -0.498144
O12   O     O_3   0.910351 0.455195 0.808881 -0.537346

loop_
_geom_bond_atom_site_label_1
_geom_bond_atom_site_label_2
_ccdc_geom_bond_type
Cu2   N3    S    
C33   H6    S    
C27   C29   A    
C41   C42   S    
C35   C36   S    
C43   C44   S    
C44   H31   S    
H40   N10   S    
C47   C49   A    
C6    C13   A    
H46   N5    S    
C19   C21   T    
C24   C26   A    
C5    C11   A    
C44   H30   S    
C43   O4    S    
C38   C39   S    
H36   N8    S    
C23   C49   A    
C4    H34   S    
C28   N7    S    
C47   O2    S    
C4    N3    A    
Cu1   O8    S    
C22   N4    S    
C40   H21   S    
C35   H7    S    
C37   O2    S    
C13   N9    S    
C17   O10   A    
C17   C19   S    
C41   H22   S    
C11   C15   A    
C7    C14   A    
C31   C32   A    
C44   C46   S    
C22   C25   A    
C37   H13   S    
C33   H5    S    
C36   H11   S    
C3    H23   S    
C9    C10   A    
H43   N2    S    
H41   N10   S    
C12   O5    A    
Cu2   O7    S    
C3    N1    A    
C49   O4    S    
C42   H27   S    
C13   C14   A    
C36   H10   S    
C2    H12   S    
H47   N5    S    
Cu2   O5    S    
C50   H1    S    
H2    N6    S    
Cu1   Cu2   S    
C30   C47   A    
C4    C6    A    
C27   N6    S    
C43   H28   S    
C24   C34   A    
H3    N7    S    
C35   H8    S    
C32   C34   A    
C16   O11   A    
H4    N7    S    
C5    C9    A    
C37   C38   S    
C16   O8    A    
Cu2   O11   S    
C40   O3    S    
C37   H14   S    
Cu1   O10   S    
C39   H17   S    
C1    O7    A    
C38   H15   S    
C50   N1    A    
C46   H32   S    
C16   C18   S    
C40   C41   S    
C38   H16   S    
C42   H26   S    
C8    C15   A    
H44   N4    S    
C1    C26   S    
C43   H29   S    
C34   C48   A    
C36   H9    S    
C46   H35   S    
C45   C48   A    
C14   N10   S    
Cu1   O1    S    
C40   H20   S    
H48   N6    S    
C2    C8    A    
C7    C50   A    
C3    C5    A    
C6    C10   A    
C45   O12   S    
C25   C27   A    
C26   C28   A    
Cu1   O6    S    
C12   C25   S    
C46   H33   S    
C28   C30   A    
C29   C31   A    
C1    O1    A    
C41   H24   S    
C30   C32   A    
H39   N9    S    
C33   O12   S    
C2    N3    A    
H37   N8    S    
C33   C35   S    
C39   H18   S    
C18   C20   T    
C15   N2    S    
H45   N4    S    
C17   O9    A    
Cu2   O9    S    
C7    C9    A    
C20   C21   S    
H42   N2    S    
C42   H25   S    
C8    C10   A    
C29   C45   A    
C11   N8    S    
C39   H19   S    
C22   C23   A    
C24   N5    S    
H38   N9    S    
Cu1   N1    S    
C23   C31   A    
C48   O3    S    
C12   O6    A    
