data_mof_unit_30014.cif
_audit_creation_date              2012-12-10T16:37:32-0500
_audit_creation_method            fapswitch 2.2
_symmetry_space_group_name_H-M    P1
_symmetry_Int_Tables_number       1
_space_group_crystal_system       triclinic
_cell_length_a                    10.825677
_cell_length_b                    10.927036
_cell_length_c                    15.533848
_cell_angle_alpha                 96.784296
_cell_angle_beta                  74.528219
_cell_angle_gamma                 98.283511
_cell_volume                      1746.34414908

loop_
_atom_site_label
_atom_site_type_symbol
_atom_type_description
_atom_site_fract_x
_atom_site_fract_y
_atom_site_fract_z
_atom_type_partial_charge
C1    C     C_R   0.158197 0.479034 0.520351 0.556151
C2    C     C_R   0.510857 0.489522 0.121897 0.331981
C3    C     C_R   0.647922 0.327440 0.112208 0.147903
C4    C     C_R   0.842223 0.521404 0.479943 0.532106
C5    C     C_R   0.424304 0.581049 0.840477 -0.004580
C6    C     C_2   0.980122 0.529478 0.471548 0.391792
C7    C     C_2   0.022345 0.472910 0.528010 -0.042679
C8    C     C_2   0.530579 0.964670 0.469031 0.170252
C9    C     C_2   0.456545 0.039259 0.532420 0.199217
C10   C     C_R   0.468763 0.168785 0.520744 0.590796
C11   C     C_R   0.528287 0.833555 0.480278 0.545987
C12   C     C_R   0.399947 0.740544 0.965437 0.233278
C13   C     C_R   0.556588 0.443795 0.258877 0.629703
C14   C     C_R   0.443436 0.552540 0.742366 0.529577
C15   C     C_R   0.636330 0.290170 0.025201 0.445687
C16   C     C_R   0.576794 0.421972 0.162326 -0.025998
C17   C     C_R   0.390738 0.699185 0.878685 0.405967
C18   C     C_R   0.443874 0.665010 0.014394 -0.069379
C19   C     C_R   0.468082 0.542230 0.981602 -0.005225
C20   C     C_R   0.455387 0.499217 0.894110 -0.104657
C21   C     C_R   0.514438 0.464035 0.030244 -0.052862
C22   C     C_R   0.564562 0.353743 0.985673 -0.028074
C23   C     C_R   0.539217 0.307773 0.903426 0.444414
C24   C     C_R   0.477472 0.376195 0.861685 -0.061232
F1    F     F_    0.570159 0.194673 0.864057 -0.511406
F2    F     F_    0.697724 0.193449 0.978544 -0.464134
F3    F     F_    0.432199 0.569519 0.175591 -0.589608
F4    F     F_    0.358447 0.778285 0.829335 -0.533084
F5    F     F_    0.064458 0.594353 0.406202 -0.562975
H1    H     H_    0.956847 0.421336 0.580956 0.094996
H2    H     H_    0.465051 0.707326 0.075813 0.245093
H3    H     H_    0.450394 0.331777 0.802475 0.192980
H4    H     H_    0.820609 0.374568 0.256366 0.356982
H5    H     H_    0.780086 0.961464 0.254527 0.406767
H6    H     H_    0.282425 0.103816 0.766497 0.385686
H7    H     H_    0.301576 0.998405 0.926076 0.394835
O1    O     O_3   0.500000 0.500000 0.500000 -0.514308
O2    O     O_R   0.463530 0.379110 0.309170 -0.474474
O3    O     O_R   0.388210 0.611730 0.699360 -0.449136
O4    O     O_R   0.624720 0.532760 0.292120 -0.509627
O5    O     O_R   0.523540 0.476390 0.699360 -0.560092
O6    O     O_2   0.710987 0.115381 0.148202 -0.120518
O7    O     O_2   0.886812 0.275968 0.095329 -0.211629
O8    O     O_3   0.752984 0.302470 0.260605 -0.488014
O9    O     O_2   0.547878 0.071970 0.319219 -0.191957
O10   O     O_2   0.725853 0.128454 0.391679 -0.259601
O11   O     O_3   0.713076 0.914937 0.299547 -0.439568
O12   O     O_R   0.537910 0.240570 0.564270 -0.495116
O13   O     O_2   0.249650 0.911459 0.636503 -0.206963
O14   O     O_2   0.450715 0.943888 0.685829 -0.186674
O15   O     O_3   0.318858 0.130015 0.704991 -0.530679
O16   O     O_2   0.326198 0.897446 0.110907 -0.187299
O17   O     O_2   0.492974 0.978452 0.984274 -0.157052
O18   O     O_3   0.255141 0.939632 0.971194 -0.412398
O19   O     O_R   0.438950 0.782540 0.540270 -0.486766
O20   O     O_R   0.222350 0.398740 0.468260 -0.507683
O21   O     O_R   0.800790 0.578160 0.427210 -0.488508
O22   O     O_R   0.212140 0.566330 0.564260 -0.508249
O23   O     O_R   0.764730 0.456770 0.540270 -0.568924
O24   O     O_R   0.412790 0.208310 0.468260 -0.504724
O25   O     O_R   0.610350 0.768590 0.427210 -0.471766
S1    S     S_3+6 0.752139 0.252729 0.154057 0.138622
S2    S     S_3+6 0.631150 0.023765 0.367915 0.093695
S3    S     S_3+6 0.367125 0.000923 0.642043 0.088946
S4    S     S_3+6 0.369871 0.892761 0.010375 0.149209
Zn1   Zn    Zn3+2 0.580150 0.419820 0.574680 1.015432
Zn2   Zn    Zn3+2 0.401380 0.373730 0.437510 1.094628
Zn3   Zn    Zn3+2 0.631680 0.593260 0.413140 1.081165
Zn4   Zn    Zn3+2 0.386790 0.613180 0.574670 1.093772

loop_
_geom_bond_atom_site_label_1
_geom_bond_atom_site_label_2
_ccdc_geom_bond_type
C4    O21   A    
C12   C17   A    
C8    S2    S    
C10   O24   A    
C23   C24   A    
C24   H3    S    
O22   Zn4   S    
C11   O25   A    
C2    F3    S    
H5    O11   S    
C3    C16   A    
O1    Zn4   S    
C9    S3    S    
C2    C16   A    
C9    C10   S    
O6    S1    D    
C19   C20   A    
O10   S2    D    
O13   S3    D    
O8    S1    S    
O1    Zn1   S    
C2    C21   A    
C23   F1    S    
O3    Zn4   S    
C11   O19   A    
O18   S4    S    
C1    O22   A    
C5    C17   A    
H6    O15   S    
C3    C15   A    
C17   F4    S    
O25   Zn3   S    
C5    C14   S    
O19   Zn4   S    
O17   S4    D    
C14   O5    A    
O1    Zn2   S    
C4    O23   A    
C21   C22   A    
C19   C21   A    
C1    O20   A    
C13   O2    A    
C6    C7    D    
C8    C11   S    
O23   Zn1   S    
C10   O12   A    
C13   C16   S    
H7    O18   S    
O15   S3    S    
O5    Zn1   S    
O4    Zn3   S    
O20   Zn2   S    
O1    Zn3   S    
C6    F5    S    
O14   S3    D    
O2    Zn2   S    
O7    S1    D    
C4    C6    S    
C18   C19   A    
C12   S4    S    
C3    S1    S    
C12   C18   A    
C5    C20   A    
O11   S2    S    
C22   C23   A    
C13   O4    A    
C18   H2    S    
O21   Zn3   S    
O12   Zn1   S    
C14   O3    A    
C1    C7    S    
H4    O8    S    
O9    S2    D    
C15   C22   A    
O16   S4    D    
C20   C24   A    
O24   Zn2   S    
C8    C9    D    
C15   F2    S    
C7    H1    S    
