data_mof_unit_38674.cif
_audit_creation_date              2013-03-05T15:53:05-0500
_audit_creation_method            fapswitch 2.2
_symmetry_space_group_name_H-M    P1
_symmetry_Int_Tables_number       1
_space_group_crystal_system       triclinic
_cell_length_a                    6.952715
_cell_length_b                    20.448593
_cell_length_c                    24.351603
_cell_angle_alpha                 89.720314
_cell_angle_beta                  90.363454
_cell_angle_gamma                 89.502939
_cell_volume                      3461.90415615

loop_
_atom_site_label
_atom_site_type_symbol
_atom_site_description
_atom_site_fract_x
_atom_site_fract_y
_atom_site_fract_z
_atom_type_partial_charge
O1    O     O_R   0.507320 0.423560 0.460500 -0.603703
O2    O     O_R   0.170760 0.556250 0.437010 -0.585965
O3    O     O_R   0.004030 0.576440 0.539500 -0.568202
C1    C     C_R   0.338938 0.576415 0.421059 1.011101
O4    O     O_R   0.177370 0.422820 0.454110 -0.592163
O5    O     O_R   0.010680 0.442050 0.556720 -0.586241
C2    C     C_R   0.346065 0.399047 0.442901 0.917030
O6    O     O_R   0.500680 0.557950 0.443280 -0.575845
O7    O     O_3   0.340380 0.506470 0.533650 -0.254148
V1    V     V_3+5 0.064130 0.498800 0.493760 1.249568
O8    O     O_R   0.681160 0.443750 0.562990 -0.598047
C3    C     C_R   0.850613 0.423612 0.578823 1.018520
O9    O     O_R   0.674560 0.577180 0.545890 -0.582080
C4    C     C_R   0.842423 0.601445 0.556076 1.164804
V2    V     V_3+5 0.564560 0.501200 0.506240 1.248734
O10   O     O_3   0.838180 0.493530 0.466350 -0.284566
C5    C     C_R   0.976442 0.839170 0.909892 -0.250482
C6    C     C_R   0.846238 0.662654 0.588049 -0.474546
C7    C     C_R   0.026002 0.722322 0.905169 -0.035623
C8    C     C_R   0.037818 0.780585 0.933984 -0.227863
C9    C     C_R   0.915496 0.840250 0.854325 0.289551
C10   C     C_R   0.932891 0.782101 0.821868 -0.028379
C11   C     C_R   0.966584 0.721816 0.849856 -0.041340
C12   C     C_R   0.919476 0.781314 0.762975 0.026994
C13   C     C_R   0.909590 0.720789 0.734325 0.068212
C14   C     C_R   0.903811 0.662829 0.765581 -0.179696
C15   C     C_R   0.940788 0.662224 0.821954 0.308239
C16   C     C_R   0.932019 0.838808 0.731456 -0.170628
C17   C     C_R   0.892633 0.839489 0.675209 0.393206
C18   C     C_R   0.850309 0.780232 0.648026 -0.220224
C19   C     C_R   0.892482 0.720331 0.675471 -0.036424
C20   C     C_R   0.771294 0.779066 0.594133 0.282200
C21   C     C_R   0.764544 0.719819 0.564997 0.215313
C22   C     C_R   0.915675 0.662965 0.642746 0.278044
H1    H     H_    0.068346 0.677805 0.926339 0.171796
H2    H     H_    0.087138 0.779535 0.976296 0.130953
H3    H     H_    0.864983 0.616996 0.747069 0.203867
H4    H     H_    0.980158 0.883841 0.749579 0.199924
C23   C     C_3   0.814956 0.303618 0.767478 -0.233540
C24   C     C_3   0.009672 0.278265 0.791444 -0.101746
H5    H     H_    0.089578 0.301425 0.825702 0.196819
H6    H     H_    0.732645 0.347061 0.781647 0.194956
H7    H     H_    0.230306 0.283052 0.717328 0.151008
C25   C     C_1   0.962121 0.121919 0.875435 -0.197909
C26   C     C_1   0.862277 0.378186 0.624676 -0.244017
C27   C     C_3   0.742681 0.232742 0.767277 0.375655
C28   C     C_3   0.932791 0.207647 0.791262 0.021147
C29   C     C_3   0.814110 0.221964 0.708367 -0.276643
C30   C     C_3   0.892106 0.292502 0.708873 0.082929
C31   C     C_3   0.009166 0.196949 0.732574 -0.093799
C32   C     C_3   0.086681 0.268037 0.732269 -0.053737
C33   C     C_1   0.950250 0.160402 0.837405 0.158884
C34   C     C_1   0.874308 0.339737 0.662744 0.062227
H8    H     H_    0.090313 0.153220 0.718492 0.190888
H9    H     H_    0.730577 0.199035 0.674687 0.176220
C35   C     C_3   0.575824 0.735712 0.223315 -0.166835
C36   C     C_3   0.402659 0.689002 0.229881 -0.146398
H10   H     H_    0.394356 0.638568 0.213389 0.141910
H11   H     H_    0.711154 0.724171 0.201259 0.129831
H12   H     H_    0.139170 0.742967 0.186129 0.127328
C37   C     C_1   0.349200 0.622015 0.375063 -0.204824
C38   C     C_1   0.475099 0.877995 0.124998 -0.259795
C39   C     C_3   0.561806 0.753826 0.284960 -0.125734
C40   C     C_3   0.388889 0.707720 0.290938 0.181781
C41   C     C_3   0.421943 0.810857 0.270156 -0.110883
C42   C     C_3   0.435709 0.792152 0.209090 0.187265
C43   C     C_3   0.248785 0.764151 0.276718 -0.132750
C44   C     C_3   0.262795 0.746035 0.215076 -0.162978
C45   C     C_1   0.364703 0.660486 0.337024 0.025537
C46   C     C_1   0.459750 0.839459 0.163018 0.000316
H13   H     H_    0.113467 0.775679 0.298786 0.142518
H14   H     H_    0.430234 0.861282 0.286663 0.156672
H15   H     H_    0.685367 0.756873 0.313935 0.153327
C47   C     C_R   0.469018 0.162967 0.088234 -0.133835
C48   C     C_R   0.347252 0.338389 0.409868 -0.117983
C49   C     C_R   0.495527 0.281412 0.087987 -0.075918
C50   C     C_R   0.508592 0.221238 0.061005 -0.190479
C51   C     C_R   0.418060 0.164548 0.143914 -0.109210
C52   C     C_R   0.393838 0.224762 0.172475 0.153669
C53   C     C_R   0.442765 0.283382 0.144426 0.076035
C54   C     C_R   0.331378 0.228099 0.228744 -0.087841
C55   C     C_R   0.354615 0.287833 0.259053 -0.033639
C56   C     C_R   0.385618 0.346244 0.228338 -0.072593
C57   C     C_R   0.437095 0.342735 0.173045 -0.210630
C58   C     C_R   0.238514 0.174922 0.255391 0.330899
C59   C     C_R   0.213392 0.175667 0.312169 -0.299713
C60   C     C_R   0.264616 0.229543 0.343632 0.108132
C61   C     C_R   0.337126 0.286632 0.318166 0.123117
C62   C     C_R   0.233217 0.227582 0.400512 -0.108884
C63   C     C_R   0.268730 0.282057 0.432879 -0.162159
C64   C     C_R   0.391405 0.339229 0.353401 -0.158898
H16   H     H_    0.468819 0.388041 0.152126 0.194339
H17   H     H_    0.464860 0.381695 0.338060 0.109713
H18   H     H_    0.231467 0.280699 0.476011 0.116638
H19   H     H_    0.144044 0.134472 0.331789 0.188482
H20   H     H_    0.546373 0.219807 0.017862 0.142620
H21   H     H_    0.404772 0.118027 0.164560 0.136818
H22   H     H_    0.173527 0.184450 0.419782 0.139152
O11   O     O_R   0.323550 0.942140 0.056770 -0.596226
O12   O     O_R   0.647080 0.077200 0.045890 -0.584340
O13   O     O_R   0.813610 0.057920 0.943260 -0.576772
C65   C     C_R   0.477945 0.100897 0.057232 0.943650
O14   O     O_R   0.653470 0.943760 0.063000 -0.594832
O15   O     O_R   0.820050 0.923540 0.960490 -0.583727
C66   C     C_R   0.485290 0.923648 0.079000 0.970301
O16   O     O_R   0.317110 0.076520 0.039540 -0.584101
O17   O     O_3   0.483830 0.993580 0.966380 -0.250401
V3    V     V_3+5 0.760140 0.001190 0.006240 1.240298
O18   O     O_R   0.149510 0.922740 0.954070 -0.589170
C67   C     C_R   0.981470 0.898779 0.943586 1.026509
O19   O     O_R   0.143120 0.056170 0.936970 -0.582560
C68   C     C_R   0.973708 0.076431 0.921224 1.033447
V4    V     V_3+5 0.259690 0.998700 0.993700 1.243010
O20   O     O_3   0.986130 0.006420 0.033620 -0.274934
N1    N     N_R   0.940820 0.600522 0.850573 0.240791
O21   O     O_R   0.013405 0.548760 0.827393 -0.327387
O22   O     O_R   0.840305 0.593515 0.895086 -0.373833
N2    N     N_R   0.683167 0.836567 0.570471 0.276854
O23   O     O_R   0.724909 0.854826 0.520711 -0.269966
O24   O     O_R   0.552016 0.868545 0.597497 -0.299011
N3    N     N_R   0.555619 0.212479 0.787331 0.226956
O25   O     O_R   0.452237 0.252458 0.816430 -0.430253
O26   O     O_R   0.500639 0.152335 0.781134 -0.372190
N4    N     N_R   0.029012 0.608316 0.662219 0.231262
O27   O     O_R   0.198394 0.618010 0.683565 -0.356901
O28   O     O_R   0.963685 0.548988 0.659148 -0.427837
C69   C     C_2   0.531678 0.341019 0.054753 1.018852
O29   O     O_2   0.672519 0.343267 0.024982 -0.596061
O30   O     O_R   0.400165 0.393140 0.055231 -0.778719
H23   H     H_    0.439763 0.430427 0.030269 0.352349
N5    N     N_R   0.675728 0.717986 0.511541 0.254362
O31   O     O_R   0.770834 0.696155 0.469481 -0.397351
O32   O     O_R   0.498370 0.737450 0.504942 -0.332921
C70   C     C_2   0.331649 0.412361 0.248237 0.995153
O33   O     O_2   0.183422 0.420256 0.274286 -0.635333
O34   O     O_R   0.446306 0.466067 0.235275 -0.791738
H24   H     H_    0.393753 0.508508 0.250761 0.317368
N6    N     N_R   0.139773 0.125083 0.225128 0.225097
O35   O     O_R   0.028654 0.141303 0.183950 -0.396514
O36   O     O_R   0.135751 0.065346 0.243755 -0.395703
N7    N     N_R   0.918765 0.899662 0.645553 0.261620
O37   O     O_R   0.024670 0.900423 0.601681 -0.293382
O38   O     O_R   0.866368 0.954970 0.667321 -0.306168
N8    N     N_R   0.815400 0.897200 0.833785 0.221238
O39   O     O_R   0.890348 0.955006 0.838489 -0.414734
O40   O     O_R   0.646219 0.891392 0.811254 -0.351406

loop_
_geom_bond_atom_site_label_1
_geom_bond_atom_site_label_2
_geom_bond_distance
_ccdc_geom_bond_type
C13   C19   1.437459 A    
C24   C28   1.544156 S    
C42   C44   1.541574 S    
C60   C61   1.417262 A    
C39   C41   1.551570 S    
C29   H9    1.110063 S    
C4    C6    1.477621 S    
O2    C1    1.304119 A    
C7    C8    1.388398 A    
C1    O6    1.297267 A    
H7    C32   1.110257 S    
C5    C67   1.473206 S    
C54   C55   1.439988 A    
C38   C66   1.457110 S    
C58   C59   1.394866 A    
O13   C68   1.297364 A    
C14   C15   1.395006 A    
C31   H8    1.110044 S    
N4    O28   1.301430 A    
C16   C17   1.395081 A    
V4    O20   2.146443 S    
N7    O38   1.301517 A    
O5    C3    1.297424 A    
C18   C19   1.419954 A    
C35   C42   1.540562 S    
C41   C43   1.551768 S    
V2    O10   2.146409 S    
C5    C8    1.393746 A    
C35   C36   1.551881 S    
C38   C46   1.218650 T    
V3    O20   1.707372 S    
N2    O23   1.301477 A    
O17   V4    1.700920 S    
C56   C70   1.484407 S    
C48   C63   1.395495 A    
O8    V2    1.974974 S    
O19   C68   1.300119 A    
N1    O22   1.301445 A    
C47   C50   1.391212 A    
O17   V3    2.154075 S    
C27   N3    1.455045 S    
O14   V3    1.962626 S    
O1    V2    1.985498 S    
C11   C15   1.410364 A    
C28   C31   1.543681 S    
O7    V1    2.154128 S    
C53   C57   1.402879 A    
C47   C65   1.480998 S    
C21   N5    1.438025 S    
O13   V3    1.957905 S    
C29   C31   1.556675 S    
C26   C34   1.214608 T    
O9    C4    1.295157 A    
N7    O37   1.301461 A    
C63   H18   1.083705 S    
C23   H6    1.110131 S    
O11   C66   1.297495 A    
C27   C29   1.537333 S    
O12   V3    1.992262 S    
O16   V4    1.990084 S    
C43   C44   1.551325 S    
C18   C20   1.419889 A    
C40   C43   1.540351 S    
C49   C53   1.425406 A    
C12   C13   1.425676 A    
O14   C66   1.304140 A    
N6    O35   1.301868 A    
C23   C24   1.554667 S    
C52   C54   1.441788 A    
C59   C60   1.392545 A    
C3    C26   1.450387 S    
C70   O34   1.398641 S    
C39   H15   1.110600 S    
C30   C32   1.542951 S    
C13   C14   1.406423 A    
C1    C37   1.456403 S    
C5    C9    1.415386 A    
C52   C53   1.421668 A    
C7    C11   1.406485 A    
C69   O30   1.398389 S    
C41   H14   1.110361 S    
O5    V1    1.957737 S    
C17   C18   1.415840 A    
C64   H17   1.077683 S    
C56   C57   1.397427 A    
C61   C64   1.430877 A    
C16   H4    1.078063 S    
C17   N7    1.437176 S    
C51   H21   1.078765 S    
O12   C65   1.299802 A    
C31   C32   1.554721 S    
C19   C22   1.429894 A    
O19   V4    1.974792 S    
C40   C45   1.488386 S    
C49   C50   1.400281 A    
O18   V4    1.989153 S    
C6    C22   1.413919 A    
N3    O25   1.299621 A    
C70   O33   1.223497 D    
O3    C4    1.297954 A    
N6    O36   1.301552 A    
C23   C27   1.538097 S    
C25   C68   1.449992 S    
N8    O40   1.301394 A    
C29   C30   1.545446 S    
C23   C30   1.544947 S    
C41   C42   1.540609 S    
O6    V2    1.964586 S    
C60   C62   1.404021 A    
C10   C12   1.436753 A    
C36   C44   1.551619 S    
C69   O29   1.223128 D    
O2    V1    1.962595 S    
O15   V3    1.986853 S    
C36   C40   1.540493 S    
O4    C2    1.296900 A    
O30   H23   1.013861 S    
C37   C45   1.218254 T    
C27   C28   1.525476 S    
C24   H5    1.109708 S    
C22   N4    1.438548 S    
O1    C2    1.302944 A    
C12   C16   1.404541 A    
C9    N8    1.437544 S    
C20   N2    1.437494 S    
N8    O39   1.301207 A    
N5    O32   1.301214 A    
O11   V4    1.964367 S    
C2    C48   1.481661 S    
O8    C3    1.300213 A    
C14   H3    1.077697 S    
C28   C33   1.481989 S    
C48   C64   1.410854 A    
C24   C32   1.554881 S    
C50   H20   1.085032 S    
C35   H11   1.110530 S    
C62   H22   1.084025 S    
C20   C21   1.407953 A    
O9    V2    1.989224 S    
O7    V2    1.702219 S    
O4    V1    1.992274 S    
O3    V1    1.986827 S    
C7    H1    1.081656 S    
O18   C67   1.295233 A    
O15   C67   1.297468 A    
C51   C52   1.426333 A    
C25   C33   1.214286 T    
C36   H10   1.110396 S    
C42   C46   1.488972 S    
C55   C61   1.445496 A    
C35   C39   1.551404 S    
C65   O16   1.300079 A    
C43   H13   1.110548 S    
N5    O31   1.301355 A    
C6    C21   1.407908 A    
N2    O24   1.301422 A    
N3    O26   1.300275 A    
C30   C34   1.481777 S    
C59   H19   1.084630 S    
C39   C40   1.541423 S    
C8    H2    1.083917 S    
H12   C44   1.110548 S    
C55   C56   1.424892 A    
C47   C51   1.404046 A    
C49   C69   1.483938 S    
C10   C11   1.422600 A    
O34   H24   1.014055 S    
V1    O10   1.707457 S    
C57   H16   1.080181 S    
C62   C63   1.390651 A    
C9    C10   1.435654 A    
C58   N6    1.437402 S    
C54   C58   1.425117 A    
N1    O21   1.301473 A    
N4    O27   1.301414 A    
C15   N1    1.438421 S    
