data_mof_unit_24115.cif
_audit_creation_date              2012-12-10T18:03:16-0500
_audit_creation_method            fapswitch 2.2
_symmetry_space_group_name_H-M    P1
_symmetry_Int_Tables_number       1
_space_group_crystal_system       triclinic
_cell_length_a                    10.910199
_cell_length_b                    9.493764
_cell_length_c                    15.135003
_cell_angle_alpha                 90.006419
_cell_angle_beta                  89.839078
_cell_angle_gamma                 89.821794
_cell_volume                      1567.65249636

loop_
_atom_site_label
_atom_site_type_symbol
_atom_type_description
_atom_site_fract_x
_atom_site_fract_y
_atom_site_fract_z
_atom_type_partial_charge
C1    C     C_R   0.262024 0.499927 0.496296 0.896936
C2    C     C_R   0.738020 0.499665 0.499069 0.911334
C3    C     C_R   0.500240 0.499991 0.329892 0.754211
C4    C     C_R   0.499918 0.500007 0.670154 0.781586
C5    C     C_R   0.555943 0.074209 0.433587 -0.067741
C6    C     C_R   0.442285 0.925763 0.565646 -0.022747
C7    C     C_R   0.442133 0.074689 0.565587 0.003145
C8    C     C_R   0.556416 0.925318 0.433805 0.003806
C9    C     C_R   0.063768 0.369372 0.494288 0.362810
C10   C     C_R   0.935359 0.623385 0.473186 0.345746
C11   C     C_R   0.936721 0.370958 0.505911 0.349534
C12   C     C_R   0.062755 0.626223 0.479703 0.341527
C13   C     C_R   0.540955 0.618989 0.095268 -0.173862
C14   C     C_R   0.535434 0.378612 0.904761 -0.174162
C15   C     C_R   0.465442 0.621452 0.905019 -0.170626
C16   C     C_R   0.460662 0.380894 0.095367 -0.174375
C17   C     C_R   0.540099 0.619305 0.187108 -0.194826
C18   C     C_R   0.534345 0.378304 0.812936 -0.180836
C19   C     C_R   0.465913 0.621712 0.813177 -0.188155
C20   C     C_R   0.461384 0.380538 0.187190 -0.202079
C21   C     C_R   0.500589 0.499952 0.233499 -0.012647
C22   C     C_R   0.500017 0.500005 0.766643 -0.019762
C23   C     C_R   0.500774 0.499976 0.048665 0.109343
C24   C     C_R   0.500601 0.500042 0.951542 0.105760
C25   C     C_R   0.871816 0.498360 0.493685 -0.383269
C26   C     C_R   0.128061 0.498652 0.489288 -0.385960
Cu1   Cu    Cu3+1 0.500000 0.640660 0.500000 0.973064
Cu2   Cu    Cu3+1 0.500000 0.359340 0.500000 0.960012
H1    H     H_    0.601635 0.130031 0.380718 0.115453
H2    H     H_    0.395693 0.869868 0.618075 0.107073
H3    H     H_    0.395317 0.130934 0.617920 0.130107
H4    H     H_    0.601829 0.869075 0.380922 0.116145
H5    H     H_    0.574384 0.711174 0.060772 0.123505
H6    H     H_    0.564933 0.284420 0.939100 0.125037
H7    H     H_    0.436137 0.715638 0.939582 0.124016
H8    H     H_    0.427256 0.288721 0.060970 0.124361
H9    H     H_    0.571917 0.712049 0.221773 0.132998
H10   H     H_    0.561936 0.283527 0.778223 0.152569
H11   H     H_    0.438071 0.716454 0.778654 0.138203
H12   H     H_    0.429569 0.287742 0.221918 0.140919
N1    N     N_R   0.500000 0.852070 0.500000 -0.148695
N2    N     N_R   0.500000 0.147930 0.500000 -0.153974
O1    O     O_R   0.319640 0.618740 0.499990 -0.542884
O2    O     O_R   0.680360 0.381260 0.500010 -0.552091
O3    O     O_R   0.680360 0.618740 0.500010 -0.535721
O4    O     O_R   0.319640 0.381260 0.499990 -0.545393
O5    O     O_R   0.499990 0.618780 0.371460 -0.592299
O6    O     O_R   0.500010 0.381220 0.628540 -0.589688
O7    O     O_R   0.500010 0.618780 0.628540 -0.598371
O8    O     O_R   0.499990 0.381220 0.371460 -0.607277
O9    O     O_3   0.124568 0.241247 0.496125 -0.543257
C27   C     C_3   0.148612 0.199177 0.407948 -0.291577
H13   H     H_    0.195008 0.095066 0.409046 0.197748
H14   H     H_    0.210316 0.273941 0.373109 0.164211
H15   H     H_    0.062973 0.188004 0.368979 0.120236
O10   O     O_3   0.873623 0.747204 0.454062 -0.545212
C28   C     C_3   0.867643 0.761848 0.361459 -0.297446
H16   H     H_    0.823306 0.864122 0.345934 0.150910
H17   H     H_    0.811034 0.676901 0.331686 0.140489
H18   H     H_    0.960503 0.763312 0.330790 0.179001
O11   O     O_3   0.879156 0.255474 0.543883 -0.539526
C29   C     C_3   0.862696 0.147246 0.481177 -0.172132
H19   H     H_    0.839853 0.187501 0.413995 0.100072
H20   H     H_    0.785473 0.080722 0.503591 0.186850
H21   H     H_    0.943791 0.076857 0.479177 0.199658
O12   O     O_3   0.123095 0.753260 0.468986 -0.547362
C30   C     C_3   0.117119 0.828684 0.549315 -0.216745
H22   H     H_    0.169594 0.927769 0.541688 0.186072
H23   H     H_    0.159325 0.768035 0.604427 0.130797
H24   H     H_    0.021348 0.858207 0.566629 0.185452

loop_
_geom_bond_atom_site_label_1
_geom_bond_atom_site_label_2
_ccdc_geom_bond_type
C14   H6    S    
C5    C8    A    
C2    O2    A    
C23   C24   S    
C12   O12   S    
C13   H5    S    
C6    C7    A    
C16   C23   A    
C10   O10   S    
C14   C18   A    
O11   C29   S    
C9    O9    S    
C27   H15   S    
C13   C17   A    
C4    O7    A    
C16   C20   A    
C30   H24   S    
Cu1   O3    S    
O12   C30   S    
C18   H10   S    
C8    N1    A    
C17   H9    S    
C27   H13   S    
C15   C19   A    
C9    C11   A    
Cu2   O4    S    
C28   H16   S    
C29   H19   S    
C1    O1    A    
C10   C12   A    
Cu1   O7    S    
C16   H8    S    
C19   H11   S    
C10   C25   A    
C3    O5    A    
C15   C24   A    
C6    H2    S    
C3    O8    A    
C27   H14   S    
C9    C26   A    
C2    C25   S    
C5    H1    S    
C2    O3    A    
C1    C26   S    
C20   H12   S    
C1    O4    A    
C3    C21   S    
C28   H17   S    
O10   C28   S    
C11   C25   A    
C14   C24   A    
O9    C27   S    
C8    H4    S    
Cu1   O1    S    
C19   C22   A    
C7    H3    S    
C20   C21   A    
C13   C23   A    
C5    N2    A    
C4    O6    A    
C7    N2    A    
Cu1   O5    S    
Cu1   Cu2   S    
C15   H7    S    
C4    C22   S    
Cu2   O6    S    
C28   H18   S    
C29   H20   S    
Cu2   N2    S    
C29   H21   S    
C30   H23   S    
C18   C22   A    
Cu2   O8    S    
Cu2   O2    S    
C17   C21   A    
C30   H22   S    
C12   C26   A    
Cu1   N1    S    
C11   O11   S    
C6    N1    A    
