data_mof_unit_43050.cif
_audit_creation_date              2013-03-05T15:55:01-0500
_audit_creation_method            fapswitch 2.2
_symmetry_space_group_name_H-M    P1
_symmetry_Int_Tables_number       1
_space_group_crystal_system       triclinic
_cell_length_a                    23.429427
_cell_length_b                    10.779507
_cell_length_c                    9.91089
_cell_angle_alpha                 90.96638
_cell_angle_beta                  91.74854
_cell_angle_gamma                 92.47296
_cell_volume                      2499.16140083

loop_
_atom_site_label
_atom_site_type_symbol
_atom_site_description
_atom_site_fract_x
_atom_site_fract_y
_atom_site_fract_z
_atom_type_partial_charge
O1    O     O_R   0.500000 0.316780 0.614690 -0.659473
O2    O     O_R   0.500000 0.316750 0.385360 -0.619207
C1    C     C_R   0.505690 0.261572 0.499651 0.939745
O3    O     O_R   0.416160 0.499970 0.614690 -0.657326
O4    O     O_R   0.416150 0.499950 0.385360 -0.558393
C2    C     C_R   0.389576 0.500274 0.498382 0.910978
Zn1   Zn    Zn3+2 0.500000 0.500020 0.653130 0.969473
Zn2   Zn    Zn3+2 0.500000 0.499980 0.346870 1.022292
O5    O     O_R   0.500000 0.683250 0.614640 -0.638559
O6    O     O_R   0.500000 0.683220 0.385310 -0.558037
O7    O     O_R   0.583850 0.500050 0.614640 -0.582965
O8    O     O_R   0.583840 0.500030 0.385310 -0.634178
C3    C     C_R   0.497647 0.740448 0.502143 0.935416
C4    C     C_R   0.610693 0.503363 0.502048 0.901151
C5    C     C_R   0.884177 0.605125 0.533048 0.552259
N1    N     N_R   0.852988 0.496607 0.507503 -0.349156
C6    C     C_R   0.878637 0.388051 0.479078 0.549048
C7    C     C_R   0.938122 0.386404 0.472985 -0.066963
C8    C     C_R   0.971003 0.496670 0.500819 -0.011461
C9    C     C_R   0.943826 0.606727 0.532740 -0.069836
C10   C     C_R   0.965116 0.276519 0.442993 -0.186295
C11   C     C_R   0.024559 0.274579 0.439720 0.306864
C12   C     C_R   0.057970 0.386288 0.461856 -0.126844
C13   C     C_R   0.031002 0.496848 0.496944 -0.071569
C14   C     C_R   0.063878 0.607371 0.529018 -0.123794
C15   C     C_R   0.035925 0.718247 0.558287 0.307611
C16   C     C_R   0.976433 0.716292 0.561142 -0.178053
C17   C     C_R   0.117508 0.392701 0.448443 0.562678
N2    N     N_R   0.148510 0.496924 0.489743 -0.369311
C18   C     C_R   0.123638 0.601173 0.534407 0.553331
O9    O     O_2   0.857433 0.711403 0.556990 -0.524160
O10   O     O_2   0.846597 0.282004 0.457783 -0.532514
H1    H     H_    0.940170 0.190287 0.426608 0.227307
O11   O     O_2   0.144554 0.297571 0.392427 -0.453115
O12   O     O_2   0.157043 0.696352 0.586459 -0.473068
H2    H     H_    0.955769 0.802148 0.582630 0.227308
C19   C     C_R   0.238903 0.555878 0.387966 -0.069717
H3    H     H_    0.216023 0.601565 0.307704 0.161208
C20   C     C_R   0.298206 0.557359 0.390355 -0.118774
H4    H     H_    0.321067 0.605068 0.311745 0.186022
C21   C     C_R   0.327634 0.499048 0.495103 -0.022145
C22   C     C_R   0.297550 0.439744 0.597629 -0.180018
H5    H     H_    0.319805 0.394162 0.679026 0.162038
C23   C     C_R   0.238301 0.437711 0.594572 -0.067811
H6    H     H_    0.214958 0.391964 0.673673 0.162404
C24   C     C_R   0.209136 0.495879 0.489951 0.273532
C25   C     C_R   0.760063 0.464499 0.390992 -0.069391
H7    H     H_    0.781038 0.436423 0.300225 0.172874
C26   C     C_R   0.701037 0.467625 0.390338 -0.239493
H8    H     H_    0.677177 0.438811 0.298973 0.192799
C27   C     C_R   0.673195 0.506627 0.506126 -0.173082
C28   C     C_R   0.705717 0.544401 0.623776 0.295121
C29   C     C_R   0.764913 0.535346 0.624630 -0.147070
H9    H     H_    0.790310 0.562774 0.714237 0.192007
C30   C     C_R   0.792081 0.497266 0.508284 0.224274
H10   H     H_    0.486650 0.108302 0.288834 0.191729
C31   C     C_R   0.556987 0.131166 0.730465 -0.105363
H11   H     H_    0.577764 0.222021 0.720578 0.158828
C32   C     C_R   0.559775 0.076427 0.856486 -0.105140
H12   H     H_    0.580628 0.125956 0.941562 0.148183
C33   C     C_R   0.533021 0.960739 0.874039 -0.132393
H13   H     H_    0.531573 0.921344 0.973735 0.168567
C34   C     C_R   0.508279 0.895136 0.763039 -0.104844
H14   H     H_    0.484691 0.810678 0.785965 0.169847
C35   C     C_R   0.510756 0.943751 0.630682 0.048857
C36   C     C_R   0.527774 0.069281 0.619702 0.076006
C37   C     C_R   0.513199 0.129923 0.499348 -0.220450
C38   C     C_R   0.496110 0.062843 0.382809 -0.230657
C39   C     C_R   0.489017 0.936400 0.386097 0.609693
C40   C     C_R   0.496585 0.874801 0.508629 -0.266404
H15   H     H_    0.551674 0.663544 0.132004 0.169794
C41   C     C_R   0.439803 0.301646 0.126004 0.315875
C42   C     C_R   0.427849 0.193103 0.048716 -0.227433
H16   H     H_    0.407806 0.112281 0.094241 0.212685
C43   C     C_R   0.424478 0.200257 0.909771 -0.218509
H17   H     H_    0.404977 0.123892 0.849930 0.189284
C44   C     C_R   0.439987 0.310982 0.849385 -0.127528
H18   H     H_    0.426120 0.320795 0.746766 0.210240
C45   C     C_R   0.470702 0.405775 0.922835 0.138257
C46   C     C_R   0.470639 0.403942 0.067252 0.037580
N3    N     N_R   0.499460 0.498800 0.142780 -0.127830
C47   C     C_R   0.528377 0.590033 0.075349 -0.040455
H19   H     H_    0.552413 0.662228 0.881925 0.185984
C48   C     C_R   0.528634 0.589515 0.932371 -0.085719
N4    N     N_R   0.499440 0.498720 0.857170 -0.124646
N5    N     N_R   0.680161 0.598850 0.739228 0.217745
O13   O     O_R   0.647786 0.693030 0.723814 -0.386033
O14   O     O_R   0.697871 0.571193 0.860310 -0.392144
F1    F     F_    0.472345 0.875455 0.269342 -0.666465
N6    N     N_R   0.050093 0.156624 0.428279 0.258685
O15   O     O_R   0.086954 0.125018 0.520881 -0.243801
O16   O     O_R   0.028268 0.072200 0.344123 -0.323767
N7    N     N_R   0.397892 0.322349 0.223736 0.240726
O17   O     O_R   0.355743 0.390727 0.187942 -0.382206
O18   O     O_R   0.389074 0.240408 0.316712 -0.406453
N8    N     N_R   0.066626 0.835424 0.575772 0.263042
O19   O     O_R   0.099192 0.875910 0.480500 -0.239059
O20   O     O_R   0.054058 0.910673 0.673431 -0.310271

loop_
_geom_bond_atom_site_label_1
_geom_bond_atom_site_label_2
_geom_bond_distance
_ccdc_geom_bond_type
C34   C35   1.422657 A    
N7    O17   1.301769 A    
C7    C10   1.398449 A    
C21   C22   1.401684 A    
C8    C9    1.406347 A    
C31   C36   1.417250 A    
N3    C47   1.365691 A    
C31   H11   1.082011 S    
C25   C26   1.384642 A    
C44   H18   1.066561 S    
C23   H6    1.082971 S    
Zn1   O7    2.012633 S    
C15   C16   1.394278 A    
N2    C18   1.361547 A    
C18   O12   1.348901 S    
C17   N2    1.361335 A    
O4    C2    1.298080 A    
O7    C4    1.297790 A    
N5    O14   1.301336 A    
C31   C32   1.391249 A    
C10   H1    1.083637 S    
C3    C40   1.449919 S    
C5    N1    1.368000 A    
C7    C8    1.406886 A    
C42   H16   1.083513 S    
C33   C34   1.394930 A    
O5    C3    1.284004 A    
H19   C48   1.080405 S    
C29   H9    1.083456 S    
C38   C39   1.367007 A    
C26   C27   1.404370 A    
C2    C21   1.450120 S    
N8    O20   1.301157 A    
C12   C13   1.415960 A    
H15   C47   1.081711 S    
C44   C45   1.404071 A    
C36   C37   1.409772 A    
C17   O11   1.348947 S    
C32   H12   1.082535 S    
N7    O18   1.302047 A    
C10   C11   1.395126 A    
C42   C43   1.380571 A    
C39   C40   1.404051 A    
C22   C23   1.386804 A    
O3    Zn1   1.989457 S    
C39   F1    1.359339 S    
C23   C24   1.396747 A    
C29   C30   1.398095 A    
C15   N8    1.431598 S    
C5    C9    1.396984 A    
C1    C37   1.437452 S    
C32   C33   1.387386 A    
C34   H14   1.075702 S    
C37   C38   1.391336 A    
C25   H7    1.083038 S    
C13   C14   1.416632 A    
C20   C21   1.401406 A    
C20   H4    1.083306 S    
N5    O13   1.301535 A    
C41   C42   1.400914 A    
C14   C15   1.417387 A    
H10   C38   1.081140 S    
Zn2   N3    2.022189 S    
O1    C1    1.290385 A    
C43   H17   1.082895 S    
C19   H3    1.082881 S    
N6    O16   1.301358 A    
C4    C27   1.462579 S    
Zn2   O8    1.989455 S    
N8    O19   1.301276 A    
C6    C7    1.397731 A    
C11   N6    1.432615 S    
C12   C17   1.404139 A    
C48   N4    1.366655 A    
C43   C44   1.383738 A    
C41   N7    1.421936 S    
O3    C2    1.293514 A    
O8    C4    1.299213 A    
C35   C36   1.401031 A    
C47   C48   1.417154 A    
C22   H5    1.083463 S    
C45   N4    1.367922 A    
C28   C29   1.394323 A    
C25   C30   1.396018 A    
C14   C18   1.404053 A    
Zn1   O5    2.017938 S    
O1    Zn1   2.005322 S    
Zn2   O6    2.005324 S    
O2    Zn2   2.017937 S    
C46   N3    1.394850 A    
O6    C3    1.306563 A    
O4    Zn2   2.012635 S    
C5    O9    1.350279 S    
C9    C16   1.398419 A    
C16   H2    1.083778 S    
N2    C24   1.420904 S    
C28   N5    1.435879 S    
O2    C1    1.294204 A    
N1    C30   1.427599 S    
C27   C28   1.417405 A    
C41   C46   1.433715 A    
N6    O15   1.300695 A    
Zn1   N4    2.022942 S    
C8    C13   1.407343 A    
C33   H13   1.082928 S    
C45   C46   1.431820 A    
C19   C20   1.388326 A    
C26   H8    1.083315 S    
C6    O10   1.350161 S    
C11   C12   1.417820 A    
C19   C24   1.397308 A    
C35   C40   1.431709 A    
N1    C6    1.367377 A    
