data_mof_unit_12824.cif
_audit_creation_date              2012-12-10T18:06:00-0500
_audit_creation_method            fapswitch 2.2
_symmetry_space_group_name_H-M    P1
_symmetry_Int_Tables_number       1
_space_group_crystal_system       triclinic
_cell_length_a                    12.680228
_cell_length_b                    13.127322
_cell_length_c                    14.927669
_cell_angle_alpha                 92.026834
_cell_angle_beta                  101.784697
_cell_angle_gamma                 81.674671
_cell_volume                      2406.76986386

loop_
_atom_site_label
_atom_site_type_symbol
_atom_type_description
_atom_site_fract_x
_atom_site_fract_y
_atom_site_fract_z
_atom_type_partial_charge
C1    C     C_R   0.439099 0.691037 0.485601 0.835394
C2    C     C_R   0.570422 0.557192 0.828263 -0.255122
C3    C     C_R   0.500661 0.500475 0.768703 -0.065438
C4    C     C_R   0.500331 0.500204 0.672672 0.876410
C5    C     C_R   0.429758 0.444967 0.800422 -0.265060
C6    C     C_R   0.709458 0.057615 0.446984 -0.193473
C7    C     C_R   0.597165 0.198971 0.504570 -0.064696
C8    C     C_R   0.300004 0.841758 0.493676 -0.169243
C9    C     C_R   0.269934 0.947305 0.498184 -0.140856
C10   C     C_R   0.343627 0.013132 0.489631 -0.203018
C11   C     C_R   0.447825 0.973586 0.472510 0.087849
C12   C     C_R   0.426216 0.447159 0.078665 0.113664
C13   C     C_R   0.470064 0.868045 0.452219 0.088673
C14   C     C_R   0.531042 0.035115 0.475628 0.082074
C15   C     C_R   0.627503 0.995592 0.444435 0.167512
C16   C     C_R   0.561077 0.308816 0.509902 0.894223
C17   C     C_R   0.639922 0.895370 0.410401 -0.245601
C18   C     C_R   0.561898 0.832284 0.413803 -0.199334
C19   C     C_R   0.521836 0.134402 0.511428 -0.270399
C20   C     C_R   0.693790 0.159753 0.476234 -0.141386
C21   C     C_R   0.400723 0.801108 0.472846 -0.117398
C22   C     C_R   0.117696 0.306525 0.427181 -0.295870
C23   C     C_R   0.635914 0.618575 0.074030 -0.211608
C24   C     C_R   0.794303 0.634143 0.606642 0.028074
C25   C     C_R   0.899103 0.655654 0.640547 -0.244755
C26   C     C_R   0.986122 0.597602 0.610582 -0.106008
C27   C     C_R   0.968459 0.519749 0.543877 0.035001
C28   C     C_R   0.499076 0.501058 0.327287 0.907977
C29   C     C_R   0.861516 0.494822 0.516448 0.106145
C30   C     C_R   0.052447 0.464163 0.503427 -0.045677
C31   C     C_R   0.037471 0.365358 0.466111 0.124652
C32   C     C_R   0.937083 0.331678 0.457551 -0.290634
C33   C     C_R   0.847146 0.405271 0.461253 -0.028096
C34   C     C_R   0.637627 0.616978 0.981201 -0.213946
C35   C     C_R   0.147073 0.503768 0.492561 0.092140
C36   C     C_R   0.210140 0.348014 0.421028 -0.003824
C37   C     C_R   0.426958 0.447174 0.171407 -0.228984
C38   C     C_R   0.496871 0.503595 0.231078 -0.042986
C39   C     C_R   0.565004 0.562109 0.199109 -0.267134
C40   C     C_R   0.566133 0.562224 0.106698 0.126316
C41   C     C_R   0.496648 0.504314 0.046167 0.060444
C42   C     C_2   0.162015 0.610915 0.514423 0.394424
C43   C     C_2   0.770458 0.411260 0.373406 0.503101
C44   C     C_R   0.569182 0.559425 0.920791 0.117307
C45   C     C_R   0.497896 0.503206 0.953215 0.061643
C46   C     C_R   0.428054 0.445624 0.892695 0.118046
C47   C     C_R   0.357891 0.389677 0.925284 -0.215738
C48   C     C_R   0.357118 0.390291 0.018207 -0.208986
H1    H     H_    0.374556 0.402034 0.197309 0.157111
H2    H     H_    0.924905 0.259239 0.422173 0.177101
H3    H     H_    0.107691 0.230268 0.399484 0.148094
H4    H     H_    0.616916 0.607563 0.246096 0.139222
H5    H     H_    0.726652 0.677787 0.631185 0.139082
H6    H     H_    0.066898 0.611720 0.643146 0.120995
H7    H     H_    0.913089 0.715836 0.691241 0.147184
H8    H     H_    0.689406 0.663201 0.120257 0.150089
H9    H     H_    0.692310 0.660504 0.956671 0.148709
H10   H     H_    0.624261 0.600713 0.802425 0.154951
H11   H     H_    0.376638 0.400570 0.753411 0.159809
H12   H     H_    0.710991 0.865004 0.382913 0.158081
H13   H     H_    0.304080 0.345366 0.879032 0.148577
H14   H     H_    0.302850 0.346324 0.042804 0.149935
H15   H     H_    0.754514 0.208607 0.473050 0.187370
H16   H     H_    0.228406 0.628269 0.568301 0.071439
H17   H     H_    0.756773 0.481538 0.334096 0.059518
H18   H     H_    0.783599 0.028249 0.423566 0.145501
H19   H     H_    0.454118 0.165037 0.542503 0.152362
H20   H     H_    0.245824 0.792320 0.509587 0.191526
H21   H     H_    0.316222 0.094423 0.495042 0.132383
H22   H     H_    0.191189 0.978101 0.512683 0.150166
H23   H     H_    0.574002 0.755483 0.385497 0.168478
H24   H     H_    0.274146 0.301976 0.393529 0.146532
N1    N     N_R   0.222190 0.444670 0.452360 -0.135946
N2    N     N_R   0.776970 0.554790 0.547140 -0.135030
O1    O     O_R   0.366740 0.627160 0.477250 -0.620815
O2    O     O_2   0.728209 0.336772 0.340705 -0.603925
O3    O     O_R   0.544830 0.662520 0.507680 -0.626986
O4    O     O_R   0.410940 0.482340 0.616930 -0.643298
O5    O     O_R   0.589030 0.517700 0.647360 -0.619417
O6    O     O_R   0.455170 0.337480 0.492320 -0.630724
O7    O     O_R   0.633260 0.372840 0.522750 -0.600320
O8    O     O_R   0.410970 0.482300 0.352640 -0.616773
O9    O     O_R   0.589060 0.517660 0.383070 -0.644192
O10   O     O_2   0.097688 0.680664 0.473904 -0.594622
Zn1   Zn    Zn3+2 0.381090 0.476390 0.479680 0.939600
Zn2   Zn    Zn3+2 0.618910 0.523610 0.520320 0.942437

loop_
_geom_bond_atom_site_label_1
_geom_bond_atom_site_label_2
_ccdc_geom_bond_type
C1    C21   S    
C27   C29   A    
C1    O3    A    
C12   C48   A    
C23   H8    S    
C45   C46   A    
C26   C27   A    
C12   C41   A    
C13   C18   A    
C37   C38   A    
C38   C39   A    
C11   C14   A    
C23   C40   A    
C29   C33   A    
C18   H23   S    
C12   C37   A    
C35   C42   S    
C6    C15   A    
O1    Zn1   S    
C35   N1    A    
C47   C48   A    
C2    C44   A    
C8    C9    A    
C34   H9    S    
C19   H19   S    
C9    C10   A    
O7    Zn2   S    
C39   H4    S    
C28   O9    A    
C26   H6    S    
C17   C18   A    
C22   C31   A    
C5    H11   S    
C28   O8    A    
C33   C43   S    
C34   C44   A    
C24   C25   A    
C4    O5    A    
C10   C11   A    
C39   C40   A    
C29   N2    A    
C25   C26   A    
C16   O6    A    
C1    O1    A    
C4    O4    A    
O6    Zn1   S    
C37   H1    S    
C48   H14   S    
C31   C32   A    
C42   O10   D    
C28   C38   S    
C43   H17   S    
C23   C34   A    
N1    Zn1   S    
C8    C21   A    
C13   C21   A    
N2    Zn2   S    
C32   H2    S    
C30   C35   A    
O4    Zn1   S    
C40   C41   A    
O3    Zn2   S    
C8    H20   S    
C7    C19   A    
C3    C4    S    
C42   H16   S    
C22   C36   A    
C44   C45   A    
C43   O2    D    
C15   C17   A    
C46   C47   A    
C7    C16   S    
C14   C19   A    
C25   H7    S    
C3    C5    A    
C47   H13   S    
C2    H10   S    
O8    Zn1   S    
C6    C20   A    
C5    C46   A    
C32   C33   A    
C20   H15   S    
C2    C3    A    
C24   H5    S    
C11   C13   A    
C24   N2    A    
C30   C31   A    
C16   O7    A    
C36   N1    A    
C17   H12   S    
C9    H22   S    
C10   H21   S    
C6    H18   S    
O9    Zn2   S    
C7    C20   A    
C41   C45   A    
C14   C15   A    
O5    Zn2   S    
C36   H24   S    
C22   H3    S    
C27   C30   A    
