data_mof_unit_49527.cif
_audit_creation_date              2012-12-11T15:41:12-0500
_audit_creation_method            fapswitch 2.2
_symmetry_space_group_name_H-M    P1
_symmetry_Int_Tables_number       1
_space_group_crystal_system       triclinic
_cell_length_a                    14.818126
_cell_length_b                    14.863987
_cell_length_c                    14.891562
_cell_angle_alpha                 109.158329
_cell_angle_beta                  109.807844
_cell_angle_gamma                 109.306259
_cell_volume                      2529.24034841

loop_
_atom_site_label
_atom_site_type_symbol
_atom_type_description
_atom_site_fract_x
_atom_site_fract_y
_atom_site_fract_z
_atom_type_partial_charge
C1    C     C_R   0.193948 0.994221 0.903345 -0.107093
C2    C     C_R   0.746883 0.932088 0.025304 -0.115078
C3    C     C_R   0.869469 0.300898 0.302017 -0.000179
C4    C     C_R   0.226069 0.674198 0.674713 0.017137
C5    C     C_R   0.499728 0.050672 0.325579 0.024279
C6    C     C_R   0.499711 0.066446 0.697880 0.049404
C7    C     C_R   0.494074 0.325912 0.041724 -0.101015
C8    C     C_R   0.500784 0.706815 0.082397 -0.074708
C9    C     C_R   0.112896 0.243047 0.794789 -0.144020
C10   C     C_R   0.805050 0.912570 0.428746 -0.174116
C11   C     C_R   0.226153 0.315533 0.864302 -0.241864
C12   C     C_R   0.705394 0.815592 0.348641 -0.221922
C13   C     C_R   0.277514 0.340146 0.974236 -0.111512
C14   C     C_R   0.702910 0.730730 0.268133 -0.106576
C15   C     C_R   0.214493 0.289134 0.013223 0.771087
C16   C     C_R   0.802112 0.744728 0.269125 0.740396
C17   C     C_R   0.100986 0.215557 0.942966 -0.322597
C18   C     C_R   0.901666 0.841896 0.349619 -0.295710
C19   C     C_R   0.049147 0.193827 0.834124 0.043303
C20   C     C_R   0.903650 0.925857 0.429720 0.046721
C21   C     C_R   0.398367 0.535167 0.076551 -0.221496
C22   C     C_R   0.589516 0.527228 0.167098 -0.113947
C23   C     C_R   0.804678 0.208222 0.300347 -0.130136
C24   C     C_R   0.251554 0.777379 0.685391 -0.115793
C25   C     C_R   0.499724 0.628214 0.123295 0.053282
C26   C     C_R   0.489796 0.428258 0.087941 0.077674
C27   C     C_R   0.596459 0.628223 0.184029 0.085480
C28   C     C_R   0.390915 0.433725 0.051020 0.115034
C29   C     C_R   0.037790 0.476160 0.377798 -0.140342
C30   C     C_R   0.129177 0.470910 0.572074 -0.162849
C31   C     C_R   0.128982 0.569943 0.471462 -0.144614
C32   C     C_R   0.037898 0.377069 0.478447 -0.148985
C33   C     C_R   0.166978 0.570594 0.571717 0.137334
C34   C     C_R   0.985188 0.382637 0.384116 0.134303
C35   C     C_R   0.599789 0.158399 0.622294 -0.161838
C36   C     C_R   0.399617 0.057692 0.428933 -0.150681
C37   C     C_R   0.599750 0.156266 0.528732 -0.162412
C38   C     C_R   0.399552 0.059812 0.522504 -0.165408
C39   C     C_R   0.499684 0.094852 0.428811 0.144551
C40   C     C_R   0.499654 0.100171 0.616161 0.138841
C41   C     C_R   0.964252 0.839843 0.943690 -0.149483
C42   C     C_R   0.862499 0.929224 0.834590 -0.163233
C43   C     C_R   0.872054 0.841163 0.945475 -0.148656
C44   C     C_R   0.955106 0.928016 0.832697 -0.158042
C45   C     C_R   0.407379 0.973353 0.222339 -0.080898
C46   C     C_R   0.591494 0.095604 0.791351 -0.137380
C47   C     C_R   0.829593 0.898223 0.902417 0.129043
C48   C     C_R   0.013235 0.894397 0.897643 0.128472
C49   C     C_R   0.588486 0.315454 0.058478 0.715027
C50   C     C_R   0.409284 0.706306 0.013620 0.663419
C51   C     C_R   0.592284 0.065691 0.314651 -0.123007
C52   C     C_R   0.408149 0.004098 0.699645 -0.134445
C53   C     C_R   0.404687 0.220556 0.968270 -0.212846
C54   C     C_R   0.591663 0.794520 0.101842 -0.239025
C55   C     C_R   0.805412 0.298922 0.208323 -0.028489
C56   C     C_R   0.252174 0.685472 0.778027 -0.109769
C57   C     C_R   0.195451 0.903442 0.995364 -0.117377
C58   C     C_R   0.747760 0.024270 0.933059 -0.121660
C59   C     C_R   0.129870 0.931116 0.932158 0.044549
C60   C     C_R   0.772111 0.945446 0.947323 0.039219
H1    H     H_    0.165052 0.017236 0.842167 0.085400
H2    H     H_    0.755308 0.878054 0.057136 0.106333
H3    H     H_    0.074520 0.228150 0.711438 0.114531
H4    H     H_    0.805606 0.977286 0.489988 0.121569
H5    H     H_    0.273270 0.356280 0.833893 0.159568
H6    H     H_    0.630074 0.806582 0.349326 0.162904
H7    H     H_    0.052553 0.177821 0.974028 0.168212
H8    H     H_    0.977473 0.852077 0.349584 0.158939
H9    H     H_    0.322068 0.536266 0.045542 0.221881
H10   H     H_    0.663262 0.526795 0.213152 0.210253
H11   H     H_    0.003272 0.481628 0.304502 0.131528
H12   H     H_    0.161599 0.466712 0.646510 0.112534
H13   H     H_    0.161220 0.643846 0.466651 0.116398
H14   H     H_    0.003408 0.304291 0.484427 0.102930
H15   H     H_    0.678756 0.196332 0.695223 0.111841
H16   H     H_    0.320797 0.016571 0.354791 0.114763
H17   H     H_    0.678623 0.192741 0.533289 0.110493
H18   H     H_    0.320640 0.020137 0.516883 0.112522
H19   H     H_    0.002462 0.806257 0.988586 0.120941
H20   H     H_    0.824309 0.964563 0.792303 0.121135
H21   H     H_    0.832096 0.174906 0.351729 0.090112
H22   H     H_    0.241341 0.799548 0.622029 0.098147
H23   H     H_    0.843318 0.808514 0.991532 0.129371
H24   H     H_    0.986169 0.962853 0.789098 0.125670
H25   H     H_    0.321568 0.940640 0.199937 0.096439
H26   H     H_    0.676042 0.156266 0.824750 0.095539
H27   H     H_    0.678053 0.118583 0.377785 0.095324
H28   H     H_    0.323346 0.980276 0.648231 0.090325
H29   H     H_    0.318247 0.192485 0.934458 0.148392
H30   H     H_    0.677183 0.828105 0.159741 0.150027
H31   H     H_    0.834528 0.348077 0.174127 0.157723
H32   H     H_    0.243340 0.622713 0.800931 0.145480
H33   H     H_    0.168835 0.842119 0.018508 0.107883
H34   H     H_    0.758317 0.056127 0.879667 0.093053
N1    N     N_R   0.293810 0.002730 0.945950 -0.040162
N2    N     N_R   0.706190 0.997270 0.054050 -0.041030
N3    N     N_R   0.706160 0.152130 0.208910 -0.045807
N4    N     N_R   0.293840 0.847870 0.791090 -0.046034
N5    N     N_R   0.443140 0.945920 0.152090 -0.039788
N6    N     N_R   0.556860 0.054080 0.847910 -0.041978
N7    N     N_R   0.556830 0.208940 0.002760 -0.108430
N8    N     N_R   0.443170 0.791060 0.997240 -0.099615
N9    N     N_R   0.556790 0.002750 0.208910 -0.044482
N10   N     N_R   0.443210 0.997250 0.791090 -0.040216
N11   N     N_R   0.443180 0.152110 0.945950 -0.079483
N12   N     N_R   0.556820 0.847890 0.054050 -0.076824
N13   N     N_R   0.706170 0.208950 0.152090 -0.053679
N14   N     N_R   0.293830 0.791050 0.847910 -0.036187
N15   N     N_R   0.293800 0.945910 0.002760 -0.039791
N16   N     N_R   0.706200 0.054090 0.997240 -0.044898
Ni1   Ni    Ni4+2 0.369690 0.999990 0.869700 0.205852
Ni2   Ni    Ni4+2 0.630310 0.000010 0.130300 0.205466
Ni3   Ni    Ni4+2 0.369670 0.869670 0.000000 0.274871
Ni4   Ni    Ni4+2 0.630330 0.130330 0.000000 0.235957
F1    F     F_    0.262057 0.313699 0.119831 -0.694960
F2    F     F_    0.802238 0.665890 0.190666 -0.681202
F3    F     F_    0.694399 0.397592 0.113779 -0.716809
F4    F     F_    0.305062 0.655548 0.995016 -0.747541
N17   N     N_3   0.931741 0.123476 0.765339 -0.220970
H35   H     H_    0.906064 0.115696 0.687275 0.088319
H36   H     H_    0.894659 0.161914 0.799495 0.107042
N18   N     N_3   0.006306 0.024221 0.511899 -0.210820
H37   H     H_    0.998317 0.090414 0.508184 0.095105
H38   H     H_    0.019715 0.032873 0.588579 0.110573

loop_
_geom_bond_atom_site_label_1
_geom_bond_atom_site_label_2
_ccdc_geom_bond_type
N5    N9    A    
C42   H20   S    
C8    C25   S    
C43   H23   S    
C3    C23   A    
C53   H29   S    
N12   Ni2   S    
N2    Ni2   S    
C35   H15   S    
C7    C26   S    
C24   N4    A    
C35   C37   A    
C54   H30   S    
C1    C59   A    
C49   N7    A    
C4    C24   A    
C2    C60   A    
C31   H13   S    
C18   H8    S    
C51   N9    A    
N6    N10   A    
N4    N14   A    
C18   C20   A    
C50   F4    S    
C24   H22   S    
C56   N14   A    
C55   H31   S    
C36   H16   S    
C47   C60   S    
C3    C55   A    
C9    C19   A    
C49   F3    S    
C10   C20   A    
C31   C33   A    
C13   C28   S    
C14   C27   S    
C6    C46   A    
N16   Ni4   S    
C20   N18   S    
N15   Ni3   S    
N11   Ni1   S    
C19   N17   S    
C38   C40   A    
C58   N16   A    
C4    C56   A    
N7    Ni4   S    
C41   C43   A    
C42   C44   A    
C16   F2    S    
N17   H36   S    
N7    N11   A    
C57   N15   A    
C17   H7    S    
C54   N12   A    
C52   H28   S    
C6    C40   S    
N6    Ni4   S    
C7    C49   A    
C45   N5    A    
C8    C54   A    
N3    Ni2   S    
C38   H18   S    
C3    C34   S    
C12   H6    S    
C29   C34   A    
C21   H9    S    
N9    Ni2   S    
C32   C34   A    
N14   Ni3   S    
C45   H25   S    
N13   Ni4   S    
N5    Ni3   S    
C46   N6    A    
C1    N1    A    
C44   C48   A    
C9    C11   A    
C10   C12   A    
C16   C18   A    
C23   N3    A    
C21   C28   A    
C12   C14   A    
C50   N8    A    
C22   C27   A    
C13   C15   A    
N1    N15   A    
C14   C16   A    
C7    C53   A    
C51   H27   S    
C36   C38   A    
C8    C50   A    
N18   H38   S    
C48   C59   S    
C15   C17   A    
C21   C25   A    
C4    C33   S    
C52   N10   A    
C32   H14   S    
N4    Ni1   S    
C23   H21   S    
C30   C33   A    
C9    H3    S    
C36   C39   A    
C10   H4    S    
C29   H11   S    
C43   C47   A    
C44   H24   S    
C1    H1    S    
C41   H19   S    
N10   Ni1   S    
C30   H12   S    
N17   H35   S    
C25   C27   A    
C26   C28   A    
C5    C39   S    
C35   C40   A    
C58   H34   S    
C37   C39   A    
N8    Ni3   S    
N1    Ni1   S    
C30   C32   A    
C11   C13   A    
C5    C45   A    
C2    N2    A    
C17   C19   A    
C41   C48   A    
N8    N12   A    
C15   F1    S    
C42   C47   A    
C57   C59   A    
N3    N13   A    
C53   N11   A    
C56   H32   S    
C37   H17   S    
C29   C31   A    
C22   C26   A    
C55   N13   A    
N2    N16   A    
C5    C51   A    
C57   H33   S    
C6    C52   A    
N18   H37   S    
C58   C60   A    
C22   H10   S    
C11   H5    S    
C2    H2    S    
C46   H26   S    
