data_mof_unit_13783.cif
_audit_creation_date              2012-12-10T19:16:17-0500
_audit_creation_method            fapswitch 2.2
_symmetry_space_group_name_H-M    P1
_symmetry_Int_Tables_number       1
_space_group_crystal_system       triclinic
_cell_length_a                    10.637148
_cell_length_b                    9.745164
_cell_length_c                    27.648183
_cell_angle_alpha                 89.583444
_cell_angle_beta                  90.973342
_cell_angle_gamma                 90.445151
_cell_volume                      2865.45836614

loop_
_atom_site_label
_atom_site_type_symbol
_atom_type_description
_atom_site_fract_x
_atom_site_fract_y
_atom_site_fract_z
_atom_type_partial_charge
C1    C     C_R   0.257878 0.499247 0.499901 0.829280
C2    C     C_R   0.455596 0.625961 0.278459 -0.098395
C3    C     C_R   0.485695 0.508474 0.252445 0.310305
C4    C     C_R   0.466158 0.524580 0.100606 -0.053445
C5    C     C_R   0.387533 0.434010 0.126293 -0.019446
C6    C     C_R   0.302152 0.350335 0.101157 -0.136098
C7    C     C_R   0.551808 0.609029 0.126164 -0.019477
C8    C     C_R   0.495807 0.502763 0.353249 -0.044320
C9    C     C_R   0.490273 0.501844 0.645436 0.007312
C10   C     C_R   0.380975 0.435334 0.972908 0.044362
C11   C     C_R   0.524911 0.635450 0.973170 0.044166
C12   C     C_R   0.499609 0.500567 0.405994 0.873406
C13   C     C_R   0.452410 0.535731 0.947726 0.070910
C14   C     C_R   0.316909 0.332943 0.945902 -0.217064
C15   C     C_R   0.320801 0.331294 0.895800 -0.138001
C16   C     C_R   0.388110 0.431805 0.870761 -0.019898
C17   C     C_R   0.452841 0.535291 0.896524 -0.053761
C18   C     C_R   0.519435 0.637277 0.871009 -0.019952
C19   C     C_R   0.521659 0.632600 0.820487 0.504130
C20   C     C_R   0.394755 0.429506 0.820297 0.502977
C21   C     C_R   0.363912 0.536263 0.715722 -0.094321
C22   C     C_R   0.373416 0.526852 0.665836 -0.216119
C23   C     C_R   0.742642 0.499998 0.500127 0.803998
C24   C     C_R   0.598167 0.488619 0.674517 -0.292472
C25   C     C_R   0.588588 0.497014 0.724459 -0.100947
C26   C     C_R   0.471410 0.520904 0.745110 0.311314
C27   C     C_R   0.378302 0.438475 0.024082 0.044072
C28   C     C_R   0.459634 0.530170 0.049440 0.070796
C29   C     C_R   0.535253 0.626624 0.024200 0.044307
C30   C     C_R   0.297442 0.352301 0.050995 -0.216506
C31   C     C_R   0.629405 0.699744 0.100962 -0.136585
C32   C     C_R   0.585340 0.740449 0.946480 -0.217999
C33   C     C_R   0.582592 0.741043 0.896319 -0.136791
C34   C     C_R   0.499946 0.499937 0.593605 0.849275
C35   C     C_R   0.621256 0.708841 0.050945 -0.216233
C36   C     C_3   0.075840 0.573774 0.545169 -0.392006
C37   C     C_3   0.070811 0.347843 0.501397 -0.401185
C38   C     C_3   0.931989 0.579574 0.543984 -0.424083
C39   C     C_3   0.928050 0.348695 0.502856 -0.390067
C40   C     C_3   0.071026 0.569682 0.453448 -0.401419
C41   C     C_3   0.121746 0.497582 0.499928 0.189670
C42   C     C_3   0.879319 0.498817 0.499974 0.198274
C43   C     C_3   0.926592 0.566664 0.452794 -0.395335
C44   C     C_3   0.375187 0.079637 0.512070 -0.244892
C45   C     C_3   0.378048 0.918081 0.515268 -0.261738
C46   C     C_3   0.529211 0.081956 0.450537 -0.391368
C47   C     C_3   0.521354 0.919945 0.449862 -0.375235
C48   C     C_3   0.594733 0.082312 0.534116 0.456876
C49   C     C_3   0.602097 0.919368 0.531123 0.472596
C50   C     C_R   0.395307 0.430435 0.176850 0.504469
C51   C     C_R   0.558593 0.599824 0.176631 0.503661
C52   C     C_R   0.520759 0.387886 0.276822 -0.094457
C53   C     C_R   0.525139 0.384684 0.327117 -0.232797
C54   C     C_R   0.461343 0.623516 0.328618 -0.227794
H1    H     H_    0.437355 0.715526 0.348063 0.150983
H2    H     H_    0.544633 0.296982 0.256748 0.148163
H3    H     H_    0.697208 0.764421 0.119813 0.190060
H4    H     H_    0.634061 0.825337 0.963329 0.144346
H5    H     H_    0.689023 0.471763 0.658556 0.127516
H6    H     H_    0.631697 0.822631 0.877448 0.190139
H7    H     H_    0.671815 0.485078 0.747145 0.147374
H8    H     H_    0.686857 0.778437 0.034190 0.144140
H9    H     H_    0.114736 0.680155 0.546398 0.169118
H10   H     H_    0.101079 0.290965 0.468835 0.171025
H11   H     H_    0.108537 0.519631 0.578620 0.153226
H12   H     H_    0.108158 0.292488 0.533920 0.168464
H13   H     H_    0.894375 0.536691 0.578310 0.140091
H14   H     H_    0.896676 0.298452 0.536959 0.154577
H15   H     H_    0.427585 0.719067 0.259703 0.147142
H16   H     H_    0.903993 0.688869 0.540822 0.159656
H17   H     H_    0.889913 0.287357 0.472003 0.171302
H18   H     H_    0.104451 0.678180 0.452074 0.171180
H19   H     H_    0.106301 0.517352 0.420741 0.162415
H20   H     H_    0.890695 0.673334 0.449166 0.170856
H21   H     H_    0.891431 0.508056 0.420834 0.164281
H22   H     H_    0.302933 0.111460 0.484734 0.142068
H23   H     H_    0.299620 0.875919 0.492675 0.148392
H24   H     H_    0.343926 0.122555 0.546980 0.195763
H25   H     H_    0.359878 0.884080 0.553010 0.197166
H26   H     H_    0.462532 0.123713 0.422847 0.198244
H27   H     H_    0.444158 0.887077 0.424760 0.185230
H28   H     H_    0.688520 0.125632 0.524245 -0.032385
H29   H     H_    0.693647 0.894390 0.513992 -0.050394
H30   H     H_    0.624698 0.116449 0.439690 0.155169
H31   H     H_    0.609435 0.877873 0.434951 0.169444
H32   H     H_    0.238769 0.282001 0.120161 0.190059
H33   H     H_    0.290258 0.539760 0.643133 0.121080
H34   H     H_    0.273490 0.555781 0.731607 0.143414
H35   H     H_    0.271346 0.249835 0.876765 0.190269
H36   H     H_    0.266239 0.249305 0.962436 0.144124
H37   H     H_    0.227273 0.286821 0.034386 0.143906
H38   H     H_    0.552346 0.290652 0.345478 0.151765
N1    N     N_R   0.480372 0.512161 0.200817 -0.355094
N2    N     N_R   0.461566 0.528477 0.796407 -0.354986
N3    N     N_3   0.499750 0.138610 0.498940 -0.079480
N4    N     N_3   0.499750 0.861390 0.498940 -0.079001
O1    O     O_R   0.314910 0.616040 0.499990 -0.638020
O2    O     O_R   0.314910 0.383960 0.499990 -0.634360
O3    O     O_R   0.500140 0.616020 0.428740 -0.626612
O4    O     O_R   0.500140 0.383980 0.428740 -0.627011
O5    O     O_R   0.685320 0.616040 0.499970 -0.643046
O6    O     O_R   0.685320 0.383960 0.499970 -0.640675
O7    O     O_R   0.500090 0.616050 0.571230 -0.571123
O8    O     O_R   0.500090 0.383950 0.571230 -0.579069
O9    O     O_2   0.317830 0.346989 0.201943 -0.565642
O10   O     O_2   0.336709 0.328071 0.795277 -0.564895
O11   O     O_2   0.643078 0.677256 0.201427 -0.564909
O12   O     O_2   0.583568 0.730873 0.795529 -0.567563
Zn1   Zn    Zn3+2 0.500150 0.654960 0.499980 0.935543
Zn2   Zn    Zn3+2 0.500150 0.345040 0.499980 0.933390
O13   O     O_3   0.560812 0.121213 0.581571 -0.566630
C55   C     C_3   0.665971 0.158798 0.610524 0.146419
H39   H     H_    0.698542 0.263736 0.600660 0.131006
H40   H     H_    0.746177 0.088033 0.606449 0.100689
C56   C     C_3   0.626323 0.156874 0.663187 -0.758856
H41   H     H_    0.596814 0.052161 0.674214 0.271366
H42   H     H_    0.705201 0.192130 0.686923 0.194488
H43   H     H_    0.543863 0.223797 0.667938 0.274275
O14   O     O_3   0.594169 0.862615 0.578682 -0.562345
C57   C     C_3   0.710609 0.808165 0.595383 0.121486
H44   H     H_    0.793597 0.869121 0.583417 0.070376
H45   H     H_    0.719152 0.702280 0.582131 0.170113
C58   C     C_3   0.715010 0.800623 0.650453 -0.795798
H46   H     H_    0.620057 0.779461 0.664962 0.296911
H47   H     H_    0.779767 0.717804 0.662470 0.202080
H48   H     H_    0.752398 0.897761 0.665689 0.231654

loop_
_geom_bond_atom_site_label_1
_geom_bond_atom_site_label_2
_ccdc_geom_bond_type
C10   C27   A    
C26   N2    S    
C46   H26   S    
C21   C26   A    
C38   H16   S    
O4    Zn2   S    
O2    Zn2   S    
C48   N3    S    
C39   H14   S    
O13   C55   S    
C32   H4    S    
C55   H40   S    
C58   H46   S    
C23   O5    A    
C57   H44   S    
C23   C42   S    
C47   H31   S    
C28   C29   A    
C38   C42   S    
C5    C6    A    
C3    C52   A    
C9    C22   A    
C58   H47   S    
C23   O6    A    
O5    Zn1   S    
C15   C16   A    
O3    Zn1   S    
C40   H19   S    
C18   C19   A    
C44   H22   S    
C14   H36   S    
C12   O3    A    
C54   H1    S    
C40   C43   S    
C46   N3    S    
C16   C17   A    
C56   H42   S    
C50   O9    S    
C47   N4    S    
C36   H9    S    
C57   C58   S    
C16   C20   A    
C19   O12   S    
C43   H20   S    
C21   H34   S    
C21   C22   A    
C27   C30   A    
C36   C41   S    
C4    C7    A    
C55   H39   S    
C4    C28   A    
C57   H45   S    
C39   C42   S    
C20   O10   S    
C43   H21   S    
C7    C31   A    
C24   C25   A    
C45   H25   S    
C10   C14   A    
C1    O1    A    
C36   H11   S    
C30   H37   S    
C58   H48   S    
C25   C26   A    
C10   C13   A    
C9    C24   A    
C34   O8    A    
C8    C53   A    
C15   H35   S    
O1    Zn1   S    
C8    C12   S    
C56   H43   S    
C37   H12   S    
C53   H38   S    
C17   C18   A    
C3    N1    S    
C25   H7    S    
C22   H33   S    
C19   N2    A    
C51   N1    A    
C46   H30   S    
C1    C41   S    
C48   C49   S    
C6    C30   A    
C11   C32   A    
C33   H6    S    
C2    C54   A    
C9    C34   S    
C31   C35   A    
C5    C50   A    
O6    Zn2   S    
C42   C43   S    
C8    C54   A    
C2    H15   S    
C37   H10   S    
C52   C53   A    
C20   N2    A    
C46   C47   S    
C40   C41   S    
C40   H18   S    
C44   C45   S    
C4    C5    A    
N3    Zn2   S    
C1    O2    A    
O14   C57   S    
C50   N1    A    
N4    Zn1   S    
C29   C35   A    
C34   O7    A    
C6    H32   S    
C13   C17   A    
O7    Zn1   S    
C32   C33   A    
C49   H29   S    
C44   H24   S    
C2    C3    A    
C7    C51   A    
C37   C39   S    
C44   N3    S    
O8    Zn2   S    
C11   C13   A    
C31   H3    S    
C56   H41   S    
C49   O14   S    
C24   H5    S    
C36   C38   S    
C48   H28   S    
C35   H8    S    
C47   H27   S    
C49   N4    S    
C37   C41   S    
C18   C33   A    
C12   O4    A    
C48   O13   S    
C38   H13   S    
C11   C29   A    
C51   O11   S    
C27   C28   A    
C39   H17   S    
C14   C15   A    
C45   H23   S    
C45   N4    S    
C55   C56   S    
C52   H2    S    
