data_mof_unit_28092.cif
_audit_creation_date              2012-10-26T17:12:48-0400
_audit_creation_method            fapswitch 2.2
_symmetry_space_group_name_H-M    P1
_symmetry_Int_Tables_number       1
_space_group_crystal_system       triclinic
_cell_length_a                    27.858608
_cell_length_b                    18.635279
_cell_length_c                    16.803954
_cell_angle_alpha                 90.00863
_cell_angle_beta                  62.767673
_cell_angle_gamma                 89.989088
_cell_volume                      7756.85859339

loop_
_atom_site_label
_atom_site_type_symbol
_atom_type_description
_atom_site_fract_x
_atom_site_fract_y
_atom_site_fract_z
_atom_type_partial_charge
C1    C     C_R   0.296254 0.731387 0.328317 0.795841
C2    C     C_R   0.586454 0.999991 0.545455 -0.060070
C3    C     C_R   0.685874 0.725482 0.911008 0.075512
C4    C     C_R   0.116908 0.824947 0.046242 -0.189897
C5    C     C_R   0.884192 0.176368 0.953049 -0.183756
C6    C     C_R   0.883065 0.824978 0.953770 -0.189939
C7    C     C_R   0.116005 0.176003 0.046860 -0.183617
C8    C     C_R   0.616296 0.324312 0.046821 -0.181151
C9    C     C_R   0.384675 0.676969 0.952835 -0.183880
C10   C     C_R   0.383698 0.324005 0.953482 -0.189102
C11   C     C_R   0.615378 0.676908 0.047138 -0.183936
C12   C     C_R   0.147860 0.813430 0.090393 -0.216800
C13   C     C_R   0.913205 0.499937 0.455802 -0.060281
C14   C     C_R   0.853302 0.188126 0.908801 -0.217604
C15   C     C_R   0.852113 0.813447 0.909624 -0.216739
C16   C     C_R   0.146969 0.187508 0.091022 -0.217499
C17   C     C_R   0.647206 0.312537 0.090993 -0.213602
C18   C     C_R   0.353912 0.688969 0.908416 -0.217563
C19   C     C_R   0.352967 0.311933 0.909041 -0.217194
C20   C     C_R   0.646147 0.688909 0.091546 -0.217412
C21   C     C_R   0.246164 0.699211 0.790122 -0.183867
C22   C     C_R   0.754767 0.301907 0.209414 -0.182890
C23   C     C_R   0.753907 0.699194 0.209805 -0.183904
C24   C     C_R   0.086791 0.499970 0.544212 -0.060283
C25   C     C_R   0.245422 0.301482 0.790563 -0.182950
C26   C     C_R   0.745627 0.198564 0.790466 -0.183587
C27   C     C_R   0.255154 0.802439 0.209223 -0.183325
C28   C     C_R   0.254594 0.198198 0.209450 -0.183837
C29   C     C_R   0.744801 0.802418 0.790836 -0.183207
C30   C     C_R   0.278099 0.687578 0.832524 -0.215748
C31   C     C_R   0.723023 0.313936 0.166769 -0.215315
C32   C     C_R   0.721977 0.687539 0.167401 -0.215736
C33   C     C_R   0.277225 0.313330 0.833131 -0.215891
C34   C     C_R   0.777447 0.186687 0.833017 -0.215310
C35   C     C_R   0.577251 0.870923 0.565559 0.405862
C36   C     C_R   0.223556 0.814735 0.166375 -0.215970
C37   C     C_R   0.222876 0.186011 0.166757 -0.215267
C38   C     C_R   0.776399 0.814724 0.833678 -0.215668
C39   C     C_R   0.927937 0.900277 0.064800 0.812732
C40   C     C_R   0.071839 0.099963 0.935364 0.809107
C41   C     C_R   0.072052 0.900261 0.935206 0.812811
C42   C     C_R   0.928178 0.099994 0.064625 0.809194
C43   C     C_R   0.427789 0.400499 0.064908 0.813543
C44   C     C_R   0.571792 0.600018 0.935389 0.809120
C45   C     C_R   0.571941 0.400149 0.935304 0.810488
C46   C     C_R   0.421722 0.129054 0.438070 0.394088
C47   C     C_R   0.428223 0.600038 0.064601 0.808191
C48   C     C_R   0.039148 0.630159 0.531348 0.017850
C49   C     C_R   0.961208 0.369876 0.467849 0.000250
C50   C     C_R   0.960855 0.630134 0.468559 0.017857
C51   C     C_R   0.038779 0.369901 0.532281 0.000243
C52   C     C_R   0.538813 0.130181 0.532524 0.018118
C53   C     C_R   0.460701 0.869835 0.469663 0.000405
C54   C     C_R   0.460235 0.130057 0.470291 0.029697
C55   C     C_R   0.538329 0.869890 0.533968 0.000238
C56   C     C_R   0.018683 0.695089 0.516890 -0.199832
C57   C     C_R   0.422188 0.870838 0.437204 0.405987
C58   C     C_R   0.981644 0.304930 0.482391 -0.198074
C59   C     C_R   0.981317 0.695075 0.482972 -0.199867
C60   C     C_R   0.018341 0.304944 0.517793 -0.198086
C61   C     C_R   0.518670 0.195095 0.517286 -0.200968
C62   C     C_R   0.481220 0.804899 0.484047 -0.197500
C63   C     C_R   0.481335 0.195003 0.483260 -0.189784
C64   C     C_R   0.517935 0.804920 0.519415 -0.198366
C65   C     C_R   0.979443 0.565043 0.486348 0.004601
C66   C     C_R   0.020459 0.434959 0.513882 0.011693
C67   C     C_R   0.020557 0.565054 0.513613 0.004604
C68   C     C_R   0.577745 0.129286 0.563889 0.406384
C69   C     C_R   0.979531 0.434948 0.486193 0.011703
C70   C     C_R   0.478656 0.065002 0.488585 0.004205
C71   C     C_R   0.519844 0.934945 0.515881 0.012077
C72   C     C_R   0.519925 0.065042 0.515514 0.004394
C73   C     C_R   0.478862 0.934904 0.488324 0.011456
C74   C     C_R   0.457480 0.999915 0.476232 -0.062996
C75   C     C_R   0.541215 0.000001 0.527842 -0.062459
C76   C     C_R   0.958212 0.499979 0.474007 -0.063004
C77   C     C_R   0.041783 0.499999 0.526010 -0.063016
C78   C     C_R   0.390510 0.933847 0.448243 -0.026159
C79   C     C_R   0.077488 0.370922 0.564325 0.406015
C80   C     C_R   0.609074 0.066013 0.553554 -0.045671
C81   C     C_R   0.608924 0.933969 0.554066 -0.025462
C82   C     C_R   0.390288 0.065763 0.448668 -0.051627
C83   C     C_R   0.890857 0.433920 0.446937 -0.025510
C84   C     C_R   0.109270 0.565971 0.552726 -0.046050
C85   C     C_R   0.109135 0.433957 0.553122 -0.025526
C86   C     C_R   0.890732 0.565933 0.447237 -0.046084
C87   C     C_R   0.337872 0.934067 0.452280 -0.104430
C88   C     C_R   0.661933 0.065821 0.548578 -0.102534
C89   C     C_R   0.661882 0.934146 0.548752 -0.104503
C90   C     C_R   0.922091 0.629156 0.436841 0.406219
C91   C     C_R   0.337698 0.065620 0.452733 -0.112788
C92   C     C_R   0.838048 0.434119 0.451635 -0.104723
C93   C     C_R   0.161997 0.565794 0.548259 -0.102642
C94   C     C_R   0.161948 0.434140 0.548394 -0.104765
C95   C     C_R   0.838005 0.565773 0.451722 -0.102618
C96   C     C_R   0.313194 0.999853 0.453405 -0.287748
C97   C     C_R   0.686585 0.999977 0.547353 -0.290402
C98   C     C_R   0.813403 0.499950 0.452761 -0.290794
C99   C     C_R   0.186596 0.499961 0.547241 -0.290971
C100  C     C_3   0.543406 0.815665 0.702815 0.042834
C101  C     C_R   0.922503 0.370872 0.435792 0.406038
C102  C     C_3   0.568553 0.850245 0.757714 -0.347571
C103  C     C_3   0.532644 0.840514 0.858004 -0.908585
C104  C     C_3   0.436309 0.167063 0.298684 0.067451
C105  C     C_3   0.464306 0.230583 0.237429 -0.319701
C106  C     C_3   0.477331 0.214718 0.140496 -0.927390
C107  C     C_3   0.456882 0.816752 0.299124 0.043850
C108  C     C_3   0.431363 0.850418 0.244270 -0.347659
C109  C     C_3   0.467629 0.841584 0.143948 -0.908631
C110  C     C_3   0.552438 0.177254 0.703597 0.079050
C111  C     C_3   0.500346 0.221588 0.742489 -0.373577
C112  C     C_R   0.703788 0.268652 0.671684 0.803353
C113  C     C_R   0.077912 0.629207 0.563067 0.406202
C114  C     C_3   0.511852 0.301976 0.727836 -0.768393
C115  C     C_3   0.043237 0.316109 0.701896 0.043434
C116  C     C_3   0.068553 0.350054 0.756896 -0.347285
C117  C     C_3   0.032429 0.340661 0.857172 -0.910065
C118  C     C_3   0.947668 0.676548 0.296783 0.078632
C119  C     C_3   0.999816 0.720726 0.257738 -0.373544
C120  C     C_3   0.988413 0.801178 0.271834 -0.768782
C121  C     C_3   0.956768 0.315983 0.298233 0.043498
C122  C     C_3   0.931455 0.349957 0.243243 -0.347369
C123  C     C_3   0.967556 0.340481 0.142965 -0.910035
C124  C     C_R   0.218382 0.761822 0.955933 0.019890
C125  C     C_3   0.052346 0.676695 0.703102 0.078741
C126  C     C_3   0.000180 0.720874 0.742165 -0.373623
C127  C     C_3   0.011547 0.801322 0.728052 -0.768780
C128  C     C_R   0.782746 0.239755 0.043263 0.019799
C129  C     C_R   0.781634 0.761815 0.044051 0.019967
C130  C     C_R   0.217489 0.239154 0.956577 0.019501
C131  C     C_R   0.717711 0.260858 0.956520 0.020086
C132  C     C_R   0.283316 0.740618 0.042820 0.019505
C133  C     C_R   0.282425 0.260350 0.043410 0.021076
C134  C     C_R   0.716700 0.740576 0.957171 0.019529
C135  C     C_R   0.267129 0.722876 0.912817 0.045221
C136  C     C_R   0.703754 0.731371 0.671682 0.796301
C137  C     C_R   0.734023 0.278747 0.086383 0.045670
C138  C     C_R   0.732915 0.722844 0.087142 0.045274
C139  C     C_R   0.266220 0.278094 0.913465 0.044740
C140  C     C_R   0.766455 0.221896 0.913378 0.045556
C141  C     C_R   0.234630 0.779678 0.085872 0.044926
C142  C     C_R   0.233793 0.221226 0.086436 0.045081
C143  C     C_R   0.765359 0.779658 0.914142 0.044914
C144  C     C_R   0.301054 0.715683 0.954412 0.046380
C145  C     C_R   0.700064 0.285904 0.044861 0.045984
C146  C     C_R   0.698988 0.715635 0.045556 0.046411
C147  C     C_R   0.296043 0.268961 0.328420 0.803486
C148  C     C_R   0.300127 0.285286 0.955048 0.046841
C149  C     C_R   0.800421 0.214741 0.954903 0.046546
C150  C     C_R   0.200730 0.786896 0.044265 0.046967
C151  C     C_R   0.199845 0.214057 0.044895 0.046217
C152  C     C_R   0.799262 0.786892 0.955743 0.047038
C153  C     C_R   0.138810 0.815771 0.952850 0.062476
C154  C     C_R   0.862116 0.185378 0.046556 0.064949
C155  C     C_R   0.861178 0.815801 0.047155 0.062508
C156  C     C_R   0.138027 0.185086 0.953370 0.064827
C157  C     C_R   0.638262 0.315136 0.953331 0.062963
C158  C     C_R   0.796226 0.231344 0.328323 0.796316
C159  C     C_R   0.362473 0.685853 0.046375 0.064647
C160  C     C_R   0.361526 0.315259 0.046960 0.059367
C161  C     C_R   0.637562 0.685794 0.953606 0.064886
C162  C     C_R   0.114141 0.843397 0.901116 -0.125591
C163  C     C_R   0.886488 0.157349 0.098514 -0.127008
C164  C     C_R   0.885841 0.843435 0.098895 -0.125583
C165  C     C_R   0.113571 0.157234 0.901457 -0.126965
C166  C     C_R   0.613841 0.343077 0.901367 -0.125675
C167  C     C_R   0.386645 0.657524 0.098465 -0.126647
C168  C     C_R   0.385504 0.344015 0.099148 -0.121446
C169  C     C_R   0.203834 0.768708 0.671643 0.804048
C170  C     C_R   0.613387 0.657468 0.901515 -0.127530
C171  C     C_R   0.135105 0.823871 0.810993 -0.290422
C172  C     C_R   0.865507 0.176871 0.188696 -0.272940
C173  C     C_R   0.864873 0.823922 0.189023 -0.290234
C174  C     C_R   0.134518 0.176817 0.811301 -0.272823
C175  C     C_R   0.634944 0.323732 0.811131 -0.288448
C176  C     C_R   0.365569 0.676905 0.188712 -0.273125
C177  C     C_R   0.363671 0.325959 0.189759 -0.275722
C178  C     C_R   0.634466 0.676837 0.811265 -0.272672
C179  C     C_R   0.179742 0.778341 0.770220 -0.128402
C180  C     C_R   0.203794 0.231300 0.671675 0.796717
C181  C     C_R   0.820702 0.222163 0.229568 -0.128723
C182  C     C_R   0.820259 0.778369 0.229774 -0.128420
C183  C     C_R   0.179362 0.222024 0.770421 -0.129036
C184  C     C_R   0.679523 0.278101 0.770377 -0.128832
C185  C     C_R   0.320833 0.722325 0.229529 -0.128973
C186  C     C_R   0.319974 0.278956 0.229982 -0.127883
C187  C     C_R   0.679181 0.722273 0.770469 -0.128727
C188  C     C_R   0.204701 0.751231 0.821926 0.061504
C189  C     C_R   0.796086 0.249724 0.177618 0.063816
C190  C     C_R   0.795328 0.751240 0.178041 0.061486
C191  C     C_R   0.796161 0.768717 0.328356 0.804023
C192  C     C_R   0.204057 0.249397 0.822337 0.063612
C193  C     C_R   0.704236 0.250663 0.822282 0.062047
C194  C     C_R   0.296401 0.750164 0.177448 0.063673
C195  C     C_R   0.295697 0.250682 0.177835 0.058129
C196  C     C_R   0.703593 0.750121 0.822570 0.063463
C197  C     C_R   0.195941 0.631832 0.529450 0.821107
C198  C     C_R   0.804083 0.368133 0.470466 0.823629
C199  C     C_R   0.804060 0.631829 0.470542 0.821132
C200  C     C_R   0.195914 0.368135 0.529546 0.823682
C201  C     C_R   0.695924 0.131844 0.529529 0.821414
C202  C     C_R   0.412653 0.999830 0.457602 -0.056498
C203  C     C_R   0.304037 0.868117 0.470615 0.823417
C204  C     C_R   0.303933 0.131751 0.471004 0.814430
C205  C     C_R   0.695893 0.868131 0.529641 0.824037
C206  C     C_R   0.187276 0.776387 0.910072 0.075776
C207  C     C_R   0.813716 0.224916 0.089262 0.075214
C208  C     C_R   0.812735 0.776400 0.089915 0.075852
C209  C     C_R   0.186464 0.224495 0.910636 0.075227
C210  C     C_R   0.686678 0.275603 0.910586 0.076383
C211  C     C_R   0.314142 0.725534 0.088987 0.075210
C212  C     C_R   0.313257 0.275491 0.089535 0.075337
Cu1   Cu    Cu3+1 0.209920 0.785290 0.495070 0.963121
Cu2   Cu    Cu3+1 0.504760 0.500000 0.075850 0.919677
Cu3   Cu    Cu3+1 0.995240 0.000000 0.924150 0.919053
Cu4   Cu    Cu3+1 0.004760 0.000000 0.075850 0.918949
Cu5   Cu    Cu3+1 0.790080 0.214710 0.504930 0.967080
Cu6   Cu    Cu3+1 0.790080 0.785290 0.504930 0.963258
Cu7   Cu    Cu3+1 0.209920 0.214710 0.495070 0.966566
Cu8   Cu    Cu3+1 0.709920 0.285290 0.495070 0.963603
Cu9   Cu    Cu3+1 0.290080 0.714710 0.504930 0.966785
Cu10  Cu    Cu3+1 0.290080 0.285290 0.504930 0.961683
Cu11  Cu    Cu3+1 0.709920 0.714710 0.495070 0.966973
Cu12  Cu    Cu3+1 0.495240 0.500000 0.924150 0.918555
H1    H     H_    0.531944 0.753970 0.531949 0.170129
H2    H     H_    0.883075 0.154177 0.228769 0.192103
H3    H     H_    0.037139 0.813766 0.656206 0.267714
H4    H     H_    0.254004 0.664647 0.734125 0.171597
H5    H     H_    0.746891 0.336205 0.265658 0.171105
H6    H     H_    0.746098 0.664630 0.265772 0.171522
H7    H     H_    0.253277 0.335883 0.734433 0.171424
H8    H     H_    0.753524 0.164201 0.734272 0.171480
H9    H     H_    0.247210 0.836566 0.265640 0.171132
H10   H     H_    0.246743 0.163952 0.265702 0.171207
H11   H     H_    0.752711 0.836555 0.734457 0.171208
H12   H     H_    0.882252 0.846868 0.229195 0.189446
H13   H     H_    0.116886 0.154248 0.771257 0.192070
H14   H     H_    0.617743 0.346945 0.770847 0.189151
H15   H     H_    0.382994 0.653986 0.228877 0.192120
H16   H     H_    0.379827 0.350957 0.230521 0.187311
H17   H     H_    0.617049 0.653916 0.771089 0.192086
H18   H     H_    0.075291 0.838888 0.087667 0.177440
H19   H     H_    0.925844 0.162195 0.911570 0.167760
H20   H     H_    0.924672 0.838922 0.912339 0.177476
H21   H     H_    0.467654 0.245957 0.470056 0.174429
H22   H     H_    0.074336 0.161990 0.088410 0.167820
H23   H     H_    0.574735 0.338687 0.088473 0.172338
H24   H     H_    0.426315 0.662644 0.911502 0.167708
H25   H     H_    0.425260 0.338304 0.912315 0.178057
H26   H     H_    0.573747 0.662591 0.088483 0.167652
H27   H     H_    0.128916 0.823124 0.161674 0.138370
H28   H     H_    0.872306 0.178450 0.837491 0.137042
H29   H     H_    0.871044 0.823142 0.838349 0.138370
H30   H     H_    0.128016 0.177764 0.162312 0.137130
H31   H     H_    0.628228 0.322258 0.162293 0.137305
H32   H     H_    0.467428 0.753933 0.471120 0.170132
H33   H     H_    0.372972 0.679342 0.837093 0.137115
H34   H     H_    0.371981 0.321476 0.837733 0.138647
H35   H     H_    0.627101 0.679281 0.162862 0.137086
H36   H     H_    0.310001 0.648275 0.803186 0.138390
H37   H     H_    0.691187 0.353328 0.196094 0.138062
H38   H     H_    0.690106 0.648217 0.196707 0.138339
H39   H     H_    0.309083 0.352671 0.803830 0.138413
H40   H     H_    0.809327 0.147355 0.803662 0.138335
H41   H     H_    0.191752 0.854173 0.195685 0.138200
H42   H     H_    0.191108 0.146540 0.196001 0.138220
H43   H     H_    0.533239 0.246087 0.528415 0.175554
H44   H     H_    0.808174 0.854179 0.804398 0.138271
H45   H     H_    0.272755 0.999871 0.459545 0.186044
H46   H     H_    0.727210 0.999968 0.540389 0.185907
H47   H     H_    0.772868 0.499959 0.459326 0.185884
H48   H     H_    0.227133 0.499954 0.540671 0.185865
H49   H     H_    0.531451 0.759778 0.726724 0.166619
H50   H     H_    0.505488 0.844320 0.714692 0.124648
H51   H     H_    0.608504 0.825493 0.739402 0.222423
H52   H     H_    0.574679 0.908498 0.742323 0.204769
H53   H     H_    0.492438 0.865235 0.878188 0.254889
H54   H     H_    0.032236 0.253989 0.530549 0.170159
H55   H     H_    0.551700 0.866827 0.895760 0.258673
H56   H     H_    0.527426 0.782562 0.875511 0.254866
H57   H     H_    0.399883 0.152044 0.291401 0.138075
H58   H     H_    0.465178 0.120927 0.276506 0.123750
H59   H     H_    0.437845 0.278483 0.261016 0.230881
H60   H     H_    0.502378 0.242960 0.240784 0.208825
H61   H     H_    0.506141 0.169203 0.114321 0.257041
H62   H     H_    0.495942 0.262725 0.098493 0.249516
H63   H     H_    0.439932 0.201200 0.135623 0.260764
H64   H     H_    0.469834 0.761199 0.274675 0.166299
H65   H     H_    0.967120 0.746047 0.470979 0.176241
H66   H     H_    0.494258 0.846563 0.287795 0.124559
H67   H     H_    0.391883 0.824463 0.262043 0.222786
H68   H     H_    0.424218 0.908502 0.260242 0.204349
H69   H     H_    0.507381 0.867483 0.124294 0.255192
H70   H     H_    0.448279 0.867242 0.106246 0.258490
H71   H     H_    0.473850 0.783769 0.125833 0.254801
H72   H     H_    0.577969 0.195080 0.734891 0.154925
H73   H     H_    0.542204 0.119857 0.723310 0.078661
H74   H     H_    0.474728 0.204780 0.710975 0.218067
H75   H     H_    0.477411 0.211040 0.815522 0.177421
H76   H     H_    0.967747 0.253965 0.469676 0.170156
H77   H     H_    0.532543 0.320896 0.766820 0.241323
H78   H     H_    0.473365 0.331787 0.750427 0.208765
H79   H     H_    0.537421 0.314120 0.655896 0.267728
H80   H     H_    0.030768 0.260362 0.725918 0.166397
H81   H     H_    0.005598 0.345410 0.713551 0.124352
H82   H     H_    0.108255 0.324629 0.738834 0.222671
H83   H     H_    0.075220 0.408239 0.741344 0.204590
H84   H     H_    0.992462 0.366036 0.877112 0.254785
H85   H     H_    0.051622 0.366520 0.894996 0.258405
H86   H     H_    0.026681 0.282753 0.874845 0.255023
H87   H     H_    0.032879 0.746070 0.528848 0.176232
H88   H     H_    0.922210 0.694221 0.265287 0.154009
H89   H     H_    0.957849 0.619070 0.277436 0.078342
H90   H     H_    0.025351 0.704081 0.289473 0.218447
H91   H     H_    0.022808 0.709846 0.184784 0.176131
H92   H     H_    0.967821 0.819909 0.232608 0.240912
H93   H     H_    0.026939 0.830880 0.249180 0.208860
H94   H     H_    0.962786 0.813656 0.343669 0.267746
H95   H     H_    0.969225 0.260221 0.274201 0.166434
H96   H     H_    0.994415 0.345240 0.286578 0.124353
H97   H     H_    0.891735 0.324602 0.261338 0.222652
H98   H     H_    0.117709 0.846801 0.770837 0.189454
H99   H     H_    0.924825 0.408156 0.258769 0.204555
H100  H     H_    0.007540 0.365788 0.122991 0.254788
H101  H     H_    0.948365 0.366360 0.105150 0.258401
H102  H     H_    0.973268 0.282559 0.125315 0.255039
H103  H     H_    0.077811 0.694406 0.734567 0.154024
H104  H     H_    0.042192 0.619227 0.722471 0.078330
H105  H     H_    0.974641 0.704197 0.710450 0.218460
H106  H     H_    0.977205 0.710031 0.815121 0.176115
H107  H     H_    0.032164 0.820083 0.767226 0.240924
H108  H     H_    0.973006 0.831024 0.750759 0.208878
O1    O     O_R   0.255040 0.869590 0.478480 -0.603211
O2    O     O_R   0.817950 0.203450 0.375560 -0.567332
O3    O     O_R   0.817950 0.796550 0.375560 -0.568333
O4    O     O_R   0.182050 0.203450 0.624440 -0.567037
O5    O     O_R   0.682050 0.296550 0.624440 -0.568296
O6    O     O_R   0.317950 0.703450 0.375560 -0.567618
O7    O     O_R   0.317950 0.296550 0.375560 -0.574492
O8    O     O_R   0.682050 0.703450 0.624440 -0.567067
O9    O     O_R   0.250530 0.763330 0.367210 -0.601181
O10   O     O_R   0.749470 0.236670 0.632790 -0.602086
O11   O     O_R   0.749470 0.763330 0.632790 -0.601386
O12   O     O_R   0.744960 0.130410 0.521520 -0.601636
O13   O     O_R   0.250530 0.236670 0.367210 -0.601788
O14   O     O_R   0.750530 0.263330 0.367210 -0.601176
O15   O     O_R   0.249470 0.736670 0.632790 -0.602264
O16   O     O_R   0.249470 0.263330 0.632790 -0.600870
O17   O     O_R   0.750530 0.736670 0.367210 -0.602225
O18   O     O_R   0.177260 0.690030 0.513710 -0.525952
O19   O     O_R   0.822740 0.309970 0.486290 -0.522229
O20   O     O_R   0.822740 0.690030 0.486290 -0.525978
O21   O     O_R   0.177260 0.309970 0.513710 -0.522147
O22   O     O_R   0.677260 0.190030 0.513710 -0.525720
O23   O     O_R   0.744960 0.869590 0.521520 -0.603074
O24   O     O_R   0.322740 0.809970 0.486290 -0.522351
O25   O     O_R   0.322740 0.190030 0.486290 -0.527511
O26   O     O_R   0.677260 0.809970 0.513710 -0.522127
O27   O     O_R   0.051640 0.926880 0.885090 -0.590058
O28   O     O_R   0.948360 0.073120 0.114910 -0.587393
O29   O     O_R   0.948360 0.926880 0.114910 -0.590070
O30   O     O_R   0.051640 0.073120 0.885090 -0.587403
O31   O     O_R   0.551640 0.426880 0.885090 -0.589426
O32   O     O_R   0.448360 0.573120 0.114910 -0.588331
O33   O     O_R   0.448360 0.426880 0.114910 -0.587596
O34   O     O_R   0.255040 0.130410 0.478480 -0.600054
O35   O     O_R   0.551640 0.573120 0.885090 -0.587467
O36   O     O_R   0.940620 0.926560 0.986760 -0.591271
O37   O     O_R   0.059380 0.073440 0.013240 -0.591299
O38   O     O_R   0.059380 0.926560 0.013240 -0.591293
O39   O     O_R   0.940620 0.073440 0.986760 -0.591174
O40   O     O_R   0.440620 0.426560 0.986760 -0.592164
O41   O     O_R   0.559380 0.573440 0.013240 -0.591104
O42   O     O_R   0.559380 0.426560 0.013240 -0.591981
O43   O     O_R   0.440620 0.573440 0.986760 -0.591228
O44   O     O_3   0.581760 0.811637 0.611439 -0.597162
O45   O     O_R   0.755040 0.369590 0.478480 -0.603023
O46   O     O_3   0.420231 0.187714 0.388434 -0.599224
O47   O     O_3   0.418411 0.811736 0.390346 -0.597091
O48   O     O_3   0.581685 0.188691 0.610071 -0.575973
O49   O     O_3   0.081680 0.311700 0.610601 -0.597126
O50   O     O_3   0.918367 0.688399 0.390226 -0.575788
O51   O     O_3   0.918332 0.311616 0.389531 -0.597144
O52   O     O_3   0.081623 0.688489 0.609652 -0.575762
O53   O     O_R   0.244960 0.630410 0.521520 -0.601590
O54   O     O_R   0.244960 0.369590 0.521520 -0.602869
O55   O     O_R   0.755040 0.630410 0.478480 -0.601613
O56   O     O_R   0.182050 0.796550 0.624440 -0.568378

loop_
_geom_bond_atom_site_label_1
_geom_bond_atom_site_label_2
_ccdc_geom_bond_type
C132  C144  A    
Cu7   O13   S    
C126  C127  S    
C40   O37   A    
C136  O11   A    
C171  C179  A    
C112  O5    A    
C112  C184  S    
C43   C168  S    
Cu11  O55   S    
C7    H22   S    
C170  C178  A    
Cu9   O53   S    
C50   C59   A    
C44   O41   A    
C203  O24   A    
C110  O48   S    
Cu2   O41   S    
Cu1   O9    S    
C52   C61   A    
C108  H67   S    
C97   H46   S    
C54   C63   A    
C58   C60   A    
C184  C193  A    
C99   H48   S    
C114  H78   S    
C28   C195  A    
C159  C211  A    
C108  C109  S    
C40   O30   A    
C36   H41   S    
C61   C63   A    
C110  C111  S    
C61   H43   S    
C62   C64   A    
C131  C140  A    
C101  O51   S    
C134  C143  A    
C50   C90   A    
C89   C205  S    
C162  C171  A    
C42   O28   A    
C70   C74   A    
C32   H38   S    
C4    C12   A    
C24   C85   A    
C88   C97   A    
C4    C153  A    
C49   C69   A    
C41   C162  S    
Cu8   O5    S    
C8    C157  A    
C104  C105  S    
C134  C146  A    
C11   C20   A    
C37   C142  A    
C106  H63   S    
C44   O35   A    
C12   C150  A    
C42   O39   A    
C129  C152  A    
C47   O32   A    
C86   C90   A    
Cu4   O37   S    
C71   C73   A    
C179  C188  A    
Cu8   O45   S    
C82   C91   A    
C125  H104  S    
C51   C66   A    
C142  C151  A    
Cu3   Cu4   S    
C200  O54   A    
C52   C72   A    
C56   H87   S    
C112  O10   A    
C104  H57   S    
C154  C163  A    
Cu1   O18   S    
C54   C70   A    
C107  O47   S    
C68   O48   S    
C131  C210  A    
C164  C173  A    
C113  O52   S    
C5    H19   S    
C163  C172  A    
Cu11  O17   S    
C100  O44   S    
Cu4   O28   S    
C118  H89   S    
C173  C182  A    
C121  O51   S    
C200  O21   A    
C126  H105  S    
Cu12  O35   S    
C20   C146  A    
C10   C160  A    
C79   C85   A    
C105  C106  S    
C116  H83   S    
C66   C77   A    
C13   C83   A    
C124  C135  A    
C156  C209  A    
C57   C78   A    
C8    C17   A    
C25   C192  A    
C125  O52   S    
C58   H76   S    
C201  O12   A    
C59   H65   S    
C1    C185  S    
C98   H47   S    
C175  H14   S    
C118  O50   S    
C19   C148  A    
C56   C59   A    
C31   H37   S    
C165  C174  A    
C80   C88   A    
C49   C101  A    
Cu9   O24   S    
C109  H69   S    
C33   C139  A    
C14   C149  A    
C34   C140  A    
C105  H59   S    
C159  C167  A    
C16   C151  A    
C84   C93   A    
C160  C168  A    
C48   C67   A    
C1    O9    A    
C86   C95   A    
C24   C77   A    
C176  H15   S    
C2    C81   A    
C182  C190  A    
C39   C164  S    
C55   C71   A    
C2    C75   A    
C5    C154  A    
C28   H10   S    
Cu5   O10   S    
C78   C87   A    
C121  H95   S    
C106  H61   S    
C38   C143  A    
C67   C77   A    
Cu10  O16   S    
Cu6   Cu11  S    
Cu4   O29   S    
C133  C142  A    
C12   H27   S    
C171  H98   S    
C30   H36   S    
C120  H92   S    
C39   O36   A    
C205  O23   A    
C115  C116  S    
C69   C76   A    
C85   C94   A    
C82   C202  A    
C9    H24   S    
C29   H11   S    
C18   H33   S    
C46   C82   A    
C172  C181  A    
Cu12  O40   S    
C7    C156  A    
C8    H23   S    
C29   C38   A    
C107  C108  S    
C13   C76   A    
C115  H80   S    
C45   C166  S    
Cu12  O43   S    
C91   C204  S    
C173  H12   S    
C122  H99   S    
C158  O14   A    
C178  H17   S    
C91   C96   A    
Cu1   O56   S    
C87   C96   A    
C6    H20   S    
C132  C211  A    
C172  H2    S    
C103  H56   S    
C72   C75   A    
C92   C198  S    
C4    H18   S    
C64   H1    S    
C141  C150  A    
C147  C186  S    
C63   H21   S    
C117  H85   S    
C139  C148  A    
C174  H13   S    
Cu1   Cu9   S    
C129  C208  A    
C3    C161  A    
C109  H71   S    
C96   H45   S    
C110  H72   S    
C100  H50   S    
C45   O42   A    
C169  O56   A    
C93   C197  S    
C32   C138  A    
C117  H84   S    
C41   O38   A    
C111  H74   S    
C205  O26   A    
C119  H90   S    
C27   C194  A    
C120  H93   S    
C40   C165  S    
Cu5   O12   S    
C201  O22   A    
C31   C137  A    
C130  C151  A    
Cu2   O33   S    
C21   C188  A    
C197  O18   A    
C15   H29   S    
C132  C141  A    
C199  O20   A    
C83   C101  A    
C6    C155  A    
Cu5   O19   S    
C116  H82   S    
C123  H102  S    
C3    C134  A    
C47   O43   A    
Cu10  O7    S    
Cu2   O42   S    
Cu7   Cu10  S    
C108  H68   S    
C193  C210  A    
C28   C37   A    
C138  C146  A    
C114  H79   S    
C169  O15   A    
Cu12  O31   S    
C131  C145  A    
C102  C103  S    
C158  C181  S    
C51   C79   A    
C180  O16   A    
C122  H97   S    
Cu6   O23   S    
C103  H53   S    
C48   C113  A    
C130  C209  A    
C191  O3    A    
C51   C60   A    
C1    O6    A    
C140  C149  A    
C169  C179  S    
C23   C190  A    
C41   O27   A    
C25   C33   A    
Cu6   O20   S    
C118  H88   S    
C187  C196  A    
C73   C74   A    
C191  O17   A    
C185  C194  A    
C183  C192  A    
C181  C189  A    
C176  C185  A    
Cu5   Cu8   S    
C188  C206  A    
C166  C175  A    
C65   C76   A    
C137  C145  A    
Cu4   O38   S    
C14   H28   S    
C168  C177  A    
C11   C161  A    
C125  H103  S    
C39   O29   A    
C104  H58   S    
C180  O4    A    
C16   H30   S    
C17   H31   S    
C65   C67   A    
C102  H51   S    
C93   C99   A    
C115  O49   S    
C107  H66   S    
C81   C89   A    
C60   H54   S    
C126  H106  S    
C127  H3    S    
C115  H81   S    
C130  C139  A    
Cu7   O34   S    
C87   C203  S    
C15   C152  A    
C35   C81   A    
C123  H100  S    
C11   H26   S    
C155  C208  A    
C53   C57   A    
C74   C202  A    
C114  H77   S    
Cu10  O25   S    
C17   C145  A    
C36   C141  A    
Cu5   O2    S    
C10   C19   A    
C46   C54   A    
C22   C189  A    
C5    C14   A    
C178  C187  A    
C143  C152  A    
C111  H75   S    
C125  C126  S    
C119  H91   S    
C182  C191  S    
C199  O55   A    
C197  O53   A    
C21   H4    S    
C124  C150  A    
C25   H7    S    
C106  H62   S    
C174  C183  A    
C119  C120  S    
C147  O13   A    
C27   C36   A    
C21   C30   A    
C33   H39   S    
C3    C196  A    
C34   H40   S    
C153  C162  A    
Cu9   O15   S    
C23   C32   A    
C18   C144  A    
Cu7   O21   S    
C35   O44   S    
Cu10  O54   S    
C22   H5    S    
C156  C165  A    
C189  C207  A    
C111  C114  S    
C94   C200  S    
C127  H108  S    
C79   O49   S    
C192  C209  A    
C177  C186  A    
C37   H42   S    
C128  C149  A    
C195  C212  A    
C30   C135  A    
Cu9   O6    S    
C136  O8    A    
C26   C193  A    
C175  C184  A    
C68   C80   A    
C84   C113  A    
C43   O40   A    
C57   O47   S    
C203  O1    A    
C103  H55   S    
C19   H34   S    
C198  O19   A    
C90   O50   S    
C95   C98   A    
C92   C98   A    
C62   H32   S    
C83   C92   A    
C198  O45   A    
Cu3   O30   S    
C66   C69   A    
C109  H70   S    
C9    C159  A    
C158  O2    A    
C110  H73   S    
C105  H60   S    
C116  C117  S    
C204  O34   A    
C38   H44   S    
C118  C119  S    
Cu6   O11   S    
C6    C15   A    
C26   C34   A    
C129  C138  A    
C13   C86   A    
C128  C207  A    
C120  H94   S    
C88   C201  S    
C52   C68   A    
C180  C183  S    
C121  H96   S    
C194  C211  A    
Cu8   O22   S    
C157  C210  A    
C50   C65   A    
C160  C212  A    
C22   C31   A    
C35   C55   A    
Cu6   O3    S    
C186  C195  A    
C42   C163  S    
C46   O46   S    
C43   O33   A    
C26   H8    S    
C123  H101  S    
C49   C58   A    
C45   O31   A    
C89   C97   A    
C20   H35   S    
C128  C137  A    
C47   C167  S    
C53   C62   A    
C9    C18   A    
Cu3   O39   S    
Cu11  O26   S    
C55   C64   A    
C100  C102  S    
Cu7   O4    S    
C121  C122  S    
Cu1   O1    S    
C133  C148  A    
Cu8   O14   S    
Cu2   Cu12  S    
C177  H16   S    
C161  C170  A    
C190  C208  A    
C135  C144  A    
C136  C187  S    
C147  O7    A    
C104  O46   S    
Cu11  O8    S    
C48   C56   A    
C117  H86   S    
C7    C16   A    
Cu3   O36   S    
C124  C206  A    
C127  H107  S    
C53   C73   A    
C78   C202  A    
C157  C166  A    
C155  C164  A    
C29   C196  A    
C100  H49   S    
C10   H25   S    
C107  H64   S    
C24   C84   A    
C71   C75   A    
C94   C99   A    
Cu3   O27   S    
C44   C170  S    
C23   H6    S    
C2    C80   A    
C27   H9    S    
C153  C206  A    
C95   C199  S    
C204  O25   A    
C133  C212  A    
C70   C72   A    
C102  H52   S    
C122  C123  S    
C154  C207  A    
Cu2   O32   S    
C167  C176  A    
