data_mof_unit_6459.cif
_audit_creation_date              2012-12-11T14:23:06-0500
_audit_creation_method            fapswitch 2.2
_symmetry_space_group_name_H-M    P1
_symmetry_Int_Tables_number       1
_space_group_crystal_system       triclinic
_cell_length_a                    11.058798
_cell_length_b                    11.019483
_cell_length_c                    18.661477
_cell_angle_alpha                 89.826856
_cell_angle_beta                  89.904188
_cell_angle_gamma                 59.689004
_cell_volume                      1963.24391416

loop_
_atom_site_label
_atom_site_type_symbol
_atom_type_description
_atom_site_fract_x
_atom_site_fract_y
_atom_site_fract_z
_atom_type_partial_charge
C1    C     C_R   0.241469 0.643504 0.611231 0.543006
C2    C     C_3   0.617182 0.599155 0.801178 0.144308
C3    C     C_3   0.699427 0.677318 0.811241 0.064164
C4    C     C_3   0.672159 0.648468 0.675080 0.015388
C5    C     C_3   0.827375 0.595361 0.692076 -0.260783
C6    C     C_3   0.623292 0.562090 0.721244 -0.165254
C7    C     C_R   0.690331 0.162133 0.824537 0.024380
C8    C     C_R   0.807089 0.140219 0.781984 0.038202
C9    C     C_R   0.796096 0.138269 0.706354 -0.027821
C10   C     C_R   0.551738 0.203557 0.719213 -0.151006
C11   C     C_R   0.562535 0.203404 0.791671 -0.157871
C12   C     C_R   0.655032 0.623317 0.599831 0.554802
C13   C     C_R   0.933027 0.121425 0.811297 -0.106520
C14   C     C_R   0.046164 0.094022 0.767258 -0.110440
C15   C     C_R   0.039079 0.083832 0.693075 0.256998
C16   C     C_R   0.915189 0.099644 0.663447 -0.087796
C17   C     C_R   0.665378 0.175182 0.675440 -0.008247
C18   C     C_R   0.198208 0.654549 0.839141 -0.015354
C19   C     C_R   0.202009 0.541342 0.801506 0.024452
C20   C     C_R   0.193676 0.546783 0.725579 0.022833
C21   C     C_R   0.235919 0.742979 0.728960 -0.158596
C22   C     C_R   0.226685 0.747295 0.802584 -0.171997
C23   C     C_R   0.628897 0.226637 0.602220 0.533410
C24   C     C_R   0.210250 0.424935 0.837868 -0.097952
C25   C     C_R   0.195635 0.323815 0.801114 -0.144660
C26   C     C_R   0.171042 0.337686 0.727846 -0.171446
C27   C     C_R   0.168778 0.448169 0.690213 -0.123835
C28   C     C_R   0.211044 0.650276 0.688663 -0.005727
C29   C     C_R   0.694672 0.696902 0.180359 -0.006784
C30   C     C_R   0.794515 0.582156 0.220104 0.038695
C31   C     C_R   0.748885 0.523211 0.271607 0.036385
C32   C     C_R   0.529959 0.743920 0.276596 -0.146149
C33   C     C_R   0.561115 0.780178 0.209894 -0.143679
C34   C     C_R   0.283512 0.623325 0.391524 0.545950
C35   C     C_R   0.937912 0.535616 0.217178 -0.088465
C36   C     C_R   0.030078 0.426186 0.261678 -0.129476
C37   C     C_R   0.984530 0.350804 0.300819 -0.123418
C38   C     C_R   0.845248 0.388977 0.297334 -0.094876
C39   C     C_R   0.624841 0.614637 0.308622 -0.011255
C40   C     C_R   0.660149 0.135743 0.183583 -0.003043
C41   C     C_R   0.551848 0.134704 0.224039 0.029731
C42   C     C_R   0.571556 0.107363 0.298094 0.038565
C43   C     C_R   0.781289 0.121131 0.294820 -0.164001
C44   C     C_R   0.776582 0.124589 0.220406 -0.143062
C45   C     C_R   0.615062 0.588741 0.385520 0.542750
C46   C     C_R   0.423180 0.162797 0.194488 -0.114772
C47   C     C_R   0.327638 0.146581 0.235413 -0.163316
C48   C     C_R   0.359454 0.095472 0.305102 -0.130692
C49   C     C_R   0.482660 0.073023 0.336132 -0.072069
C50   C     C_R   0.669265 0.131364 0.333622 -0.004831
C51   C     C_R   0.219168 0.639970 0.163695 -0.010224
C52   C     C_R   0.253958 0.731970 0.197139 0.047489
C53   C     C_R   0.228602 0.750650 0.271203 0.028113
C54   C     C_R   0.284748 0.508727 0.275063 -0.163448
C55   C     C_R   0.251011 0.518246 0.201385 -0.179071
C56   C     C_R   0.622872 0.218419 0.398846 0.521983
C57   C     C_R   0.265684 0.833420 0.157196 -0.076518
C58   C     C_R   0.193333 0.970558 0.180866 -0.103363
C59   C     C_R   0.135579 0.998920 0.249330 -0.156187
C60   C     C_R   0.160385 0.890201 0.296383 -0.115900
C61   C     C_R   0.257976 0.630736 0.312836 -0.010596
C62   C     C_R   0.702851 0.102764 0.896324 0.526948
C63   C     C_R   0.724508 0.689538 0.887661 0.580647
C64   C     C_R   0.122804 0.702725 0.907503 0.525880
C65   C     C_R   0.677087 0.100944 0.106625 0.530071
C66   C     C_R   0.728795 0.715045 0.106616 0.553194
C67   C     C_3   0.613827 0.824595 0.774374 -0.275036
C68   C     C_R   0.114587 0.698347 0.103808 0.522665
C69   C     C_3   0.585606 0.806400 0.695376 -0.270109
C70   C     C_3   0.844571 0.597696 0.773077 -0.214420
Cr1   Cr    Cr6+3 0.392940 0.397950 0.502230 0.988650
Cr2   Cr    Cr6+3 0.398400 0.708500 0.501260 0.986326
Cr3   Cr    Cr6+3 0.708640 0.393530 0.496460 0.970718
Cr4   Cr    Cr6+3 0.937880 0.938320 0.007620 0.984035
Cr5   Cr    Cr6+3 0.625560 0.937220 0.994510 0.983706
Cr6   Cr    Cr6+3 0.938080 0.625010 0.001190 0.985134
H1    H     H_    0.673343 0.881218 0.777095 0.147935
H2    H     H_    0.697126 0.447598 0.713448 0.171379
H3    H     H_    0.903440 0.487503 0.793053 0.187331
H4    H     H_    0.895994 0.485816 0.673060 0.145749
H5    H     H_    0.450155 0.232097 0.697728 0.169146
H6    H     H_    0.945021 0.133337 0.867684 0.147318
H7    H     H_    0.471613 0.223980 0.822406 0.148775
H8    H     H_    0.142142 0.077430 0.791310 0.101843
H9    H     H_    0.912633 0.078357 0.607257 0.114890
H10   H     H_    0.265984 0.811840 0.703785 0.192638
H11   H     H_    0.511827 0.890834 0.801969 0.128368
H12   H     H_    0.233208 0.408349 0.894576 0.123660
H13   H     H_    0.235583 0.828144 0.830810 0.127887
H14   H     H_    0.202213 0.235672 0.830049 0.106915
H15   H     H_    0.153570 0.262868 0.699873 0.166510
H16   H     H_    0.142541 0.456499 0.634105 0.138205
H17   H     H_    0.974244 0.594982 0.188595 0.151566
H18   H     H_    0.484474 0.874673 0.182910 0.159878
H19   H     H_    0.135958 0.398424 0.267341 0.128660
H20   H     H_    0.055012 0.268006 0.336645 0.097560
H21   H     H_    0.471823 0.846114 0.688074 0.160757
H22   H     H_    0.810783 0.332402 0.329679 0.152246
H23   H     H_    0.868933 0.116706 0.322474 0.106966
H24   H     H_    0.389335 0.207016 0.141687 0.138356
H25   H     H_    0.864672 0.118109 0.191663 0.156902
H26   H     H_    0.226870 0.178685 0.212945 0.117656
H27   H     H_    0.286870 0.078580 0.336322 0.105853
H28   H     H_    0.504124 0.037591 0.391326 0.132012
H29   H     H_    0.319066 0.411120 0.303615 0.157739
H30   H     H_    0.300438 0.813579 0.101884 0.116982
H31   H     H_    0.614119 0.869974 0.660269 0.127736
H32   H     H_    0.173457 0.054352 0.143890 0.100381
H33   H     H_    0.069304 0.104890 0.265252 0.102510
H34   H     H_    0.112191 0.919774 0.348495 0.146144
H35   H     H_    0.907081 0.648744 0.785105 0.136417
H36   H     H_    0.504556 0.674040 0.813203 0.085607
H37   H     H_    0.518679 0.582600 0.703617 0.103280
O1    O     O_R   0.507340 0.255690 0.581430 -0.531392
O2    O     O_R   0.524510 0.695820 0.424050 -0.516813
O3    O     O_R   0.736370 0.504260 0.414810 -0.508806
O4    O     O_R   0.691220 0.277270 0.422180 -0.538834
O5    O     O_3   0.499990 0.499990 0.499980 -0.276251
O6    O     O_R   0.089570 0.825450 0.930590 -0.528866
O7    O     O_R   0.818700 0.054260 0.929860 -0.516813
O8    O     O_R   0.606310 0.077010 0.915520 -0.532096
O9    O     O_R   0.646730 0.806540 0.917560 -0.520964
O10   O     O_R   0.837290 0.593240 0.915240 -0.505127
O11   O     O_R   0.065320 0.635310 0.931580 -0.515287
O12   O     O_R   0.280360 0.527380 0.578910 -0.505511
O13   O     O_R   0.068470 0.828620 0.091850 -0.511096
O14   O     O_R   0.799150 0.057200 0.079350 -0.502827
O15   O     O_R   0.585220 0.080180 0.076770 -0.537933
O16   O     O_R   0.627170 0.809480 0.067050 -0.508413
O17   O     O_R   0.816200 0.596410 0.076500 -0.529459
O18   O     O_R   0.045770 0.638240 0.081070 -0.533150
O19   O     O_3   0.833840 0.833520 0.001110 -0.254637
O20   O     O_R   0.260600 0.739610 0.584580 -0.503971
O21   O     O_R   0.532370 0.695050 0.573830 -0.506560
O22   O     O_R   0.744850 0.503430 0.576380 -0.528270
O23   O     O_R   0.699080 0.276500 0.571950 -0.513336
O24   O     O_R   0.498860 0.256520 0.419860 -0.533033
O25   O     O_R   0.272490 0.528150 0.429140 -0.488127
O26   O     O_R   0.252110 0.740440 0.423010 -0.542063
O27   O     O_3   0.159527 0.047948 0.653387 -0.595501
C71   C     C_3   0.130348 0.104504 0.583232 -0.020651
H38   H     H_    0.043424 0.216154 0.582789 0.127136
H39   H     H_    0.104299 0.039936 0.547843 0.148516
C72   C     C_3   0.260571 0.099540 0.552766 -0.360568
H40   H     H_    0.239582 0.142165 0.497294 0.080556
H41   H     H_    0.349031 0.989325 0.551581 0.173777
H42   H     H_    0.290474 0.163416 0.586220 0.152408
H43   H     H_    0.434226 0.816753 0.303553 0.154506
H44   H     H_    0.241661 0.436773 0.174815 0.114092
H45   H     H_    0.861925 0.662984 0.665066 0.122672
O28   O     O_3   0.675163 0.475307 0.843924 -0.566458
C73   C     C_3   0.586727 0.489953 0.902508 -0.014569
H46   H     H_    0.518987 0.446695 0.887004 0.138873
H47   H     H_    0.518140 0.600558 0.920680 0.110523
C74   C     C_3   0.675676 0.408983 0.966827 -0.342645
H48   H     H_    0.721683 0.467736 0.991679 0.188245
H49   H     H_    0.609954 0.395014 0.007330 0.094953
H50   H     H_    0.762373 0.304817 0.950322 0.170502

loop_
_geom_bond_atom_site_label_1
_geom_bond_atom_site_label_2
_ccdc_geom_bond_type
C8    C13   A    
Cr4   O19   S    
C74   H49   S    
Cr5   O9    S    
C41   C42   A    
C54   C55   A    
C35   C36   A    
C67   H1    S    
C14   H8    S    
C38   H22   S    
C33   H18   S    
C49   H28   S    
C69   H31   S    
C7    C8    A    
Cr1   O24   S    
C52   C53   A    
C7    C11   A    
Cr4   O6    S    
Cr2   O2    S    
C2    H36   S    
C26   C27   A    
C17   C23   S    
Cr3   O3    S    
C23   O23   A    
C65   O14   A    
C36   C37   A    
C9    C16   A    
C43   H23   S    
C18   C19   A    
C71   H39   S    
C30   C31   A    
Cr6   O18   S    
C6    H2    S    
C10   C17   A    
C15   C16   A    
C29   C33   A    
C34   O26   A    
Cr5   O15   S    
C56   O4    A    
C32   C39   A    
C46   C47   A    
C53   C61   A    
Cr2   O26   S    
Cr3   O22   S    
C8    C9    A    
C12   O22   A    
C1    C28   S    
O28   C73   S    
C73   C74   S    
C36   H19   S    
C7    C62   S    
C4    C12   S    
C62   O7    A    
Cr1   O5    S    
C39   C45   S    
C66   O16   A    
C57   H30   S    
C59   C60   A    
C47   H26   S    
C12   O21   A    
C21   C22   A    
C74   H50   S    
C2    C6    S    
Cr6   O17   S    
C72   H42   S    
C1    O20   A    
C4    C69   S    
C53   C60   A    
C55   H44   S    
Cr1   O25   S    
C57   C58   A    
C35   H17   S    
Cr4   O14   S    
C58   H32   S    
Cr3   O4    S    
C51   C52   A    
Cr6   O11   S    
C65   O15   A    
C3    C70   S    
O27   C71   S    
C4    C6    S    
C52   C57   A    
C71   C72   S    
C72   H40   S    
C20   C28   A    
C11   H7    S    
C25   C26   A    
C64   O11   A    
C48   H27   S    
C13   H6    S    
C34   O25   A    
C34   C61   S    
C50   C56   S    
C5    H45   S    
Cr1   O1    S    
C67   C69   S    
C37   C38   A    
C68   O18   A    
C43   C44   A    
C6    H37   S    
C29   C30   A    
C24   H12   S    
C45   O2    A    
Cr2   O21   S    
C47   C48   A    
Cr3   O23   S    
C41   C46   A    
C25   H14   S    
C27   H16   S    
C24   C25   A    
C5    H4    S    
C64   O6    A    
C42   C50   A    
C30   C35   A    
C72   H41   S    
C48   C49   A    
C54   C61   A    
C21   C28   A    
C73   H47   S    
C40   C65   S    
C16   H9    S    
C58   C59   A    
C68   O13   A    
C63   O9    A    
Cr5   O19   S    
C15   O27   S    
C9    C17   A    
C2    O28   S    
C46   H24   S    
C21   H10   S    
C40   C41   A    
Cr3   O5    S    
C54   H29   S    
C70   H3    S    
Cr5   O8    S    
Cr6   O10   S    
C3    C67   S    
C1    O12   A    
C4    C5    S    
C5    C70   S    
C63   O10   A    
C44   H25   S    
C43   C50   A    
C32   H43   S    
C20   C27   A    
C3    C63   S    
Cr4   O7    S    
C10   H5    S    
C67   H11   S    
C70   H35   S    
C31   C38   A    
C32   C33   A    
C19   C20   A    
C18   C22   A    
C19   C24   A    
C26   H15   S    
C71   H38   S    
C23   O1    A    
C56   O24   A    
Cr6   O19   S    
C45   O3    A    
C18   C64   S    
Cr2   O20   S    
Cr4   O13   S    
C59   H33   S    
C22   H13   S    
C31   C39   A    
C2    C3    S    
C51   C55   A    
C51   C68   S    
C60   H34   S    
C10   C11   A    
C42   C49   A    
C29   C66   S    
C40   C44   A    
C73   H46   S    
C37   H20   S    
Cr2   O5    S    
C74   H48   S    
C14   C15   A    
Cr1   O12   S    
C13   C14   A    
C62   O8    A    
Cr5   O16   S    
C66   O17   A    
C69   H21   S    
