data_mof_unit_48186.cif
_audit_creation_date              2012-10-26T18:34:23-0400
_audit_creation_method            fapswitch 2.2
_symmetry_space_group_name_H-M    P1
_symmetry_Int_Tables_number       1
_space_group_crystal_system       triclinic
_cell_length_a                    10.770691
_cell_length_b                    9.633393
_cell_length_c                    9.051677
_cell_angle_alpha                 90.071872
_cell_angle_beta                  91.81351
_cell_angle_gamma                 90.090323
_cell_volume                      938.71423146

loop_
_atom_site_label
_atom_site_type_symbol
_atom_type_description
_atom_site_fract_x
_atom_site_fract_y
_atom_site_fract_z
_atom_type_partial_charge
C1    C     C_R   0.262940 0.499817 0.498884 0.550850
C2    C     C_R   0.061175 0.531531 0.367391 -0.011133
C3    C     C_R   0.871345 0.500994 0.500928 -0.026521
C4    C     C_R   0.128655 0.499006 0.499074 -0.026522
C5    C     C_R   0.428662 0.074033 0.398629 0.097594
C6    C     C_R   0.571337 0.925967 0.601372 0.097591
C7    C     C_R   0.571379 0.074462 0.601292 0.117047
C8    C     C_R   0.428622 0.925538 0.398707 0.117029
C9    C     C_2   0.146002 0.438028 0.768244 0.266389
C10   C     C_2   0.853999 0.562008 0.231772 0.266375
C11   C     C_2   0.872990 0.445985 0.772881 0.264280
C12   C     C_R   0.737060 0.500183 0.501116 0.550835
C13   C     C_2   0.126999 0.553994 0.227108 0.264236
C14   C     C_2   0.347640 0.148054 0.290514 0.323900
C15   C     C_2   0.652355 0.851947 0.709491 0.323881
C16   C     C_2   0.653465 0.148904 0.708189 0.308201
C17   C     C_2   0.346544 0.851095 0.291800 0.308190
C18   C     C_R   0.499871 0.499952 0.220986 0.584277
C19   C     C_R   0.500133 0.500048 0.779014 0.584239
C20   C     C_1   0.499967 0.499933 0.065655 0.076085
C21   C     C_1   0.500038 0.500067 0.934345 0.076076
C22   C     C_R   0.069253 0.465817 0.631244 -0.049117
C23   C     C_R   0.930746 0.534192 0.368764 -0.049118
C24   C     C_R   0.938823 0.468466 0.632610 -0.011116
Cu1   Cu    Cu3+1 0.500000 0.640660 0.500000 1.027710
Cu2   Cu    Cu3+1 0.500000 0.359340 0.500000 1.027699
H1    H     H_    0.230950 0.496183 0.789721 0.118099
H2    H     H_    0.769096 0.503788 0.210232 0.118101
H3    H     H_    0.895576 0.358367 0.843485 0.174874
H4    H     H_    0.104362 0.641557 0.156449 0.174917
H5    H     H_    0.264887 0.200436 0.325853 0.136265
H6    H     H_    0.735101 0.799550 0.674156 0.136288
H7    H     H_    0.737588 0.197946 0.671915 0.090251
H8    H     H_    0.262428 0.802025 0.328071 0.090303
N1    N     N_R   0.500000 0.852070 0.500000 -0.287915
N2    N     N_R   0.500000 0.147930 0.500000 -0.287915
O1    O     O_R   0.319640 0.618740 0.499990 -0.535513
O2    O     O_2   0.881449 0.653261 0.145292 -0.467101
O3    O     O_2   0.793145 0.526884 0.811490 -0.486983
O4    O     O_2   0.206890 0.473135 0.188542 -0.486973
O5    O     O_2   0.371172 0.147077 0.159466 -0.392836
O6    O     O_2   0.628829 0.852941 0.840539 -0.392836
O7    O     O_2   0.629536 0.151425 0.839092 -0.423426
O8    O     O_2   0.370471 0.848603 0.160892 -0.423405
O9    O     O_R   0.680360 0.381260 0.500010 -0.535523
O10   O     O_R   0.680360 0.618740 0.500010 -0.511481
O11   O     O_R   0.319640 0.381260 0.499990 -0.511498
O12   O     O_R   0.500000 0.618760 0.288390 -0.471199
O13   O     O_R   0.500000 0.381240 0.711610 -0.471205
O14   O     O_R   0.500000 0.618760 0.711610 -0.472565
O15   O     O_R   0.500000 0.381240 0.288390 -0.472546
O16   O     O_2   0.118497 0.346879 0.854817 -0.467136

loop_
_geom_bond_atom_site_label_1
_geom_bond_atom_site_label_2
_ccdc_geom_bond_type
C5    C8    A    
C2    C4    A    
C6    C7    A    
C16   H7    S    
C4    C22   A    
C7    N2    A    
C19   O13   A    
C3    C23   A    
C8    C17   S    
C16   O7    D    
C1    O1    A    
C14   H5    S    
C10   O2    D    
C1    C4    S    
C5    C14   S    
C17   O8    D    
C15   H6    S    
Cu1   Cu2   S    
Cu2   O15   S    
C20   C21   T    
C11   O3    D    
Cu1   O12   S    
C9    H1    S    
C3    C24   A    
C9    O16   D    
Cu2   O11   S    
Cu1   N1    S    
C14   O5    D    
Cu2   N2    S    
C7    C16   S    
C19   C21   S    
C18   O15   A    
C18   C20   S    
C10   C23   S    
C22   C24   A    
C9    C22   S    
C17   H8    S    
C5    N2    A    
C19   O14   A    
C11   C24   S    
C6    N1    A    
C11   H3    S    
C12   O10   A    
Cu2   O13   S    
C10   H2    S    
C2    C23   A    
C2    C13   S    
Cu1   O14   S    
C1    O11   A    
C13   O4    D    
C3    C12   S    
Cu2   O9    S    
Cu1   O1    S    
C6    C15   S    
C13   H4    S    
Cu1   O10   S    
C15   O6    D    
C12   O9    A    
C8    N1    A    
C18   O12   A    
