data_mof_unit_17138.cif
_audit_creation_date              2012-12-10T17:35:47-0500
_audit_creation_method            fapswitch 2.2
_symmetry_space_group_name_H-M    P1
_symmetry_Int_Tables_number       1
_space_group_crystal_system       triclinic
_cell_length_a                    10.491492
_cell_length_b                    11.998044
_cell_length_c                    12.860897
_cell_angle_alpha                 94.122016
_cell_angle_beta                  90.636926
_cell_angle_gamma                 86.046716
_cell_volume                      1610.83543134

loop_
_atom_site_label
_atom_site_type_symbol
_atom_type_description
_atom_site_fract_x
_atom_site_fract_y
_atom_site_fract_z
_atom_type_partial_charge
C1    C     C_R   0.495490 0.522923 0.700606 0.938059
C2    C     C_R   0.506279 0.476945 0.299522 0.941800
C3    C     C_R   0.459680 0.451631 0.869720 -0.098203
C4    C     C_R   0.585145 0.533685 0.131873 -0.117314
C5    C     C_R   0.499772 0.444346 0.972927 -0.121133
C6    C     C_R   0.568975 0.531703 0.022854 -0.106590
C7    C     C_R   0.379691 0.954918 0.403226 -0.352400
C8    C     C_R   0.619673 0.045224 0.597468 -0.376312
C9    C     C_R   0.391133 0.838691 0.411952 0.149828
C10   C     C_R   0.608935 0.161365 0.588005 0.148614
C11   C     C_R   0.552015 0.858472 0.541904 -0.074422
C12   C     C_R   0.447583 0.141584 0.458488 -0.042182
C13   C     C_R   0.543217 0.975750 0.535609 0.089269
C14   C     C_R   0.455988 0.024368 0.465218 0.081644
C15   C     C_R   0.742586 0.500366 0.503185 0.867507
C16   C     C_R   0.257249 0.500242 0.501201 0.852339
C17   C     C_3   0.967522 0.400200 0.532262 -0.121970
C18   C     C_3   0.031957 0.601127 0.478475 -0.124778
C19   C     C_3   0.046038 0.481552 0.600897 -0.180875
C20   C     C_3   0.953995 0.519582 0.409754 -0.168275
C21   C     C_3   0.122135 0.500991 0.504084 0.028064
C22   C     C_3   0.877559 0.500194 0.506123 0.029380
C23   C     C_3   0.046370 0.419567 0.435734 -0.187273
C24   C     C_3   0.952922 0.581503 0.575189 -0.183573
C25   C     C_R   0.519296 0.458790 0.187650 -0.285789
C26   C     C_R   0.500853 0.537337 0.812963 -0.287080
C27   C     C_R   0.612520 0.616642 0.962948 0.397863
C28   C     C_R   0.470785 0.352237 0.028459 0.390199
C29   C     C_R   0.565250 0.625746 0.861153 0.350121
C30   C     C_R   0.463033 0.367115 0.136554 0.365181
H1    H     H_    0.088443 0.466171 0.678458 0.141098
H2    H     H_    0.910734 0.535580 0.332753 0.141552
H3    H     H_    0.937933 0.317865 0.553624 0.157153
H4    H     H_    0.061862 0.683221 0.456607 0.154695
H5    H     H_    0.088938 0.350969 0.382076 0.145876
H6    H     H_    0.909817 0.647040 0.632051 0.142474
H7    H     H_    0.380909 0.180186 0.404703 0.148907
H8    H     H_    0.618665 0.819864 0.595686 0.158300
H9    H     H_    0.311938 0.990702 0.348409 0.143518
H10   H     H_    0.687446 0.009510 0.652318 0.148560
N1    N     N_R   0.523490 0.207800 0.519350 -0.121175
N2    N     N_R   0.476510 0.792200 0.480650 -0.126073
O1    O     O_R   0.506270 0.421700 0.658830 -0.622648
O2    O     O_R   0.493730 0.578300 0.341170 -0.622971
O3    O     O_R   0.491200 0.609310 0.646410 -0.589890
O4    O     O_R   0.508800 0.390690 0.353590 -0.571543
O5    O     O_R   0.693580 0.406210 0.506230 -0.631561
O6    O     O_R   0.306420 0.593790 0.493770 -0.636043
O7    O     O_R   0.678510 0.593830 0.493810 -0.618385
O8    O     O_R   0.321490 0.406170 0.506190 -0.623253
Zn1   Zn    Zn3+2 0.510060 0.374730 0.508290 0.969404
Zn2   Zn    Zn3+2 0.489940 0.625270 0.491710 0.957580
C31   C     C_1   0.661736 0.614580 0.188637 0.312480
N3    N     N_1   0.722239 0.678901 0.234529 -0.207495
C32   C     C_1   0.363284 0.380412 0.824507 0.305888
N4    N     N_1   0.286623 0.324100 0.788429 -0.209837
O9    O     O_3   0.403212 0.291980 0.194043 -0.637479
C33   C     C_3   0.272219 0.286273 0.166468 0.089608
H11   H     H_    0.230994 0.229296 0.219518 0.146153
H12   H     H_    0.259802 0.246915 0.086656 0.192254
C34   C     C_3   0.195071 0.400271 0.179209 -0.383922
H13   H     H_    0.206772 0.437917 0.259804 0.226793
H14   H     H_    0.230615 0.458880 0.125005 0.213039
C35   C     C_3   0.053897 0.387188 0.155106 -0.969422
H15   H     H_    0.041233 0.356950 0.072203 0.274512
H16   H     H_    0.999769 0.469369 0.168975 0.266798
H17   H     H_    0.014314 0.326936 0.205610 0.259280
O10   O     O_3   0.595197 0.714188 0.803923 -0.649232
C36   C     C_3   0.526457 0.814662 0.841237 0.089985
H18   H     H_    0.576624 0.885154 0.813092 0.159936
H19   H     H_    0.525292 0.826884 0.927891 0.163471
C37   C     C_3   0.389544 0.821808 0.797870 -0.367720
H20   H     H_    0.391540 0.810112 0.711496 0.251685
H21   H     H_    0.335314 0.754647 0.827893 0.211167
C38   C     C_3   0.320692 0.935231 0.829325 -0.945628
H22   H     H_    0.315474 0.948559 0.915579 0.261719
H23   H     H_    0.221997 0.937966 0.797098 0.268013
H24   H     H_    0.371594 0.003760 0.798125 0.276680
O11   O     O_3   0.693031 0.695341 0.005653 -0.655752
C39   C     C_3   0.811731 0.687608 0.952552 0.109050
H25   H     H_    0.846821 0.773057 0.955166 0.164824
H26   H     H_    0.806013 0.658319 0.868619 0.162828
C40   C     C_3   0.910208 0.610898 0.006284 -0.376530
H27   H     H_    0.925299 0.645052 0.087740 0.239460
H28   H     H_    0.874019 0.526135 0.007793 0.221925
C41   C     C_3   0.037655 0.601407 0.948848 -0.958245
H29   H     H_    0.025230 0.565682 0.867547 0.259554
H30   H     H_    0.107568 0.545427 0.988947 0.276668
H31   H     H_    0.076614 0.685062 0.947518 0.264894
O12   O     O_3   0.440246 0.251807 0.977036 -0.657612
C42   C     C_3   0.536051 0.166124 0.995138 0.102850
H32   H     H_    0.489144 0.085943 0.995732 0.159832
H33   H     H_    0.585664 0.177575 0.071995 0.154602
C43   C     C_3   0.633479 0.155632 0.906851 -0.359489
H34   H     H_    0.584758 0.130657 0.832492 0.226830
H35   H     H_    0.673590 0.237992 0.899515 0.239250
C44   C     C_3   0.742783 0.069049 0.926963 -0.978019
H36   H     H_    0.798483 0.097222 0.996766 0.272172
H37   H     H_    0.807424 0.058746 0.858662 0.268387
H38   H     H_    0.705454 0.986827 0.939742 0.260965
C45   C     C_1   0.690009 0.230700 0.651541 0.208543
N5    N     N_1   0.755463 0.286013 0.703017 -0.239104
C46   C     C_1   0.311606 0.769361 0.346822 0.221447
N6    N     N_1   0.247435 0.714174 0.293971 -0.235332

loop_
_geom_bond_atom_site_label_1
_geom_bond_atom_site_label_2
_ccdc_geom_bond_type
C32   N4    T    
C16   C21   S    
C4    C31   S    
C34   C35   S    
C18   C21   S    
C15   O5    A    
C19   H1    S    
C16   O6    A    
C4    C25   A    
O9    C33   S    
C31   N3    T    
C2    O4    A    
C9    N2    A    
C17   C23   S    
C18   C24   S    
C19   C21   S    
C16   O8    A    
C27   O11   S    
C39   C40   S    
C5    C6    A    
C41   H30   S    
C27   C29   A    
C33   H12   S    
C5    C28   A    
C30   O9    S    
C11   N2    A    
C36   H19   S    
C12   H7    S    
C34   H14   S    
C3    C32   S    
C1    O1    A    
C7    C14   A    
C6    C27   A    
C2    O2    A    
O10   C36   S    
O2    Zn2   S    
C33   C34   S    
C13   C14   A    
C10   N1    A    
C36   H18   S    
C17   H3    S    
C37   C38   S    
C44   H37   S    
C45   N5    T    
C44   H36   S    
C15   C22   S    
C35   H17   S    
C37   H21   S    
C42   H32   S    
C41   H29   S    
C39   H25   S    
O5    Zn1   S    
C43   C44   S    
C33   H11   S    
O4    Zn1   S    
C35   H16   S    
C11   H8    S    
C38   H22   S    
C12   N1    A    
C42   H33   S    
C29   O10   S    
C38   H23   S    
C40   H27   S    
C20   C23   S    
C9    C46   S    
O7    Zn2   S    
O8    Zn1   S    
C43   H34   S    
C24   H6    S    
C43   H35   S    
C18   H4    S    
C4    C6    A    
C40   H28   S    
C12   C14   A    
C23   H5    S    
C21   C23   S    
C1    C26   S    
C22   C24   S    
C36   C37   S    
C20   H2    S    
C25   C30   A    
C7    C9    A    
C44   H38   S    
C10   C45   S    
C20   C22   S    
C37   H20   S    
C3    C5    A    
C41   H31   S    
C3    C26   A    
C17   C22   S    
O3    Zn2   S    
C35   H15   S    
C28   C30   A    
C19   C24   S    
C42   C43   S    
C11   C13   A    
C1    O3    A    
O12   C42   S    
O1    Zn1   S    
C17   C19   S    
C39   H26   S    
C2    C25   S    
C18   C20   S    
C15   O7    A    
C34   H13   S    
C38   H24   S    
O11   C39   S    
C8    C13   A    
O6    Zn2   S    
C40   C41   S    
C26   C29   A    
C8    C10   A    
C46   N6    T    
C7    H9    S    
C28   O12   S    
C8    H10   S    
N1    Zn1   S    
N2    Zn2   S    
