data_mof_unit_39366.cif
_audit_creation_date              2012-12-11T14:48:02-0500
_audit_creation_method            fapswitch 2.2
_symmetry_space_group_name_H-M    P1
_symmetry_Int_Tables_number       1
_space_group_crystal_system       triclinic
_cell_length_a                    11.581232
_cell_length_b                    11.556925
_cell_length_c                    19.527974
_cell_angle_alpha                 90.391811
_cell_angle_beta                  89.581369
_cell_angle_gamma                 60.100011
_cell_volume                      2265.57441803

loop_
_atom_site_label
_atom_site_type_symbol
_atom_type_description
_atom_site_fract_x
_atom_site_fract_y
_atom_site_fract_z
_atom_type_partial_charge
C1    C     C_R   0.640007 0.117393 0.599226 0.548604
C2    C     C_1   0.640148 0.704155 0.667910 0.007548
C3    C     C_1   0.127227 0.198896 0.859396 0.007679
C4    C     C_1   0.171180 0.170335 0.727687 -0.029145
C5    C     C_1   0.150416 0.182313 0.798964 -0.028936
C6    C     C_1   0.194695 0.161012 0.667262 0.005786
C7    C     C_1   0.679562 0.190823 0.860817 0.006233
C8    C     C_1   0.658186 0.167471 0.729031 -0.028658
C9    C     C_1   0.666196 0.180631 0.800389 -0.028759
C10   C     C_1   0.652147 0.150169 0.668601 0.006598
C11   C     C_R   0.526660 0.727135 0.287195 0.044594
C12   C     C_R   0.611854 0.746415 0.598593 0.554451
C13   C     C_R   0.527980 0.750372 0.216842 -0.012348
C14   C     C_R   0.652070 0.702174 0.184718 -0.047594
C15   C     C_R   0.762235 0.682450 0.222998 -0.137719
C16   C     C_R   0.757733 0.681806 0.294224 0.029948
C17   C     C_R   0.639045 0.703637 0.327348 -0.010248
C18   C     C_R   0.266105 0.231939 0.279110 -0.009745
C19   C     C_R   0.227504 0.239658 0.211352 -0.119793
C20   C     C_R   0.145162 0.190834 0.191574 0.049461
C21   C     C_R   0.114395 0.115550 0.238106 0.011606
C22   C     C_R   0.175538 0.084809 0.301285 -0.093033
C23   C     C_R   0.240558 0.145437 0.598025 0.559928
C24   C     C_R   0.250257 0.141995 0.322991 0.004629
C25   C     C_R   0.677795 0.040225 0.281121 -0.119964
C26   C     C_R   0.682512 0.069101 0.212573 -0.161874
C27   C     C_R   0.670471 0.191656 0.195166 -0.013497
C28   C     C_R   0.654070 0.283569 0.247578 -0.024096
C29   C     C_R   0.650592 0.254016 0.315549 -0.176659
C30   C     C_R   0.662857 0.133044 0.332093 0.003246
C31   C     C_R   0.082096 0.231259 0.928719 0.553516
C32   C     C_R   0.684295 0.604432 0.929527 0.538731
C33   C     C_R   0.708967 0.206818 0.930110 0.540130
C34   C     C_R   0.644111 0.108291 0.401664 0.532427
C35   C     C_R   0.078355 0.237576 0.126471 0.565932
C36   C     C_R   0.679081 0.621769 0.121914 0.591433
C37   C     C_R   0.706052 0.210914 0.126126 0.522668
C38   C     C_R   0.614957 0.741957 0.400411 0.556289
C39   C     C_R   0.297974 0.117862 0.393524 0.532634
C40   C     C_1   0.671366 0.646427 0.860132 0.010120
C41   C     C_1   0.654223 0.683802 0.728340 -0.029386
C42   C     C_1   0.663924 0.666677 0.799640 -0.028739
Cr1   Cr    Cr6+3 0.404720 0.198220 0.499960 1.030570
Cr2   Cr    Cr6+3 0.698290 0.897110 0.500380 1.070621
Cr3   Cr    Cr6+3 0.396970 0.904720 0.499610 1.057462
Cr4   Cr    Cr6+3 0.926180 0.152240 0.028110 1.040604
Cr5   Cr    Cr6+3 0.921340 0.452070 0.027460 1.037487
Cr6   Cr    Cr6+3 0.626260 0.447120 0.028700 1.094757
H1    H     H_    0.698731 0.995279 0.173521 0.119132
H2    H     H_    0.636535 0.325707 0.355558 0.164838
H3    H     H_    0.857179 0.650574 0.197629 0.172008
H4    H     H_    0.249100 0.295809 0.174540 0.138497
H5    H     H_    0.151210 0.028472 0.336886 0.182659
H6    H     H_    0.683842 0.946851 0.294588 0.129971
O1    O     O_R   0.267740 0.231990 0.575440 -0.492724
O2    O     O_R   0.685970 0.784630 0.430010 -0.478266
O3    O     O_R   0.502530 0.766960 0.423990 -0.492664
O4    O     O_R   0.288330 0.026310 0.429250 -0.494559
O5    O     O_3   0.499990 0.000020 0.499980 -0.293812
O6    O     O_R   0.821500 0.119550 0.952820 -0.505225
O7    O     O_R   0.037130 0.162750 0.957360 -0.486589
O8    O     O_R   0.056440 0.344950 0.951330 -0.504516
O9    O     O_R   0.797900 0.560570 0.957460 -0.502878
O10   O     O_R   0.596140 0.579600 0.952720 -0.502349
O11   O     O_R   0.639070 0.321380 0.958660 -0.498415
O12   O     O_R   0.527280 0.186680 0.570530 -0.492013
O13   O     O_R   0.821240 0.124490 0.104360 -0.541166
O14   O     O_R   0.036900 0.167320 0.097830 -0.492952
O15   O     O_R   0.056190 0.349890 0.102870 -0.520258
O16   O     O_R   0.797670 0.565150 0.097930 -0.512580
O17   O     O_R   0.595880 0.584540 0.104260 -0.425679
O18   O     O_R   0.638830 0.325960 0.099140 -0.466678
O19   O     O_3   0.824590 0.350480 0.028090 -0.269890
O20   O     O_R   0.728090 0.003480 0.576380 -0.500761
O21   O     O_R   0.682970 0.789220 0.570490 -0.485291
O22   O     O_R   0.499290 0.771920 0.575530 -0.501121
O23   O     O_R   0.285330 0.030900 0.569730 -0.489746
O24   O     O_R   0.270980 0.227040 0.423900 -0.506739
O25   O     O_R   0.530280 0.182090 0.430050 -0.531804
O26   O     O_R   0.731330 0.998530 0.424830 -0.495110
C43   C     C_2   0.418782 0.706944 0.316607 0.665980
O27   O     O_2   0.301947 0.788453 0.307805 -0.556233
O28   O     O_R   0.452837 0.595392 0.357219 -0.685288
H7    H     H_    0.372097 0.595622 0.377794 0.319947
C44   C     C_2   0.640584 0.412171 0.233539 0.599183
O29   O     O_2   0.536125 0.497964 0.210103 -0.438808
O30   O     O_R   0.741866 0.439353 0.249597 -0.699359
H8    H     H_    0.820249 0.362688 0.272855 0.294101
C45   C     C_2   0.406577 0.804853 0.173837 0.620209
O31   O     O_2   0.340274 0.749630 0.171760 -0.432195
O32   O     O_R   0.373031 0.913503 0.131257 -0.693288
H9    H     H_    0.434396 0.951839 0.136748 0.280083
C46   C     C_2   0.883249 0.643514 0.331081 0.592715
O33   O     O_2   0.912517 0.572826 0.381620 -0.493197
O34   O     O_R   0.970535 0.684600 0.306286 -0.724852
H10   H     H_    0.052836 0.652201 0.335438 0.335684
C47   C     C_3   0.307342 0.330540 0.305369 -0.270919
C48   C     C_3   0.310605 0.427181 0.253117 -0.422210
H11   H     H_    0.384507 0.371983 0.211760 0.177286
H12   H     H_    0.210423 0.490630 0.230982 0.182909
H13   H     H_    0.339436 0.494233 0.278995 0.204505
H14   H     H_    0.235235 0.394980 0.345582 0.199322
H15   H     H_    0.406149 0.274384 0.327743 0.180147
C49   C     C_3   0.000690 0.088073 0.229367 -0.264256
C50   C     C_3   0.044793 0.951619 0.197005 -0.313916
H16   H     H_    0.957333 0.938715 0.188803 0.153548
H17   H     H_    0.095741 0.940294 0.147065 0.220041
H18   H     H_    0.111236 0.871695 0.231949 0.227626
H19   H     H_    0.953116 0.092567 0.279778 0.131207
H20   H     H_    0.921378 0.169169 0.200095 0.171207

loop_
_geom_bond_atom_site_label_1
_geom_bond_atom_site_label_2
_ccdc_geom_bond_type
C49   H20   S    
O30   H8    S    
C46   O33   D    
C41   C42   S    
C31   O7    A    
C19   C20   A    
C2    C12   S    
Cr5   O8    S    
C47   C48   S    
C33   O11   A    
C44   O29   D    
C11   C43   S    
Cr1   O24   S    
C50   H17   S    
Cr3   O3    S    
C26   C27   A    
Cr3   O22   S    
C18   C24   A    
C1    O20   A    
C28   C29   A    
C14   C36   S    
C49   H19   S    
Cr6   O10   S    
C2    C41   T    
Cr1   O25   S    
C15   C16   A    
C24   C39   S    
C18   C19   A    
Cr5   O15   S    
C34   O26   A    
C21   C49   S    
C19   H4    S    
C11   C17   A    
O34   H10   S    
C8    C9    S    
C18   C47   S    
C15   H3    S    
Cr6   O11   S    
C45   O32   S    
C47   H14   S    
C36   O17   A    
Cr1   O5    S    
Cr4   O6    S    
C40   C42   T    
C46   O34   S    
C21   C22   A    
C7    C33   S    
C31   O8    A    
Cr6   O18   S    
C49   C50   S    
C43   O28   S    
C36   O16   A    
C43   O27   D    
C22   H5    S    
C29   H2    S    
C44   O30   S    
C50   H18   S    
Cr3   O4    S    
C30   C34   S    
Cr4   O7    S    
C39   O24   A    
Cr2   O26   S    
C25   H6    S    
Cr5   O19   S    
C4    C6    T    
C26   H1    S    
O32   H9    S    
C16   C17   A    
C25   C26   A    
C39   O4    A    
Cr2   O21   S    
C3    C31   S    
Cr5   O16   S    
Cr4   O14   S    
C29   C30   A    
C34   O25   A    
C38   O3    A    
Cr2   O2    S    
O28   H7    S    
C1    O12   A    
C16   C46   S    
C23   O23   A    
Cr2   O20   S    
C32   O10   A    
C47   H15   S    
Cr1   O1    S    
C33   O6    A    
C48   H12   S    
C12   O22   A    
C22   C24   A    
C12   O21   A    
Cr6   O17   S    
C27   C28   A    
C25   C30   A    
C7    C9    T    
Cr3   O5    S    
C13   C45   S    
Cr6   O19   S    
C20   C35   S    
C1    C10   S    
C32   O9    A    
C4    C5    S    
C3    C5    T    
C23   O1    A    
C48   H13   S    
C50   H16   S    
Cr4   O13   S    
Cr5   O9    S    
C11   C13   A    
C35   O14   A    
C27   C37   S    
Cr1   O12   S    
C6    C23   S    
C37   O13   A    
C17   C38   S    
C32   C40   S    
C38   O2    A    
C20   C21   A    
C35   O15   A    
C8    C10   T    
C48   H11   S    
C37   O18   A    
C28   C44   S    
C14   C15   A    
Cr3   O23   S    
Cr2   O5    S    
C45   O31   D    
C13   C14   A    
Cr4   O19   S    
