data_mof_unit_29622.cif
_audit_creation_date              2012-12-10T17:22:12-0500
_audit_creation_method            fapswitch 2.2
_symmetry_space_group_name_H-M    P1
_symmetry_Int_Tables_number       1
_space_group_crystal_system       triclinic
_cell_length_a                    15.875483
_cell_length_b                    10.780358
_cell_length_c                    9.615145
_cell_angle_alpha                 90.043333
_cell_angle_beta                  90.052094
_cell_angle_gamma                 92.52994
_cell_volume                      1643.96336117

loop_
_atom_site_label
_atom_site_type_symbol
_atom_type_description
_atom_site_fract_x
_atom_site_fract_y
_atom_site_fract_z
_atom_type_partial_charge
C1    C     C_R   0.497113 0.262615 0.499986 0.786073
C2    C     C_3   0.948855 0.421158 0.621807 -0.373758
C3    C     C_3   0.917278 0.501446 0.500386 0.332669
C4    C     C_3   0.955405 0.635434 0.517584 -0.382762
C5    C     C_3   0.053059 0.635217 0.517534 -0.374656
C6    C     C_1   0.825050 0.501444 0.500339 -0.118053
C7    C     C_1   0.175041 0.500706 0.500186 -0.118010
C8    C     C_1   0.250625 0.500229 0.500036 -0.183914
C9    C     C_R   0.362701 0.120530 0.645310 -0.188149
C10   C     C_R   0.300035 0.051554 0.716130 -0.146883
C11   C     C_R   0.300160 0.922557 0.716332 -0.139736
C12   C     C_R   0.340338 0.499694 0.500017 0.805494
C13   C     C_R   0.362978 0.861714 0.645777 -0.171599
C14   C     C_R   0.428041 0.929712 0.575052 0.099652
C15   C     C_R   0.427895 0.060948 0.574855 0.097867
C16   C     C_R   0.491390 0.128419 0.499800 -0.099607
C17   C     C_R   0.550931 0.067337 0.421689 -0.196745
C18   C     C_R   0.551077 0.939359 0.421840 -0.210242
C19   C     C_R   0.491672 0.870513 0.500089 -0.086732
C20   C     C_R   0.611673 0.665584 0.144034 -0.135712
C21   C     C_R   0.665985 0.746879 0.072077 -0.217566
C22   C     C_R   0.665973 0.746908 0.928773 -0.206321
C23   C     C_R   0.497499 0.737081 0.500053 0.761428
C24   C     C_R   0.611625 0.665675 0.856487 -0.130374
C25   C     C_R   0.554781 0.581487 0.925387 0.206488
C26   C     C_R   0.554790 0.581433 0.074856 0.210981
C27   C     C_R   0.447883 0.422457 0.073681 -0.057637
C28   C     C_R   0.447898 0.422486 0.925912 -0.057222
C29   C     C_R   0.659670 0.500448 0.500015 0.808536
C30   C     C_3   0.046483 0.420943 0.621769 -0.381992
C31   C     C_3   0.047098 0.447328 0.361716 -0.378233
C32   C     C_3   0.949483 0.447569 0.361752 -0.376317
C33   C     C_1   0.749431 0.501076 0.500192 -0.179949
C34   C     C_3   0.082840 0.501071 0.500310 0.333870
Cu1   Cu    Cu3+1 0.499990 0.499990 0.640660 0.926656
Cu2   Cu    Cu3+1 0.500010 0.500010 0.359340 0.934544
H1    H     H_    0.922437 0.324187 0.611777 0.159429
H2    H     H_    0.071114 0.457840 0.722766 0.159231
H3    H     H_    0.926655 0.458138 0.722832 0.161845
H4    H     H_    0.933769 0.695104 0.431348 0.157477
H5    H     H_    0.598808 0.119264 0.362796 0.150077
H6    H     H_    0.358263 0.220278 0.644236 0.136474
H7    H     H_    0.250508 0.098394 0.769504 0.126061
H8    H     H_    0.250718 0.869287 0.769846 0.128691
H9    H     H_    0.358757 0.761430 0.645239 0.152840
H10   H     H_    0.405131 0.358803 0.128567 0.137457
H11   H     H_    0.066894 0.323872 0.611744 0.158240
H12   H     H_    0.617342 0.672932 0.253637 0.190232
H13   H     H_    0.708582 0.810187 0.128276 0.140291
H14   H     H_    0.708586 0.810215 0.872845 0.144403
H15   H     H_    0.617232 0.673062 0.746873 0.194966
H16   H     H_    0.405156 0.358842 0.870752 0.133384
H17   H     H_    0.072195 0.503477 0.272623 0.160638
H18   H     H_    0.067493 0.350728 0.346946 0.159393
H19   H     H_    0.923064 0.351087 0.346965 0.159747
H20   H     H_    0.927754 0.503855 0.272693 0.161531
H21   H     H_    0.077835 0.675974 0.616638 0.157632
H22   H     H_    0.078262 0.694779 0.431272 0.161311
H23   H     H_    0.933321 0.676265 0.616731 0.158484
N1    N     N_R   0.500800 0.501210 0.147910 -0.198419
N2    N     N_R   0.500820 0.501290 0.852040 -0.198246
O1    O     O_R   0.499990 0.319640 0.618810 -0.576706
O2    O     O_R   0.500000 0.319660 0.381240 -0.574616
O3    O     O_R   0.379430 0.499990 0.618840 -0.588050
O4    O     O_R   0.379440 0.500020 0.381260 -0.569139
O5    O     O_R   0.500000 0.680340 0.618760 -0.602291
O6    O     O_R   0.500010 0.680360 0.381190 -0.589493
O7    O     O_R   0.620560 0.499980 0.618740 -0.588034
O8    O     O_R   0.620570 0.500010 0.381160 -0.592054
H24   H     H_    0.599072 0.893773 0.363055 0.135127

loop_
_geom_bond_atom_site_label_1
_geom_bond_atom_site_label_2
_ccdc_geom_bond_type
C18   H24   S    
C19   C23   S    
C24   C25   A    
Cu1   O3    S    
C29   O7    A    
C11   C13   A    
C9    C10   A    
C10   H7    S    
C32   H19   S    
Cu1   Cu2   S    
C6    C33   T    
C5    H21   S    
C27   H10   S    
C8    C12   S    
C3    C6    S    
C5    C34   S    
Cu2   O4    S    
C24   H15   S    
C21   H13   S    
C17   C18   A    
C9    C15   A    
Cu2   O6    S    
C7    C8    T    
Cu1   N2    S    
C1    C16   S    
C25   N2    A    
C13   C14   A    
C31   H17   S    
C13   H9    S    
C28   H16   S    
C2    H1    S    
C9    H6    S    
C20   H12   S    
C20   C26   A    
C5    H22   S    
C1    O2    A    
C4    H23   S    
C12   O4    A    
C2    C3    S    
Cu1   O1    S    
C29   O8    A    
C27   N1    A    
C31   H18   S    
C3    C32   S    
C12   O3    A    
C7    C34   S    
C22   C24   A    
C31   C34   S    
C17   H5    S    
C16   C17   A    
C10   C11   A    
C30   C34   S    
C28   N2    A    
C23   O5    A    
C15   C16   A    
Cu2   O2    S    
C29   C33   S    
C30   H11   S    
C11   H8    S    
Cu1   O7    S    
C20   C21   A    
C30   H2    S    
C1    O1    A    
C18   C19   A    
C22   H14   S    
C23   O6    A    
C27   C28   A    
Cu2   O8    S    
C14   C15   A    
C14   C19   A    
C2    C30   S    
Cu1   O5    S    
C25   C26   A    
C21   C22   A    
C26   N1    A    
C2    H3    S    
C32   H20   S    
C31   C32   S    
C3    C4    S    
C4    H4    S    
C4    C5    S    
Cu2   N1    S    
