data_mof_unit_25378.cif
_audit_creation_date              2012-12-10T18:20:44-0500
_audit_creation_method            fapswitch 2.2
_symmetry_space_group_name_H-M    P1
_symmetry_Int_Tables_number       1
_space_group_crystal_system       triclinic
_cell_length_a                    15.838226
_cell_length_b                    10.781219
_cell_length_c                    9.584024
_cell_angle_alpha                 89.312057
_cell_angle_beta                  90.491004
_cell_angle_gamma                 90.197541
_cell_volume                      1636.33648322

loop_
_atom_site_label
_atom_site_type_symbol
_atom_type_description
_atom_site_fract_x
_atom_site_fract_y
_atom_site_fract_z
_atom_type_partial_charge
C1    C     C_R   0.501715 0.259707 0.500815 0.933288
C2    C     C_3   0.486491 0.391322 0.950952 0.565899
C3    C     C_3   0.442696 0.572918 0.948297 -0.095936
C4    C     C_3   0.558271 0.427810 0.052037 -0.157309
C5    C     C_3   0.571821 0.537071 0.950249 -0.129936
C6    C     C_3   0.428748 0.462987 0.048059 -0.117009
C7    C     C_R   0.340465 0.500004 0.499505 0.818501
C8    C     C_R   0.659519 0.500115 0.500461 0.802192
C9    C     C_3   0.971853 0.386416 0.530072 0.503037
C10   C     C_3   0.028049 0.614245 0.469360 0.502100
C11   C     C_3   0.026708 0.420722 0.402921 -0.164388
C12   C     C_R   0.499548 0.740018 0.499346 0.911345
C13   C     C_3   0.973192 0.579932 0.596511 -0.165924
C14   C     C_1   0.250883 0.500064 0.498601 -0.102250
C15   C     C_1   0.749072 0.500289 0.501213 -0.105708
C16   C     C_3   0.028582 0.465141 0.626906 -0.171097
C17   C     C_3   0.971307 0.535512 0.372531 -0.168045
C18   C     C_3   0.083682 0.499703 0.499593 -0.051372
C19   C     C_3   0.916233 0.500951 0.499857 -0.051090
C20   C     C_1   0.175369 0.500024 0.498681 0.048803
C21   C     C_1   0.824569 0.500508 0.500935 0.048553
C22   C     C_3   0.545263 0.035331 0.612088 0.364001
C23   C     C_3   0.580774 0.957945 0.492892 0.258298
C24   C     C_3   0.456856 0.962320 0.386570 0.316095
C25   C     C_1   0.057341 0.334339 0.297500 0.313352
C26   C     C_1   0.942538 0.666283 0.701952 0.315172
C27   C     C_3   0.996903 0.183342 0.599552 -0.296857
C28   C     C_3   0.002938 0.817273 0.399770 -0.300602
C29   C     C_1   0.937877 0.570121 0.234060 0.281620
C30   C     C_1   0.061829 0.430541 0.765489 0.288480
C31   C     C_3   0.725047 0.996663 0.497405 -0.231503
C32   C     C_3   0.275702 0.022091 0.468587 -0.234532
C33   C     C_3   0.620281 0.971576 0.807649 -0.300024
C34   C     C_3   0.421096 0.041494 0.505081 0.253837
C35   C     C_3   0.383569 0.989855 0.178979 -0.241107
C36   C     C_3   0.357700 0.966011 0.782322 -0.224893
C37   C     C_3   0.616783 0.024168 0.181523 -0.341339
C38   C     C_1   0.371851 0.644048 0.890048 0.396677
C39   C     C_1   0.630340 0.360700 0.113522 0.332897
C40   C     C_3   0.617227 0.729615 0.152937 -0.263733
C41   C     C_3   0.499565 0.182633 0.964166 -0.296310
C42   C     C_1   0.653015 0.579483 0.893228 0.300224
C43   C     C_1   0.348062 0.415139 0.100920 0.337279
C44   C     C_3   0.499814 0.877042 0.498287 -0.325010
C45   C     C_3   0.502675 0.122028 0.502126 -0.325590
C46   C     C_3   0.463656 0.957354 0.616635 0.311248
C47   C     C_3   0.538194 0.041896 0.382080 0.311821
C48   C     C_3   0.514527 0.609016 0.048250 0.575195
Cu1   Cu    Cu3+1 0.500020 0.499990 0.643150 1.037690
Cu2   Cu    Cu3+1 0.499980 0.500010 0.356850 1.011099
H1    H     H_    0.012025 0.195005 0.711868 0.186954
H2    H     H_    0.290588 0.921296 0.477174 0.183393
H3    H     H_    0.256944 0.046150 0.360033 0.186513
H4    H     H_    0.219865 0.039229 0.534674 0.162487
H5    H     H_    0.642778 0.892383 0.745144 0.211298
H6    H     H_    0.568556 0.938221 0.875657 0.199786
H7    H     H_    0.673848 0.000094 0.875184 0.161021
H8    H     H_    0.425095 0.980213 0.088521 0.173906
H9    H     H_    0.382088 0.087858 0.214703 0.166345
H10   H     H_    0.318760 0.964852 0.144554 0.168953
H11   H     H_    0.363677 0.068683 0.774521 0.210345
H12   H     H_    0.055475 0.189372 0.536532 0.145405
H13   H     H_    0.345731 0.942393 0.892789 0.160185
H14   H     H_    0.301940 0.932483 0.723441 0.188117
H15   H     H_    0.570090 0.964062 0.128731 0.207016
H16   H     H_    0.666926 0.971200 0.235935 0.199065
H17   H     H_    0.650235 0.078113 0.100416 0.179831
H18   H     H_    0.656963 0.781544 0.077241 0.134647
H19   H     H_    0.646537 0.637579 0.173253 0.165884
H20   H     H_    0.619617 0.777422 0.253981 0.217212
H21   H     H_    0.568751 0.186256 0.949294 0.211591
H22   H     H_    0.476964 0.094838 0.920801 0.206583
H23   H     H_    0.970910 0.088414 0.586980 0.183046
H24   H     H_    0.483077 0.185574 0.076243 0.184372
H25   H     H_    0.944326 0.811163 0.462684 0.145715
H26   H     H_    0.987896 0.805607 0.287426 0.186313
H27   H     H_    0.028865 0.912234 0.412398 0.183203
H28   H     H_    0.741732 0.011458 0.608482 0.201823
H29   H     H_    0.707523 0.086937 0.447690 0.198173
H30   H     H_    0.782795 0.963541 0.445002 0.163488
N1    N     N_3   0.500060 0.499970 0.858290 -0.232264
N2    N     N_1   0.284418 0.377032 0.141889 -0.260074
N3    N     N_3   0.499940 0.500030 0.141710 -0.243123
N4    N     N_1   0.081499 0.266222 0.214566 -0.256786
N5    N     N_1   0.918362 0.734360 0.784913 -0.257075
N6    N     N_1   0.911448 0.597172 0.124994 -0.252202
N7    N     N_1   0.088082 0.403503 0.874672 -0.241419
N8    N     N_1   0.314430 0.697101 0.844375 -0.282942
N9    N     N_1   0.688049 0.310098 0.161944 -0.257794
N10   N     N_1   0.717103 0.613272 0.849529 -0.267207
O1    O     O_R   0.500040 0.316850 0.620870 -0.512049
O2    O     O_3   0.065099 0.731489 0.442929 -0.569383
O3    O     O_3   0.661922 0.904334 0.485131 -0.614973
O4    O     O_3   0.341785 0.101079 0.512465 -0.588634
O5    O     O_3   0.594439 0.075398 0.726186 -0.568257
O6    O     O_3   0.409969 0.903586 0.280642 -0.539745
O7    O     O_3   0.430729 0.903154 0.739742 -0.573033
O8    O     O_3   0.575946 0.106590 0.270051 -0.571638
O9    O     O_3   0.532560 0.726664 0.103573 -0.561445
O10   O     O_3   0.461026 0.279273 0.890606 -0.558214
O11   O     O_R   0.499960 0.683150 0.379130 -0.525753
O12   O     O_R   0.500000 0.316860 0.379090 -0.564015
O13   O     O_R   0.500000 0.683140 0.620910 -0.564932
O14   O     O_R   0.379090 0.499980 0.620870 -0.572126
O15   O     O_R   0.620910 0.500020 0.379130 -0.599697
O16   O     O_R   0.379060 0.499990 0.379090 -0.574084
O17   O     O_R   0.620940 0.500010 0.620910 -0.571959
O18   O     O_3   0.934766 0.269195 0.556491 -0.568986

loop_
_geom_bond_atom_site_label_1
_geom_bond_atom_site_label_2
_ccdc_geom_bond_type
C33   H5    S    
C32   O4    S    
C5    C42   S    
C11   C18   S    
C17   C29   S    
C22   O5    S    
C3    C6    S    
C8    O15   A    
C40   O9    S    
C31   H30   S    
Cu1   O17   S    
C35   O6    S    
C9    O18   S    
C47   O8    S    
C40   H20   S    
C35   H8    S    
C19   C21   S    
C9    C16   S    
C24   O6    S    
C11   C25   S    
C10   C17   S    
C16   C30   S    
C3    C48   S    
C35   H9    S    
Cu1   N1    S    
C32   H2    S    
C41   H24   S    
C9    C19   S    
C7    C14   S    
C3    C38   S    
C44   C46   S    
C37   H15   S    
C3    N1    S    
Cu2   O15   S    
C36   O7    S    
C34   C46   S    
C36   H13   S    
C41   H21   S    
C33   H6    S    
C10   O2    S    
C1    O1    A    
C2    C6    S    
Cu1   O1    S    
C33   O5    S    
C32   H4    S    
C37   O8    S    
C27   H1    S    
Cu2   N3    S    
C45   C47   S    
C5    C48   S    
C41   O10   S    
C23   C47   S    
C40   H19   S    
C13   C19   S    
C14   C20   T    
C12   O13   A    
C31   O3    S    
C24   C34   S    
C23   C44   S    
C23   O3    S    
C38   N8    T    
C35   H10   S    
C42   N10   T    
C2    C4    S    
C27   H12   S    
C25   N4    T    
C5    N1    S    
C4    C39   S    
C37   H16   S    
C7    O16   A    
C28   O2    S    
C34   C45   S    
C28   H27   S    
C9    C11   S    
C29   N6    T    
C41   H22   S    
C22   C46   S    
C46   O7    S    
Cu2   O12   S    
C8    C15   S    
C7    O14   A    
C24   C44   S    
C13   C26   S    
C36   H11   S    
C28   H26   S    
C8    O17   A    
C32   H3    S    
C31   H28   S    
C48   O9    S    
C11   C17   S    
C33   H7    S    
C6    N3    S    
C24   C47   S    
C34   O4    S    
C4    C5    S    
C10   C13   S    
Cu1   O13   S    
C31   H29   S    
C48   N3    S    
C6    C43   S    
Cu1   O14   S    
C12   O11   A    
C12   C44   S    
C27   H23   S    
C1    C45   S    
C4    N3    S    
C27   O18   S    
C10   C18   S    
C26   N5    T    
C37   H17   S    
C17   C19   S    
C18   C20   S    
C2    O10   S    
C15   C21   T    
C22   C45   S    
Cu2   O11   S    
C16   C18   S    
Cu1   Cu2   S    
C40   H18   S    
C13   C16   S    
Cu2   O16   S    
C43   N2    T    
C22   C23   S    
C2    N1    S    
C30   N7    T    
C36   H14   S    
C28   H25   S    
C1    O12   A    
C39   N9    T    
