data_mof_unit_50869.cif
_audit_creation_date              2012-12-11T15:57:43-0500
_audit_creation_method            fapswitch 2.2
_symmetry_space_group_name_H-M    P1
_symmetry_Int_Tables_number       1
_space_group_crystal_system       triclinic
_cell_length_a                    10.730626
_cell_length_b                    10.770067
_cell_length_c                    16.981909
_cell_angle_alpha                 99.43455
_cell_angle_beta                  99.902611
_cell_angle_gamma                 61.101862
_cell_volume                      1685.16421192

loop_
_atom_site_label
_atom_site_type_symbol
_atom_type_description
_atom_site_fract_x
_atom_site_fract_y
_atom_site_fract_z
_atom_type_partial_charge
C1    C     C_R   0.379892 0.714078 0.388074 0.562555
C2    C     C_2   0.828187 0.331333 0.158784 -0.110263
C3    C     C_2   0.852673 0.218751 0.195035 -0.158481
C4    C     C_2   0.824451 0.235090 0.277696 -0.160324
C5    C     C_2   0.365653 0.762901 0.311002 -0.105780
C6    C     C_2   0.358125 0.791979 0.144739 -0.116026
C7    C     C_2   0.460983 0.795544 0.200495 -0.162595
C8    C     C_2   0.479998 0.744534 0.278689 -0.167150
C9    C     C_2   0.425909 0.399055 0.683531 -0.127143
C10   C     C_2   0.322891 0.339602 0.821956 0.002178
C11   C     C_2   0.454755 0.315899 0.812178 -0.230039
C12   C     C_R   0.368980 0.346571 0.357192 0.554636
C13   C     C_2   0.499744 0.293457 0.732322 -0.031943
C14   C     C_1   0.815349 0.343204 0.709111 0.057538
C15   C     C_1   0.841495 0.315168 0.776952 0.032907
C16   C     C_1   0.358393 0.765888 0.713684 -0.034680
C17   C     C_1   0.325398 0.812590 0.780463 -0.025416
C18   C     C_R   0.893842 0.308102 0.086518 0.548972
C19   C     C_R   0.319606 0.299998 0.119559 0.542497
C20   C     C_R   0.296799 0.885943 0.081184 0.551743
C21   C     C_R   0.883871 0.297967 0.859094 0.552419
C22   C     C_R   0.305979 0.293488 0.893178 0.584308
C23   C     C_R   0.775622 0.377275 0.404574 0.549793
C24   C     C_R   0.280287 0.881364 0.857201 0.557292
C25   C     C_R   0.381295 0.715426 0.631686 0.526585
C26   C     C_R   0.418540 0.382322 0.596041 0.578820
C27   C     C_R   0.772936 0.381109 0.629749 0.558933
C28   C     C_1   0.342764 0.337154 0.273754 -0.039230
C29   C     C_1   0.332323 0.326919 0.202822 -0.033647
C30   C     C_2   0.845397 0.330796 0.331780 -0.105906
Cr1   Cr    Cr6+3 0.608020 0.610770 0.522990 1.048856
Cr2   Cr    Cr6+3 0.289390 0.599570 0.488050 1.039212
Cr3   Cr    Cr6+3 0.602610 0.289690 0.489020 1.071168
Cr4   Cr    Cr6+3 0.053780 0.052210 0.965970 1.037308
Cr5   Cr    Cr6+3 0.060060 0.372530 0.992430 1.050428
Cr6   Cr    Cr6+3 0.372600 0.061970 0.991430 1.035511
H1    H     H_    0.898295 0.111526 0.164957 0.162767
H2    H     H_    0.354270 0.504040 0.709687 0.053327
H3    H     H_    0.779984 0.171308 0.292688 0.165239
H4    H     H_    0.778401 0.438756 0.188458 0.107476
H5    H     H_    0.894501 0.390503 0.316892 0.113413
H6    H     H_    0.521038 0.849025 0.192510 0.160027
H7    H     H_    0.585988 0.700429 0.311760 0.157038
H8    H     H_    0.303065 0.733054 0.152217 0.107204
H9    H     H_    0.258505 0.813660 0.279666 0.117898
H10   H     H_    0.539950 0.277558 0.861180 0.128213
O1    O     O_R   0.749250 0.499990 0.439200 -0.517722
O2    O     O_R   0.299400 0.468710 0.556310 -0.509406
O3    O     O_R   0.489240 0.256450 0.560730 -0.437067
O4    O     O_R   0.723350 0.306730 0.584410 -0.473891
O5    O     O_3   0.500010 0.500010 0.500020 -0.339890
O6    O     O_R   0.170650 0.915100 0.051290 -0.519889
O7    O     O_R   0.941960 0.184500 0.049060 -0.501124
O8    O     O_R   0.922640 0.402670 0.071640 -0.513947
O9    O     O_R   0.196880 0.368740 0.083740 -0.503104
O10   O     O_R   0.411120 0.181190 0.091480 -0.514946
O11   O     O_R   0.364220 0.944920 0.062310 -0.497295
O12   O     O_R   0.477870 0.725740 0.440280 -0.471958
O13   O     O_R   0.158740 0.906940 0.874970 -0.499408
O14   O     O_R   0.930920 0.176940 0.885610 -0.492557
O15   O     O_R   0.910730 0.394510 0.895320 -0.496927
O16   O     O_R   0.185840 0.361180 0.920280 -0.471277
O17   O     O_R   0.399210 0.173040 0.915160 -0.518248
O18   O     O_R   0.353170 0.937370 0.898860 -0.493139
O19   O     O_3   0.162150 0.162240 0.983280 -0.251620
O20   O     O_R   0.260770 0.742210 0.412610 -0.495986
O21   O     O_R   0.297990 0.466320 0.394220 -0.508584
O22   O     O_R   0.487720 0.253870 0.385870 -0.505192
O23   O     O_R   0.721940 0.304340 0.422320 -0.498034
O24   O     O_R   0.750770 0.502570 0.614050 -0.507533
O25   O     O_R   0.479280 0.728140 0.602370 -0.471200
O26   O     O_R   0.262290 0.744790 0.587460 -0.483006
C31   C     C_2   0.612057 0.146715 0.710198 0.272901
H11   H     H_    0.622775 0.058914 0.739237 0.118694
O27   O     O_2   0.699010 0.122475 0.664616 -0.473066
C32   C     C_2   0.200176 0.381024 0.757385 0.243973
H12   H     H_    0.180047 0.455491 0.715423 0.120302
O28   O     O_2   0.117091 0.332028 0.751260 -0.497496

loop_
_geom_bond_atom_site_label_1
_geom_bond_atom_site_label_2
_ccdc_geom_bond_type
C19   O10   A    
C2    C18   S    
C31   O27   D    
C31   H11   S    
C23   O23   A    
C8    H7    S    
C7    C8    S    
Cr2   O26   S    
C10   C22   S    
C12   O22   A    
C12   C28   S    
C1    C5    S    
Cr1   O12   S    
C28   C29   T    
C32   O28   D    
Cr5   O19   S    
Cr3   O3    S    
C7    H6    S    
C9    C13   D    
C18   O7    A    
C22   O17   A    
C10   C32   S    
Cr1   O24   S    
C16   C17   T    
C30   H5    S    
C25   O25   A    
C14   C27   S    
Cr6   O17   S    
C21   O15   A    
C27   O4    A    
C26   O2    A    
Cr1   O25   S    
C24   O18   A    
Cr1   O1    S    
Cr5   O8    S    
Cr4   O14   S    
Cr2   O2    S    
Cr4   O19   S    
C9    C26   S    
C12   O21   A    
C17   C24   S    
C23   O1    A    
Cr5   O9    S    
C23   C30   S    
C32   H12   S    
C21   O14   A    
Cr6   O11   S    
C26   O3    A    
Cr6   O19   S    
Cr3   O4    S    
C5    H9    S    
Cr2   O5    S    
Cr6   O10   S    
C22   O16   A    
C4    H3    S    
C1    O20   A    
Cr5   O15   S    
C25   O26   A    
C27   O24   A    
Cr2   O21   S    
C13   C31   S    
Cr4   O13   S    
C3    C4    S    
C19   C29   S    
Cr2   O20   S    
C19   O9    A    
C16   C25   S    
Cr1   O5    S    
C5    C8    D    
C6    C7    D    
Cr3   O23   S    
Cr3   O5    S    
C6    C20   S    
Cr4   O6    S    
C2    C3    D    
C20   O6    A    
C1    O12   A    
C11   C13   S    
C24   O13   A    
C9    H2    S    
Cr5   O16   S    
C10   C11   D    
C18   O8    A    
C2    H4    S    
C15   C21   S    
C3    H1    S    
Cr4   O7    S    
C14   C15   T    
C11   H10   S    
C6    H8    S    
C20   O11   A    
Cr6   O18   S    
C4    C30   D    
Cr3   O22   S    
