data_mof_unit_68019.cif
_audit_creation_date              2013-03-05T15:40:30-0500
_audit_creation_method            fapswitch 2.2
_symmetry_space_group_name_H-M    P1
_symmetry_Int_Tables_number       1
_space_group_crystal_system       triclinic
_cell_length_a                    6.999011
_cell_length_b                    11.492303
_cell_length_c                    18.621315
_cell_angle_alpha                 89.999736
_cell_angle_beta                  93.538463
_cell_angle_gamma                 89.871425
_cell_volume                      1494.94171168

loop_
_atom_site_label
_atom_site_type_symbol
_atom_site_description
_atom_site_fract_x
_atom_site_fract_y
_atom_site_fract_z
_atom_type_partial_charge
O1    O     O_R   0.330540 0.606360 0.598870 -0.538999
O2    O     O_R   0.669460 0.106360 0.401130 -0.530048
O3    O     O_R   0.026770 0.620470 0.750430 -0.527359
O4    O     O_R   0.973230 0.120470 0.249570 -0.540664
O5    O     O_R   0.856460 0.393640 0.750930 -0.522637
O6    O     O_R   0.143540 0.893640 0.249070 -0.522216
C1    C     C_R   0.200050 0.646794 0.775370 0.893587
C2    C     C_R   0.799307 0.147524 0.225014 0.886350
O7    O     O_R   0.000920 0.620350 0.599420 -0.506093
O8    O     O_R   0.999080 0.120350 0.400580 -0.514540
O9    O     O_R   0.830430 0.393520 0.598850 -0.530111
O10   O     O_R   0.169570 0.893520 0.401150 -0.528908
C3    C     C_R   0.166592 0.647681 0.574776 0.761782
C4    C     C_R   0.833259 0.147751 0.425141 0.753289
O11   O     O_R   0.356570 0.606480 0.750960 -0.544995
O12   O     O_R   0.643430 0.106480 0.249040 -0.525806
O13   O     O_3   0.176990 0.425580 0.674890 -0.349296
O14   O     O_3   0.823010 0.925580 0.325110 -0.352362
V1    V     V_3+5 0.902170 0.513810 0.674910 1.874394
V2    V     V_3+5 0.097830 0.013810 0.325090 1.865121
O15   O     O_R   0.500800 0.379530 0.599380 -0.513929
O16   O     O_R   0.499200 0.879530 0.400620 -0.515695
C5    C     C_R   0.666621 0.352194 0.574793 0.741215
C6    C     C_R   0.333525 0.852245 0.425277 0.750908
O17   O     O_R   0.526650 0.379650 0.750390 -0.517118
O18   O     O_R   0.473350 0.879650 0.249610 -0.520084
C7    C     C_R   0.699153 0.349547 0.773076 0.840832
C8    C     C_R   0.301419 0.849546 0.226942 0.850960
V3    V     V_3+5 0.402160 0.486190 0.674900 1.866481
V4    V     V_3+5 0.597840 0.986190 0.325100 1.885390
O19   O     O_3   0.677210 0.574420 0.674910 -0.376651
O20   O     O_3   0.322790 0.074420 0.325090 -0.370611
C9    C     C_R   0.810217 0.072097 0.875951 0.692677
C10   C     C_R   0.194534 0.571103 0.124708 0.688983
C11   C     C_R   0.718298 0.262237 0.830777 -0.349026
C12   C     C_R   0.284161 0.761545 0.169663 -0.351083
C13   C     C_R   0.739990 0.346511 0.178466 0.270268
C14   C     C_R   0.251053 0.846479 0.821560 0.270385
C15   C     C_R   0.723409 0.426685 0.122316 0.616316
C16   C     C_R   0.275368 0.926050 0.877736 0.618199
C17   C     C_R   0.731381 0.392571 0.049968 0.329252
C18   C     C_R   0.270203 0.891984 0.950158 0.328772
C19   C     C_R   0.736033 0.269981 0.032253 -0.026369
C20   C     C_R   0.264595 0.769465 0.967982 -0.026669
C21   C     C_R   0.762776 0.188461 0.090459 -0.174464
C22   C     C_R   0.236544 0.688032 0.909817 -0.177005
C23   C     C_R   0.722170 0.224443 0.959866 -0.027913
C24   C     C_R   0.278554 0.723971 0.040439 -0.024913
C25   C     C_R   0.769375 0.106018 0.946693 -0.319787
C26   C     C_R   0.232044 0.605553 0.053714 -0.317049
C27   C     C_R   0.774990 0.025654 0.004203 0.439072
C28   C     C_R   0.225762 0.525239 0.996146 0.437307
C29   C     C_R   0.773749 0.067804 0.074927 0.692006
C30   C     C_R   0.226072 0.567412 0.925406 0.693082
C31   C     C_R   0.658821 0.290431 0.899006 0.742543
C32   C     C_R   0.340999 0.790221 0.101195 0.738802
C33   C     C_R   0.797666 0.152167 0.819239 0.253549
C34   C     C_R   0.212317 0.649951 0.182057 0.250103
C35   C     C_R   0.772075 0.228527 0.163385 -0.246127
C36   C     C_R   0.223498 0.728188 0.836855 -0.251784
C37   C     C_2   0.831675 0.234854 0.483612 0.131344
C38   C     C_2   0.168137 0.734773 0.516245 0.138028
C39   C     C_2   0.668159 0.265264 0.516222 0.127269
C40   C     C_2   0.332011 0.765401 0.483945 0.120498
N1    N     N_R   0.851820 0.117362 0.749201 0.167141
O21   O     O_R   0.976649 0.177429 0.716024 -0.310597
O22   O     O_R   0.793257 0.018463 0.722028 -0.239861
N2    N     N_R   0.175832 0.611478 0.253482 0.174241
O23   O     O_R   0.079337 0.675923 0.295855 -0.327666
O24   O     O_R   0.233875 0.509235 0.275697 -0.244989
N3    N     N_R   0.487873 0.213732 0.494388 0.120262
O25   O     O_R   0.386027 0.257108 0.440015 -0.292168
O26   O     O_R   0.438570 0.115445 0.522499 -0.324519
N4    N     N_R   0.512653 0.714256 0.506238 0.116545
O27   O     O_R   0.613335 0.758128 0.560659 -0.301708
O28   O     O_R   0.563385 0.615814 0.478529 -0.322870
N5    N     N_R   0.775598 0.900892 0.992117 0.185335
O29   O     O_R   0.854330 0.830234 0.039947 -0.282131
O30   O     O_R   0.671468 0.855632 0.939128 -0.347707
N6    N     N_R   0.225692 0.400417 0.008170 0.185482
O31   O     O_R   0.146792 0.329918 0.960410 -0.280992
O32   O     O_R   0.330515 0.354875 0.060968 -0.346753
F1    F     F_    0.880180 0.965102 0.862097 -0.618681
F2    F     F_    0.122869 0.464584 0.138383 -0.619699
F3    F     F_    0.533031 0.379026 0.904608 -0.592646
F4    F     F_    0.466701 0.878517 0.095520 -0.591926
N7    N     N_R   0.724297 0.386390 0.251285 0.146598
O33   O     O_R   0.609973 0.334248 0.293344 -0.342809
O34   O     O_R   0.802565 0.483951 0.272579 -0.228630
N8    N     N_R   0.250621 0.888078 0.748493 0.162096
O35   O     O_R   0.120116 0.853977 0.700330 -0.330086
O36   O     O_R   0.370604 0.968259 0.731322 -0.256841
N9    N     N_R   0.739223 0.485167 0.997559 0.141983
O37   O     O_R   0.851282 0.478711 0.944801 -0.375013
O38   O     O_R   0.650073 0.582990 0.006544 -0.312284
N10   N     N_R   0.262782 0.984832 0.002403 0.143547
O39   O     O_R   0.149768 0.979421 0.054902 -0.375649
O40   O     O_R   0.352208 0.082232 0.993142 -0.312811
F5    F     F_    0.704112 0.541122 0.138918 -0.587300
F6    F     F_    0.286245 0.040864 0.860874 -0.579851
F7    F     F_    0.786646 0.988213 0.128855 -0.616863
F8    F     F_    0.211803 0.487857 0.871493 -0.615865
N11   N     N_R   0.011833 0.286709 0.505254 0.119874
O41   O     O_R   0.114326 0.243512 0.559512 -0.291003
O42   O     O_R   0.060616 0.384972 0.476977 -0.320921
N12   N     N_R   0.987672 0.786438 0.494264 0.124874
O43   O     O_R   0.885789 0.742759 0.440096 -0.291062
O44   O     O_R   0.937780 0.884862 0.522216 -0.314528

loop_
_geom_bond_atom_site_label_1
_geom_bond_atom_site_label_2
_geom_bond_distance
_ccdc_geom_bond_type
C14   C16   1.392193 A    
N7    O33   1.300852 A    
N9    O37   1.296393 A    
O13   V3    1.724454 S    
O4    C2    1.310392 A    
V1    O19   1.720262 S    
C23   C25   1.424636 A    
N5    O29   1.301424 A    
O9    V1    2.021023 S    
N4    O28   1.301167 A    
C18   N10   1.446980 S    
C37   N11   1.431131 S    
O3    C1    1.307739 A    
C2    C35   1.480602 S    
C5    C39   1.479580 S    
N1    O22   1.300908 A    
N12   O43   1.300270 A    
C9    C25   1.419491 A    
C10   F2    1.354077 S    
O9    C5    1.296049 A    
C37   C39   1.372816 D    
O7    C3    1.311907 A    
C38   C40   1.374097 D    
O5    C7    1.302910 A    
C32   F4    1.352906 S    
O7    V1    2.019056 S    
O6    C8    1.304334 A    
C3    C38   1.480311 S    
O8    V2    2.017182 S    
N2    O23   1.300295 A    
C25   C27   1.412795 A    
N10   O40   1.300339 A    
C26   C28   1.413289 A    
O3    V1    2.023383 S    
O14   V4    1.721595 S    
C19   C23   1.443733 A    
C16   C18   1.406891 A    
C21   C29   1.419344 A    
C2    O12   1.294392 A    
C17   C19   1.447694 A    
C22   C30   1.419250 A    
C18   C20   1.447788 A    
C28   C30   1.403730 A    
O11   V3    2.018095 S    
N5    O30   1.299335 A    
O17   V3    2.019497 S    
N8    O36   1.301207 A    
C13   C15   1.392920 A    
C17   N9    1.447306 S    
C10   C26   1.420083 A    
N4    O27   1.300454 A    
C11   C31   1.398992 A    
N6    O32   1.299235 A    
O8    C4    1.311171 A    
C29   F7    1.357068 S    
N3    O26   1.301159 A    
C1    O11   1.296353 A    
C20   C22   1.436004 A    
C7    C11   1.469983 S    
C4    C37   1.479567 S    
O15   V3    2.018122 S    
C27   C29   1.403764 A    
C31   F3    1.352766 S    
C27   N5    1.451401 S    
C12   C32   1.398427 A    
C19   C21   1.435846 A    
C15   F5    1.359338 S    
N10   O39   1.296486 A    
O10   V2    2.019470 S    
O1    V3    2.017974 S    
N11   O42   1.301152 A    
C9    F1    1.353215 S    
C8    C12   1.469588 S    
C13   C35   1.405057 A    
C14   C36   1.405103 A    
C34   N2    1.439476 S    
C39   N3    1.431171 S    
O18   V4    2.021875 S    
O15   C5    1.311193 A    
O16   C6    1.311895 A    
O1    C3    1.295185 A    
C1    C36   1.479965 S    
C23   C31   1.411547 A    
V2    O20   1.723121 S    
C24   C32   1.411062 A    
O10   C6    1.295216 A    
C21   C35   1.431636 A    
C9    C33   1.399250 A    
O16   V4    2.019998 S    
C22   C36   1.432388 A    
O18   C8    1.298107 A    
C30   F8    1.357123 S    
C13   N7    1.441857 S    
C33   N1    1.436987 S    
N6    O31   1.301427 A    
C16   F6    1.359715 S    
O5    V1    2.017762 S    
O17   C7    1.300387 A    
O6    V2    2.016788 S    
C14   N8    1.441960 S    
C12   C34   1.402875 A    
O2    V4    2.019524 S    
C11   C33   1.402296 A    
N7    O34   1.300141 A    
N3    O25   1.300405 A    
V3    O19   2.177790 S    
V4    O20   2.173764 S    
N8    O35   1.301052 A    
N9    O38   1.300350 A    
N12   O44   1.301139 A    
C24   C26   1.425142 A    
O13   V1    2.172370 S    
C6    C40   1.480247 S    
O14   V2    2.176396 S    
N1    O21   1.300322 A    
O2    C4    1.296013 A    
O4    V2    2.021005 S    
C15   C17   1.407472 A    
N2    O24   1.301503 A    
C38   N12   1.431172 S    
N11   O41   1.300307 A    
C10   C34   1.400406 A    
C40   N4    1.431145 S    
C28   N6    1.451873 S    
O12   V4    2.019067 S    
C20   C24   1.444600 A    
