data_mof_unit_14901.cif
_audit_creation_date              2012-12-11T15:28:36-0500
_audit_creation_method            fapswitch 2.2
_symmetry_space_group_name_H-M    P1
_symmetry_Int_Tables_number       1
_space_group_crystal_system       triclinic
_cell_length_a                    6.962743
_cell_length_b                    19.497705
_cell_length_c                    23.42158
_cell_angle_alpha                 95.996627
_cell_angle_beta                  90.219208
_cell_angle_gamma                 89.573863
_cell_volume                      3162.15411153

loop_
_atom_site_label
_atom_site_type_symbol
_atom_type_description
_atom_site_fract_x
_atom_site_fract_y
_atom_site_fract_z
_atom_type_partial_charge
O1    O     O_R   0.617180 0.809390 0.808140 -0.521426
O2    O     O_R   0.382820 0.190610 0.191860 -0.521424
O3    O     O_R   0.293300 0.672410 0.795490 -0.531652
O4    O     O_R   0.706700 0.327590 0.204510 -0.531650
O5    O     O_R   0.117220 0.690610 0.691850 -0.518000
O6    O     O_R   0.882780 0.309390 0.308150 -0.517996
C1    C     C_R   0.462307 0.647423 0.805076 0.710782
C2    C     C_R   0.537693 0.352577 0.194924 0.710780
O7    O     O_R   0.287840 0.807750 0.814460 -0.525313
O8    O     O_R   0.712160 0.192250 0.185540 -0.525312
O9    O     O_R   0.111720 0.826910 0.710960 -0.537725
O10   O     O_R   0.888280 0.173090 0.289040 -0.537737
C3    C     C_R   0.456339 0.830766 0.833185 0.715346
C4    C     C_R   0.543661 0.169234 0.166815 0.715344
O11   O     O_R   0.622680 0.673080 0.789040 -0.536291
O12   O     O_R   0.377320 0.326920 0.210960 -0.536291
O13   O     O_3   0.448820 0.756130 0.716020 -0.359044
O14   O     O_3   0.551180 0.243870 0.283980 -0.359044
V1    V     V_3+5 0.176220 0.748860 0.756300 1.416662
V2    V     V_3+5 0.823780 0.251140 0.243700 1.416654
O15   O     O_R   0.781670 0.827580 0.704500 -0.530284
O16   O     O_R   0.218330 0.172420 0.295500 -0.530282
C5    C     C_R   0.950615 0.852156 0.694461 0.695392
C6    C     C_R   0.049384 0.147843 0.305539 0.695376
O17   O     O_R   0.787130 0.692240 0.685530 -0.526381
O18   O     O_R   0.212870 0.307760 0.314470 -0.526382
C7    C     C_R   0.956384 0.669493 0.666667 0.714852
C8    C     C_R   0.043615 0.330508 0.333333 0.714831
V3    V     V_3+5 0.675510 0.751130 0.743690 1.414394
V4    V     V_3+5 0.324490 0.248870 0.256310 1.414389
O19   O     O_3   0.952780 0.743870 0.783980 -0.358982
O20   O     O_3   0.047220 0.256130 0.216020 -0.358977
C9    C     C_1   0.967525 0.617932 0.614299 -0.214317
C10   C     C_1   0.032474 0.382071 0.385699 -0.214307
C11   C     C_1   0.978906 0.574540 0.571369 -0.019838
C12   C     C_1   0.021090 0.425464 0.428629 -0.019810
C13   C     C_1   0.993504 0.522200 0.521091 -0.034962
C14   C     C_1   0.006491 0.477804 0.478906 -0.034952
C15   C     C_R   0.964855 0.915078 0.664693 -0.061682
C16   C     C_R   0.035142 0.084912 0.335296 -0.061727
C17   C     C_R   0.085339 0.031293 0.667084 -0.163526
C18   C     C_R   0.914686 0.968690 0.332883 -0.163611
C19   C     C_R   0.031102 0.975416 0.695589 -0.169675
C20   C     C_R   0.968882 0.024581 0.304390 -0.169731
C21   C     C_R   0.943436 0.912789 0.604778 -0.224251
C22   C     C_R   0.056594 0.087181 0.395209 -0.224187
C23   C     C_R   0.982963 0.971393 0.575021 0.073784
C24   C     C_R   0.017102 0.028561 0.424951 0.073822
C25   C     C_R   0.069716 0.028531 0.607113 0.116498
C26   C     C_R   0.930358 0.971428 0.392851 0.116441
C27   C     C_R   0.954083 0.973351 0.514206 0.001479
C28   C     C_R   0.046026 0.026584 0.485760 0.001487
C29   C     C_R   0.164339 0.075188 0.519298 -0.003255
C30   C     C_R   0.835841 0.924729 0.480659 -0.003219
C31   C     C_R   0.158150 0.079311 0.579139 -0.240105
C32   C     C_R   0.842004 0.920624 0.420818 -0.240111
H1    H     H_    0.240967 0.118710 0.604238 0.126156
H2    H     H_    0.759232 0.881216 0.395715 0.126181
H3    H     H_    0.087261 0.136786 0.418041 0.125317
H4    H     H_    0.912814 0.863173 0.581961 0.125339
H5    H     H_    0.947619 0.022342 0.258379 0.108763
H6    H     H_    0.052333 0.977672 0.741602 0.108734
H7    H     H_    0.148513 0.075614 0.691815 0.115288
H8    H     H_    0.851511 0.924373 0.308145 0.115313
C33   C     C_R   0.469529 0.583782 0.834404 -0.090392
C34   C     C_R   0.530471 0.416220 0.165598 -0.090393
C35   C     C_R   0.419316 0.460723 0.833395 -0.198594
C36   C     C_R   0.580685 0.539279 0.166606 -0.198593
C37   C     C_R   0.430813 0.519204 0.803791 -0.005160
C38   C     C_R   0.569190 0.480798 0.196211 -0.005157
C39   C     C_R   0.496747 0.588345 0.894283 -0.230792
C40   C     C_R   0.503248 0.411657 0.105719 -0.230789
C41   C     C_R   0.484866 0.529108 0.924994 0.089078
C42   C     C_R   0.515129 0.470894 0.075007 0.089076
C43   C     C_R   0.445021 0.465065 0.892984 0.123708
C44   C     C_R   0.554976 0.534937 0.107018 0.123708
C45   C     C_R   0.508534 0.531086 0.986166 0.060885
C46   C     C_R   0.491461 0.468916 0.013836 0.060884
C47   C     C_R   0.451452 0.406927 0.979401 -0.187325
C48   C     C_R   0.548543 0.593075 0.020601 -0.187326
C49   C     C_R   0.429382 0.405246 0.920407 -0.194913
C50   C     C_R   0.570615 0.594755 0.079594 -0.194914
H9    H     H_    0.398564 0.356247 0.895889 0.122929
H10   H     H_    0.601435 0.643754 0.104113 0.122930
H11   H     H_    0.477510 0.360855 0.084474 0.099604
H12   H     H_    0.522483 0.639147 0.915528 0.099604
H13   H     H_    0.390056 0.411135 0.809533 0.117937
H14   H     H_    0.609946 0.588867 0.190468 0.117936
H15   H     H_    0.435540 0.358278 0.996681 0.123160
H16   H     H_    0.564457 0.641723 0.003321 0.123160
C51   C     C_1   0.466750 0.882822 0.885245 -0.219228
C52   C     C_1   0.533250 0.117177 0.114755 -0.219229
C53   C     C_1   0.478257 0.926338 0.928069 -0.002947
C54   C     C_1   0.521743 0.073662 0.071931 -0.002947
C55   C     C_1   0.493438 0.978139 0.978680 -0.004362
C56   C     C_1   0.506561 0.021860 0.021320 -0.004362
C57   C     C_R   0.315559 0.116321 0.494278 0.091878
C58   C     C_R   0.446173 0.084105 0.454187 -0.120181
C59   C     C_R   0.576387 0.123534 0.426613 -0.109098
C60   C     C_R   0.584870 0.194819 0.440805 -0.081009
C61   C     C_R   0.460895 0.227007 0.482259 -0.126338
C62   C     C_R   0.326198 0.188080 0.508841 -0.156092
H17   H     H_    0.441967 0.028849 0.442688 0.121896
H18   H     H_    0.668073 0.098827 0.393483 0.133545
H19   H     H_    0.686560 0.225116 0.419408 0.106060
H20   H     H_    0.466950 0.282293 0.493103 0.113625
H21   H     H_    0.227044 0.214050 0.539548 0.113075
C63   C     C_R   0.684743 0.883532 0.505663 0.091870
C64   C     C_R   0.674456 0.811762 0.491130 -0.156161
C65   C     C_R   0.539860 0.772776 0.517694 -0.126335
C66   C     C_R   0.415613 0.804920 0.559092 -0.081040
C67   C     C_R   0.423742 0.876217 0.573251 -0.109162
C68   C     C_R   0.553891 0.915701 0.545704 -0.120152
H22   H     H_    0.773806 0.785832 0.460461 0.113118
H23   H     H_    0.534084 0.717481 0.506877 0.113637
H24   H     H_    0.313987 0.774580 0.580472 0.106074
H25   H     H_    0.331833 0.900892 0.606339 0.133490
H26   H     H_    0.557843 0.970963 0.557179 0.121914
C69   C     C_R   0.598157 0.489283 0.259229 0.079461
C70   C     C_R   0.451395 0.472303 0.296168 -0.120955
C71   C     C_R   0.474593 0.485067 0.355629 -0.127967
C72   C     C_R   0.643236 0.515022 0.378600 -0.086647
C73   C     C_R   0.790424 0.531629 0.342183 -0.116550
C74   C     C_R   0.768224 0.518880 0.282701 -0.140605
H27   H     H_    0.317621 0.450806 0.278983 0.104308
H28   H     H_    0.361014 0.472677 0.383986 0.120746
H29   H     H_    0.659393 0.525540 0.424636 0.114104
H30   H     H_    0.921336 0.554688 0.360038 0.115042
H31   H     H_    0.882734 0.532550 0.254920 0.110202
C75   C     C_R   0.401853 0.510720 0.740773 0.079465
C76   C     C_R   0.548631 0.527690 0.703835 -0.120952
C77   C     C_R   0.525435 0.514929 0.644374 -0.127985
C78   C     C_R   0.356778 0.484987 0.621401 -0.086649
C79   C     C_R   0.209575 0.468390 0.657817 -0.116549
C80   C     C_R   0.231773 0.481135 0.717299 -0.140608
H32   H     H_    0.682413 0.549178 0.721022 0.104301
H33   H     H_    0.639026 0.527312 0.616019 0.120745
H34   H     H_    0.340623 0.474472 0.575365 0.114114
H35   H     H_    0.078653 0.445342 0.639960 0.115044
H36   H     H_    0.117251 0.467474 0.745079 0.110200

loop_
_geom_bond_atom_site_label_1
_geom_bond_atom_site_label_2
_ccdc_geom_bond_type
C21   H4    S    
C2    C34   S    
C61   C62   A    
O6    C8    A    
C22   H3    S    
O13   V3    S    
C66   C67   A    
O4    C2    A    
V1    O19   S    
C40   H11   S    
C73   H30   S    
C73   C74   A    
C23   C25   A    
C69   C74   A    
C70   C71   A    
C16   C22   A    
O9    V1    S    
C60   H19   S    
C42   C44   A    
C11   C13   S    
O3    C1    A    
C67   H25   S    
C9    C11   T    
C33   C37   A    
C53   C55   S    
C1    C33   S    
O12   V4    S    
C58   H17   S    
C57   C58   A    
C63   C64   A    
C21   C23   A    
C72   H29   S    
O7    C3    A    
C65   C66   A    
C6    C16   S    
O5    C7    A    
O7    V1    S    
C34   C40   A    
C55   C56   T    
O8    V2    S    
C77   C78   A    
O3    V1    S    
C66   H24   S    
O14   V4    S    
C10   C12   T    
C57   C62   A    
C15   C21   A    
C24   C26   A    
C59   H18   S    
C8    C10   S    
C78   H34   S    
C2    O12   A    
C3    C51   S    
C17   C19   A    
C18   C20   A    
C17   C25   A    
C67   C68   A    
C49   H9    S    
O11   V3    S    
C22   C24   A    
C29   C31   A    
O17   V3    S    
C80   H36   S    
C30   C32   A    
C27   C28   A    
C40   C42   A    
C76   H32   S    
O8    C4    A    
C44   C50   A    
C79   H35   S    
C39   C41   A    
C70   H27   S    
C37   C75   S    
C15   C19   A    
C1    O11   A    
C29   C57   S    
C77   H33   S    
C45   C46   A    
O15   V3    S    
C26   C32   A    
C33   C39   A    
C35   C37   A    
C63   C68   A    
C13   C14   T    
C51   C53   T    
C39   H12   S    
C59   C60   A    
C24   C28   A    
C38   C69   S    
O10   V2    S    
C52   C54   T    
C62   H21   S    
C54   C56   S    
C4    C52   S    
C71   C72   A    
C64   H22   S    
C18   C26   A    
C48   C50   A    
C75   C80   A    
O18   V4    S    
C50   H10   S    
O15   C5    A    
C78   C79   A    
C36   H14   S    
O16   C6    A    
O1    C3    A    
C41   C43   A    
C76   C77   A    
C18   H8    S    
C28   C29   A    
C47   C49   A    
V2    O20   S    
C45   C48   A    
C61   H20   S    
C41   C45   A    
O16   V4    S    
C46   C47   A    
C35   H13   S    
C43   C49   A    
C23   C27   A    
C69   C70   A    
C79   C80   A    
O5    V1    S    
C20   H5    S    
C36   C44   A    
O6    V2    S    
O10   C6    A    
O18   C8    A    
C30   C63   S    
O2    V4    S    
C27   C30   A    
C31   H1    S    
C75   C76   A    
C71   H28   S    
V3    O19   S    
C25   C31   A    
C64   C65   A    
C12   C14   S    
V4    O20   S    
O1    V3    S    
C34   C38   A    
C5    C15   S    
O9    C5    A    
C60   C61   A    
O13   V1    S    
C32   H2    S    
C74   H31   S    
O14   V2    S    
C48   H16   S    
O2    C4    A    
C47   H15   S    
C68   H26   S    
O4    V2    S    
C16   C20   A    
C35   C43   A    
C36   C38   A    
C58   C59   A    
C42   C46   A    
C7    C9    S    
C17   H7    S    
C72   C73   A    
C65   H23   S    
C19   H6    S    
O17   C7    A    
