data_mof_unit_12959.cif
_audit_creation_date              2012-12-11T14:01:16-0500
_audit_creation_method            fapswitch 2.2
_symmetry_space_group_name_H-M    P1
_symmetry_Int_Tables_number       1
_space_group_crystal_system       triclinic
_cell_length_a                    19.438921
_cell_length_b                    11.054466
_cell_length_c                    18.861285
_cell_angle_alpha                 90.047432
_cell_angle_beta                  89.322768
_cell_angle_gamma                 89.550904
_cell_volume                      4052.63356339

loop_
_atom_site_label
_atom_site_type_symbol
_atom_type_description
_atom_site_fract_x
_atom_site_fract_y
_atom_site_fract_z
_atom_type_partial_charge
C1    C     C_R   0.272352 0.041372 0.851946 0.571935
C2    C     C_R   0.728712 0.046860 0.150655 0.555889
C3    C     C_R   0.772352 0.541372 0.851946 0.571936
C4    C     C_R   0.228712 0.546860 0.150655 0.555887
C5    C     C_R   0.490735 0.059518 0.072750 0.330041
C6    C     C_R   0.516280 0.060638 0.924280 0.349344
C7    C     C_R   0.990735 0.559518 0.072750 0.330041
C8    C     C_R   0.016280 0.560638 0.924280 0.349344
C9    C     C_R   0.996543 0.668059 0.034384 -0.133006
C10   C     C_R   0.009873 0.667523 0.962428 -0.109828
C11   C     C_R   0.496543 0.168059 0.034384 -0.133008
C12   C     C_R   0.509873 0.167523 0.962428 -0.109829
C13   C     C_2   0.247490 0.582548 0.920201 0.281161
C14   C     C_2   0.750393 0.592420 0.076389 0.291635
C15   C     C_2   0.747490 0.082547 0.920201 0.281159
C16   C     C_2   0.250393 0.092420 0.076390 0.291635
C17   C     C_2   0.258058 0.615715 0.092709 0.264520
C18   C     C_2   0.739462 0.600292 0.911998 0.321586
C19   C     C_2   0.758058 0.115715 0.092710 0.264521
C20   C     C_2   0.239462 0.100292 0.911998 0.321586
C21   C     C_2   0.291310 0.554141 0.040962 0.205567
C22   C     C_2   0.709667 0.528084 0.961052 0.260817
C23   C     C_2   0.791310 0.054141 0.040962 0.205567
C24   C     C_2   0.209667 0.028084 0.961052 0.260816
C25   C     C_2   0.294128 0.610323 0.970390 0.263263
C26   C     C_2   0.696811 0.574851 0.032887 0.229741
C27   C     C_2   0.794127 0.110323 0.970390 0.263261
C28   C     C_2   0.196811 0.074851 0.032887 0.229741
C29   C     C_2   0.490999 0.828183 0.574867 0.263081
C30   C     C_2   0.482836 0.840273 0.411548 0.229189
C31   C     C_2   0.991003 0.328184 0.574870 0.263077
C32   C     C_2   0.982838 0.340272 0.411549 0.229178
C33   C     C_2   0.472197 0.745597 0.455444 0.172429
C34   C     C_2   0.450491 0.767401 0.528660 0.178590
C35   C     C_2   0.972205 0.245597 0.455447 0.172431
C36   C     C_2   0.950496 0.267404 0.528662 0.178591
C37   C     C_2   0.249356 0.563965 0.583863 -0.023020
C38   C     C_2   0.747684 0.607647 0.428203 -0.027409
C39   C     C_2   0.749360 0.063971 0.583860 -0.022994
C40   C     C_2   0.247685 0.107646 0.428202 -0.027409
C41   C     C_2   0.239213 0.586807 0.422861 0.267856
C42   C     C_2   0.746525 0.606482 0.587185 0.245406
C43   C     C_2   0.739209 0.086800 0.422865 0.267847
C44   C     C_2   0.246525 0.106482 0.587184 0.245409
C45   C     C_R   0.470429 0.822489 0.853364 0.583843
C46   C     C_R   0.529740 0.822711 0.146094 0.593826
C47   C     C_R   0.970429 0.322489 0.853364 0.583842
C48   C     C_R   0.029740 0.322711 0.146094 0.593826
C49   C     C_2   0.199586 0.530605 0.471488 -0.062302
C50   C     C_2   0.794237 0.650234 0.543068 -0.110500
C51   C     C_2   0.699576 0.030604 0.471490 -0.062276
C52   C     C_2   0.294238 0.150233 0.543068 -0.110502
C53   C     C_2   0.193376 0.576391 0.544188 0.296631
C54   C     C_2   0.778155 0.687370 0.472054 0.270506
C55   C     C_2   0.693372 0.076375 0.544193 0.296600
C56   C     C_2   0.278157 0.187369 0.472054 0.270501
C57   C     C_R   0.260414 0.636158 0.850608 0.591827
C58   C     C_R   0.738006 0.642545 0.146963 0.591375
C59   C     C_R   0.760414 0.136158 0.850608 0.591832
C60   C     C_R   0.238006 0.142544 0.146963 0.591374
C61   C     C_R   0.271909 0.047897 0.650355 0.534994
C62   C     C_R   0.726861 0.047032 0.350818 0.528046
C63   C     C_R   0.771909 0.547897 0.650355 0.534995
C64   C     C_R   0.226862 0.547035 0.350816 0.528039
C65   C     C_R   0.469873 0.823388 0.648066 0.623427
C66   C     C_R   0.527584 0.824586 0.350102 0.610965
C67   C     C_R   0.969875 0.323388 0.648067 0.623426
C68   C     C_R   0.027584 0.324586 0.350103 0.610970
C69   C     C_R   0.260748 0.634774 0.647433 0.582120
C70   C     C_R   0.737881 0.643219 0.355549 0.549372
C71   C     C_R   0.760748 0.134773 0.647433 0.582113
C72   C     C_R   0.237881 0.143219 0.355548 0.549370
C73   C     C_R   0.500455 0.833185 0.073758 -0.043530
C74   C     C_R   0.500813 0.833699 0.924466 -0.030401
C75   C     C_R   0.000455 0.333185 0.073758 -0.043530
C76   C     C_R   0.000813 0.333699 0.924466 -0.030401
C77   C     C_R   0.500685 0.946703 0.036436 -0.090356
C78   C     C_R   0.505620 0.946903 0.960354 -0.101096
C79   C     C_R   0.000685 0.446703 0.036436 -0.090356
C80   C     C_R   0.005620 0.446903 0.960354 -0.101096
C81   C     C_R   0.505862 0.725033 0.961978 0.286954
C82   C     C_R   0.494116 0.723377 0.035506 0.256937
C83   C     C_R   0.005862 0.225033 0.961978 0.286953
C84   C     C_R   0.994116 0.223377 0.035506 0.256937
Cr1   Cr    Cr6+3 0.230530 0.836340 0.748870 1.069158
Cr2   Cr    Cr6+3 0.769470 0.836340 0.251130 1.039756
Cr3   Cr    Cr6+3 0.730530 0.336340 0.748870 1.069145
Cr4   Cr    Cr6+3 0.269470 0.336340 0.251130 1.039756
Cr5   Cr    Cr6+3 0.387420 0.989430 0.750820 1.070151
Cr6   Cr    Cr6+3 0.612580 0.989430 0.249180 1.010447
Cr7   Cr    Cr6+3 0.887420 0.489430 0.750820 1.070152
Cr8   Cr    Cr6+3 0.112580 0.489430 0.249180 1.010442
Cr9   Cr    Cr6+3 0.385640 0.677860 0.749230 1.035042
Cr10  Cr    Cr6+3 0.614360 0.677860 0.250770 1.060771
Cr11  Cr    Cr6+3 0.885640 0.177860 0.749230 1.035044
Cr12  Cr    Cr6+3 0.114360 0.177860 0.250770 1.060773
H1    H     H_    0.166764 0.455629 0.456668 0.110977
H2    H     H_    0.847957 0.656277 0.557814 0.101295
H3    H     H_    0.666745 0.955644 0.456666 0.110997
H4    H     H_    0.347957 0.156276 0.557814 0.101295
H5    H     H_    0.293122 0.512387 0.563412 0.068970
H6    H     H_    0.732457 0.517880 0.445500 0.108051
H7    H     H_    0.793131 0.012422 0.563398 0.068990
H8    H     H_    0.232457 0.017880 0.445500 0.108071
H9    H     H_    0.987895 0.755063 0.059160 0.096153
H10   H     H_    0.012523 0.752901 0.934640 0.090993
H11   H     H_    0.487895 0.255063 0.059160 0.096152
H12   H     H_    0.512523 0.252901 0.934640 0.090994
O1    O     O_R   0.215090 0.709860 0.828130 -0.505067
O2    O     O_R   0.784910 0.709860 0.171870 -0.470953
O3    O     O_R   0.715090 0.209860 0.828130 -0.505061
O4    O     O_R   0.284910 0.209860 0.171870 -0.470953
O5    O     O_R   0.445660 0.919250 0.676780 -0.487338
O6    O     O_R   0.554340 0.919250 0.323220 -0.487216
O7    O     O_R   0.945660 0.419250 0.676780 -0.487342
O8    O     O_R   0.054340 0.419250 0.323220 -0.487221
O9    O     O_R   0.456260 0.718170 0.670000 -0.517943
O10   O     O_R   0.543740 0.718170 0.330000 -0.475650
O11   O     O_R   0.956260 0.218170 0.670000 -0.517939
O12   O     O_R   0.043740 0.218170 0.330000 -0.475648
O13   O     O_R   0.320940 0.626760 0.674370 -0.495220
O14   O     O_R   0.679060 0.626760 0.325630 -0.505206
O15   O     O_R   0.820940 0.126760 0.674370 -0.495221
O16   O     O_R   0.179060 0.126760 0.325630 -0.505201
O17   O     O_3   0.334530 0.834540 0.749640 -0.265678
O18   O     O_3   0.665470 0.834540 0.250360 -0.284473
O19   O     O_3   0.834530 0.334540 0.749640 -0.265676
O20   O     O_3   0.165470 0.334540 0.250360 -0.284472
O21   O     O_R   0.236990 0.958390 0.823710 -0.491758
O22   O     O_R   0.763010 0.958390 0.176290 -0.484551
O23   O     O_R   0.736990 0.458390 0.823710 -0.491755
O24   O     O_R   0.263010 0.458390 0.176290 -0.484551
O25   O     O_R   0.332380 0.074750 0.830850 -0.517549
O26   O     O_R   0.667620 0.074750 0.169150 -0.538817
O27   O     O_R   0.832380 0.574750 0.830850 -0.517548
O28   O     O_R   0.167620 0.574750 0.169150 -0.538815
O29   O     O_R   0.445800 0.917770 0.825070 -0.458579
O30   O     O_R   0.554200 0.917770 0.174930 -0.477109
O31   O     O_R   0.945800 0.417770 0.825070 -0.458579
O32   O     O_R   0.054200 0.417770 0.174930 -0.477109
O33   O     O_R   0.456410 0.716580 0.829970 -0.481129
O34   O     O_R   0.543590 0.716580 0.170030 -0.462352
O35   O     O_R   0.956410 0.216580 0.829970 -0.481130
O36   O     O_R   0.043590 0.216580 0.170030 -0.462353
O37   O     O_R   0.321080 0.625290 0.822650 -0.516525
O38   O     O_R   0.678920 0.625290 0.177350 -0.483455
O39   O     O_R   0.821080 0.125290 0.822650 -0.516524
O40   O     O_R   0.178920 0.125290 0.177350 -0.483456
O41   O     O_R   0.214930 0.711450 0.668160 -0.453669
O42   O     O_R   0.785070 0.711450 0.331840 -0.477149
O43   O     O_R   0.714930 0.211450 0.668160 -0.453697
O44   O     O_R   0.285070 0.211450 0.331840 -0.477149
O45   O     O_R   0.236850 0.959870 0.675420 -0.481881
O46   O     O_R   0.763150 0.959870 0.324580 -0.493445
O47   O     O_R   0.736850 0.459870 0.675420 -0.481892
O48   O     O_R   0.263150 0.459870 0.324580 -0.493446
O49   O     O_R   0.332230 0.076350 0.670880 -0.555215
O50   O     O_R   0.667770 0.076350 0.329120 -0.548589
O51   O     O_R   0.832230 0.576350 0.670880 -0.555211
O52   O     O_R   0.167770 0.576350 0.329120 -0.548592
O53   O     O_3   0.532973 0.625863 0.925365 -0.574714
C85   C     C_3   0.488473 0.526260 0.926449 -0.084538
H13   H     H_    0.433488 0.552380 0.929115 0.179055
H14   H     H_    0.502743 0.465234 0.970355 0.112321
H15   H     H_    0.495981 0.474786 0.876416 0.120748
O54   O     O_3   0.487105 0.611346 0.069000 -0.552448
C86   C     C_3   0.430856 0.608673 0.117785 -0.102437
H16   H     H_    0.394703 0.686658 0.114018 0.055964
H17   H     H_    0.448146 0.600493 0.173218 0.153210
H18   H     H_    0.403533 0.523369 0.110907 0.166867
O55   O     O_3   0.032973 0.125863 0.925365 -0.574715
C87   C     C_3   0.988473 0.026260 0.926449 -0.084538
H19   H     H_    0.933488 0.052380 0.929116 0.179054
H20   H     H_    0.002743 0.965234 0.970355 0.112321
H21   H     H_    0.995980 0.974786 0.876416 0.120748
O56   O     O_3   0.987106 0.111346 0.069000 -0.552447
C88   C     C_3   0.930857 0.108672 0.117785 -0.102438
H22   H     H_    0.894703 0.186658 0.114018 0.055966
H23   H     H_    0.948146 0.100493 0.173218 0.153209
H24   H     H_    0.903534 0.023368 0.110907 0.166867
O57   O     O_3   0.133632 0.630372 0.572008 -0.518633
C89   C     C_3   0.089759 0.673779 0.518460 -0.054462
H25   H     H_    0.067640 0.598066 0.487603 0.178536
H26   H     H_    0.116989 0.738300 0.482808 0.142371
H27   H     H_    0.046259 0.723479 0.543950 0.136995
O58   O     O_3   0.790652 0.806244 0.451191 -0.552048
C90   C     C_3   0.859994 0.837322 0.462548 -0.113230
H28   H     H_    0.896174 0.766858 0.441632 0.132074
H29   H     H_    0.869394 0.854638 0.519614 0.096036
H30   H     H_    0.870965 0.922523 0.433659 0.159100
O59   O     O_3   0.633618 0.130282 0.572033 -0.518655
C91   C     C_3   0.589761 0.173791 0.518504 -0.054448
H31   H     H_    0.567653 0.098145 0.487589 0.178496
H32   H     H_    0.616999 0.238379 0.482908 0.142368
H33   H     H_    0.546251 0.223435 0.544012 0.136996
O60   O     O_3   0.290654 0.306243 0.451191 -0.552049
C92   C     C_3   0.359997 0.337318 0.462547 -0.113233
H34   H     H_    0.396175 0.266852 0.441630 0.132077
H35   H     H_    0.369397 0.354635 0.519612 0.096034
H36   H     H_    0.370969 0.422517 0.433656 0.159100
O61   O     O_3   0.271678 0.694936 0.440308 -0.598936
C93   C     C_3   0.304959 0.748363 0.381427 -0.131373
H37   H     H_    0.331069 0.831414 0.399534 0.150141
H38   H     H_    0.267197 0.776517 0.340650 0.108914
H39   H     H_    0.344809 0.686577 0.358408 0.129853
O62   O     O_3   0.678776 0.594148 0.565770 -0.573071
C94   C     C_3   0.634021 0.644141 0.617511 -0.095409
H40   H     H_    0.646268 0.740672 0.628062 0.131969
H41   H     H_    0.634241 0.591598 0.667628 0.124763
H42   H     H_    0.580983 0.639713 0.597003 0.164299
O63   O     O_3   0.771684 0.194918 0.440316 -0.598964
C95   C     C_3   0.804963 0.248350 0.381435 -0.131374
H43   H     H_    0.831074 0.331397 0.399544 0.150150
H44   H     H_    0.767198 0.276511 0.340661 0.108918
H45   H     H_    0.844810 0.186564 0.358411 0.129851
O64   O     O_3   0.178776 0.094147 0.565769 -0.573054
C96   C     C_3   0.134020 0.144134 0.617511 -0.095391
H46   H     H_    0.146268 0.240664 0.628067 0.131956
H47   H     H_    0.134238 0.091585 0.667625 0.124767
H48   H     H_    0.080983 0.139711 0.597001 0.164307
O65   O     O_3   0.461411 0.058927 0.140787 -0.552226
C97   C     C_3   0.480551 0.159210 0.182489 -0.058906
H49   H     H_    0.473413 0.135059 0.239164 0.143229
H50   H     H_    0.446278 0.237822 0.171781 0.122148
H51   H     H_    0.535636 0.183465 0.174775 0.120714
O66   O     O_3   0.524270 0.077239 0.851418 -0.548351
C98   C     C_3   0.580357 0.013027 0.820994 -0.059889
H52   H     H_    0.598279 0.933765 0.851305 0.103064
H53   H     H_    0.623089 0.075439 0.811602 0.178597
H54   H     H_    0.565169 0.979773 0.767968 0.138046
O67   O     O_3   0.961411 0.558927 0.140787 -0.552226
C99   C     C_3   0.980551 0.659209 0.182490 -0.058907
H55   H     H_    0.973414 0.635058 0.239164 0.143230
H56   H     H_    0.946279 0.737822 0.171782 0.122147
H57   H     H_    0.035637 0.683464 0.174775 0.120715
O68   O     O_3   0.024270 0.577239 0.851419 -0.548350
C100  C     C_3   0.080357 0.513027 0.820994 -0.059894
H58   H     H_    0.098278 0.433765 0.851305 0.103065
H59   H     H_    0.123089 0.575439 0.811603 0.178594
H60   H     H_    0.065169 0.479774 0.767968 0.138037
O69   O     O_3   0.307938 0.431665 0.052049 -0.603485
C101  C     C_3   0.353116 0.381208 0.000843 -0.112474
H61   H     H_    0.340456 0.403739 0.945240 0.100143
H62   H     H_    0.350328 0.281947 0.004402 0.240717
H63   H     H_    0.406177 0.404285 0.014051 0.102381
O70   O     O_3   0.710808 0.403168 0.951562 -0.564668
C102  C     C_3   0.644062 0.357344 0.959460 -0.069147
H64   H     H_    0.608302 0.403241 0.922738 0.107125
H65   H     H_    0.626130 0.360646 0.015559 0.141806
H66   H     H_    0.644722 0.261399 0.944165 0.225435
O71   O     O_3   0.807937 0.931665 0.052049 -0.603485
C103  C     C_3   0.853116 0.881208 0.000843 -0.112474
H67   H     H_    0.840456 0.903740 0.945240 0.100142
H68   H     H_    0.850328 0.781947 0.004401 0.240717
H69   H     H_    0.906176 0.904285 0.014051 0.102380
O72   O     O_3   0.210807 0.903168 0.951562 -0.564668
C104  C     C_3   0.144061 0.857345 0.959457 -0.069145
H70   H     H_    0.108302 0.903244 0.922734 0.107126
H71   H     H_    0.126127 0.860647 0.015556 0.141802
H72   H     H_    0.144721 0.761401 0.944161 0.225435
O73   O     O_3   0.342199 0.698828 0.956193 -0.718921
H73   H     H_    0.364632 0.719837 0.001044 0.298912
O74   O     O_3   0.630618 0.592180 0.057310 -0.678918
H74   H     H_    0.599880 0.559655 0.021283 0.365533
O75   O     O_3   0.842198 0.198829 0.956194 -0.718921
H75   H     H_    0.864632 0.219837 0.001044 0.298913
O76   O     O_3   0.130618 0.092179 0.057310 -0.678918
H76   H     H_    0.099880 0.059656 0.021282 0.365534
O77   O     O_3   0.236594 0.734676 0.082804 -0.590804
C105  C     C_3   0.242203 0.800552 0.147093 -0.145529
H77   H     H_    0.296177 0.801657 0.165933 0.073911
H78   H     H_    0.207376 0.769151 0.189969 0.145417
H79   H     H_    0.225109 0.893856 0.137824 0.141902
O78   O     O_3   0.737921 0.725368 0.918615 -0.629342
C106  C     C_3   0.735986 0.781728 0.851008 -0.157209
H80   H     H_    0.699398 0.736958 0.814447 0.100358
H81   H     H_    0.788347 0.786554 0.827111 0.143098
H82   H     H_    0.717729 0.875540 0.856368 0.132199
O79   O     O_3   0.736596 0.234677 0.082805 -0.590809
C107  C     C_3   0.742204 0.300550 0.147095 -0.145529
H83   H     H_    0.796178 0.301647 0.165938 0.073912
H84   H     H_    0.707373 0.269153 0.189968 0.145424
H85   H     H_    0.725116 0.393858 0.137826 0.141895
O80   O     O_3   0.237922 0.225368 0.918615 -0.629341
C108  C     C_3   0.235986 0.281728 0.851008 -0.157211
H86   H     H_    0.199397 0.236959 0.814448 0.100357
H87   H     H_    0.288347 0.286554 0.827110 0.143097
H88   H     H_    0.217729 0.375541 0.856368 0.132197
O81   O     O_3   0.179211 0.550795 0.935427 -0.652806
C109  C     C_3   0.170013 0.452621 0.982264 -0.120794
H89   H     H_    0.214615 0.393745 0.987104 0.223891
H90   H     H_    0.150936 0.485317 0.034405 0.159454
H91   H     H_    0.131599 0.390630 0.960960 0.147804
O82   O     O_3   0.817500 0.587590 0.050965 -0.595994
C110  C     C_3   0.839521 0.466572 0.043850 -0.131816
H92   H     H_    0.798779 0.401282 0.034000 0.204935
H93   H     H_    0.866313 0.437055 0.092310 0.158857
H94   H     H_    0.873357 0.460220 0.996630 0.162498
O83   O     O_3   0.679211 0.050793 0.935427 -0.652808
C111  C     C_3   0.670013 0.952620 0.982264 -0.120796
H95   H     H_    0.714615 0.893745 0.987104 0.223892
H96   H     H_    0.650936 0.985318 0.034404 0.159453
H97   H     H_    0.631599 0.890629 0.960961 0.147806
O84   O     O_3   0.317500 0.087590 0.050965 -0.595993
C112  C     C_3   0.339521 0.966572 0.043850 -0.131816
H98   H     H_    0.298779 0.901281 0.034000 0.204933
H99   H     H_    0.366314 0.937054 0.092309 0.158856
H100  H     H_    0.373357 0.960220 0.996629 0.162498
O85   O     O_3   0.486001 0.627808 0.434077 -0.706006
H101  H     H_    0.479349 0.572950 0.475158 0.317827
O86   O     O_3   0.389315 0.717469 0.552185 -0.688206
H102  H     H_    0.371902 0.663458 0.514745 0.349452
O87   O     O_3   0.986017 0.127809 0.434085 -0.705995
H103  H     H_    0.979366 0.072953 0.475168 0.317831
O88   O     O_3   0.889319 0.217473 0.552184 -0.688209
H104  H     H_    0.871910 0.163456 0.514746 0.349451
O89   O     O_3   0.462047 0.957503 0.427974 -0.749940
H105  H     H_    0.423107 0.955665 0.462324 0.316545
O90   O     O_3   0.552898 0.882935 0.558320 -0.740294
H106  H     H_    0.570636 0.852419 0.512356 0.321215
O91   O     O_3   0.962043 0.457500 0.427971 -0.749969
H107  H     H_    0.923106 0.455659 0.462324 0.316547
O92   O     O_3   0.052904 0.382934 0.558326 -0.740368
H108  H     H_    0.070639 0.352432 0.512357 0.321211

loop_
_geom_bond_atom_site_label_1
_geom_bond_atom_site_label_2
_ccdc_geom_bond_type
C57   O37   A    
C109  H91   S    
C70   O42   A    
Cr5   O17   S    
C31   C67   S    
C2    O26   A    
Cr7   O19   S    
C3    O23   A    
C7    C79   A    
O80   C108  S    
Cr2   O2    S    
Cr9   O13   S    
C47   C76   S    
C1    O21   A    
Cr6   O26   S    
C47   O35   A    
C48   O36   A    
O78   C106  S    
C92   H35   S    
C89   H25   S    
Cr1   O21   S    
C57   O1    A    
C35   C36   S    
C83   O55   S    
C94   H42   S    
C59   O3    A    
C110  H94   S    
C43   O63   S    
C87   H21   S    
C35   O87   S    
C15   O83   S    
C58   O2    A    
C72   O16   A    
C81   O53   S    
C76   C83   A    
C41   C49   D    
C85   H14   S    
Cr5   O5    S    
C101  H63   S    
C93   H37   S    
O92   H108  S    
C91   H33   S    
O71   C103  S    
C17   O77   S    
C12   H12   S    
O62   C94   S    
Cr11  O11   S    
O57   C89   S    
C17   C21   D    
C89   H27   S    
C55   O59   S    
C19   C23   D    
C29   O90   S    
Cr12  O36   S    
C85   H15   S    
C15   C27   D    
C98   H52   S    
C16   O84   S    
C99   H56   S    
Cr6   O18   S    
C14   C26   D    
Cr8   O8    S    
C68   O8    A    
Cr10  O14   S    
C105  H78   S    
C74   C81   A    
C5    C77   A    
C111  H95   S    
C21   O69   S    
C102  H66   S    
C1    C20   S    
C2    C19   S    
C44   O64   S    
C65   O5    A    
O60   C92   S    
Cr5   O49   S    
Cr8   O52   S    
Cr2   O46   S    
C108  H87   S    
C49   C53   S    
C51   C55   S    
Cr6   O6    S    
C33   O85   S    
C49   H1    S    
C95   H43   S    
C8    C10   A    
O91   H107  S    
C73   C77   A    
C31   C36   D    
C60   O40   A    
O58   C90   S    
C75   C79   A    
C103  H67   S    
C59   O39   A    
Cr2   O18   S    
C63   O51   A    
C86   H17   S    
C71   O15   A    
Cr2   O42   S    
O73   H73   S    
C75   C84   A    
C6    C78   A    
C13   C57   S    
C9    H9    S    
O68   C100  S    
C104  H70   S    
C16   C60   S    
Cr3   O23   S    
C24   O72   S    
C112  H99   S    
C9    C10   A    
C111  H97   S    
C37   C53   D    
C88   H24   S    
C100  H58   S    
Cr9   O9    S    
C1    O25   A    
Cr6   O30   S    
C87   H20   S    
C39   C55   D    
C50   H2    S    
Cr5   O25   S    
C48   O32   A    
Cr10  O34   S    
C106  H82   S    
Cr11  O39   S    
C107  H83   S    
C22   O70   S    
Cr2   O22   S    
C26   O74   S    
C97   H51   S    
C72   O44   A    
C96   H46   S    
C52   H4    S    
C45   C74   S    
C91   H32   S    
O65   C97   S    
C37   C69   S    
C70   O14   A    
C101  H62   S    
C83   C84   A    
C95   H45   S    
O81   C109  S    
C97   H50   S    
C22   C26   S    
C42   C50   D    
C103  H69   S    
C29   C65   S    
C98   H53   S    
C88   H22   S    
C74   C78   A    
C10   H10   S    
Cr11  O15   S    
C21   C25   S    
O70   C102  S    
O56   C88   S    
C39   C71   S    
C40   C72   S    
C18   C22   D    
C24   C28   S    
O76   H76   S    
C36   O88   S    
C44   C61   S    
C104  H72   S    
C68   O12   A    
C37   H5    S    
C110  H93   S    
C92   H34   S    
C89   H26   S    
O66   C98   S    
C100  H60   S    
C94   H41   S    
C65   O9    A    
C67   O11   A    
C46   C73   S    
C18   O78   S    
Cr10  O38   S    
C19   O79   S    
C38   C70   S    
Cr11  O35   S    
C106  H80   S    
C107  H85   S    
O86   H102  S    
O53   C85   S    
O74   H74   S    
C46   O34   A    
C7    O67   S    
C77   C78   A    
C96   H48   S    
C50   C54   S    
C28   O76   S    
C93   H38   S    
Cr4   O48   S    
C5    C11   A    
Cr1   O1    S    
C6    C12   A    
O82   C110  S    
Cr3   O3    S    
Cr12  O20   S    
C109  H89   S    
C90   H30   S    
C23   O71   S    
C56   O60   S    
C71   O43   A    
C40   C56   D    
C93   H39   S    
O79   C107  S    
C62   O50   A    
Cr7   O51   S    
C4    O28   A    
O88   H104  S    
O77   C105  S    
C45   O33   A    
C105  H79   S    
Cr8   O28   S    
Cr12  O40   S    
C111  H96   S    
C102  H65   S    
C14   C58   S    
C94   H40   S    
C76   C80   A    
C4    O24   A    
C110  H92   S    
C29   C34   D    
O59   C91   S    
C92   H36   S    
O83   C111  S    
C108  H86   S    
C61   O49   A    
C25   O73   S    
O63   C95   S    
C38   C54   D    
C11   C12   A    
C64   O52   A    
C101  H61   S    
C31   O92   S    
Cr7   O31   S    
C4    C17   S    
C8    O68   S    
C95   H44   S    
Cr5   O29   S    
C41   O61   S    
Cr8   O32   S    
C73   C82   A    
C86   H16   S    
Cr9   O33   S    
C103  H68   S    
C85   H13   S    
C82   O54   S    
C66   O6    A    
C15   C59   S    
C39   H7    S    
C69   O41   A    
C90   H28   S    
C43   C51   D    
O87   H103  S    
C27   O75   S    
C6    O66   S    
C99   H55   S    
C2    O22   A    
Cr7   O7    S    
C42   O62   S    
C3    O27   A    
Cr9   O17   S    
O90   H106  S    
Cr4   O4    S    
Cr11  O19   S    
Cr7   O27   S    
C38   H6    S    
C112  H98   S    
C54   O58   S    
C47   O31   A    
C105  H77   S    
C20   O80   S    
C41   C64   S    
C84   O56   S    
C42   C63   S    
C43   C62   S    
C16   C28   D    
C5    O65   S    
O55   C87   S    
C13   O81   S    
C14   O82   S    
Cr10  O10   S    
O61   C93   S    
Cr1   O17   S    
Cr3   O19   S    
C81   C82   A    
O85   H101  S    
C106  H81   S    
C107  H84   S    
O69   C101  S    
C108  H88   S    
C3    C18   S    
C67   O7    A    
C20   C24   D    
Cr9   O37   S    
C23   C27   S    
O75   H75   S    
C32   C68   S    
Cr3   O43   S    
Cr4   O44   S    
C48   C75   S    
C13   C25   D    
O89   H105  S    
Cr8   O20   S    
C86   H18   S    
Cr10  O18   S    
C51   H3    S    
Cr12  O16   S    
C32   C35   D    
O64   C96   S    
C30   O89   S    
C88   H23   S    
C99   H57   S    
C62   O46   A    
C32   O91   S    
C104  H71   S    
Cr6   O50   S    
C60   O4    A    
C53   O57   S    
C40   H8    S    
C69   O13   A    
C112  H100  S    
O72   C104  S    
C45   O29   A    
C33   C34   S    
Cr1   O45   S    
C30   C66   S    
O84   C112  S    
C100  H59   S    
C11   H11   S    
O54   C86   S    
Cr3   O47   S    
Cr4   O24   S    
C87   H19   S    
C7    C9    A    
C30   C33   D    
Cr12  O12   S    
C61   O45   A    
C102  H64   S    
C58   O38   A    
C96   H47   S    
C64   O48   A    
C46   O30   A    
C91   H31   S    
C63   O47   A    
C34   O86   S    
Cr4   O20   S    
C44   C52   D    
C109  H90   S    
C97   H49   S    
Cr1   O41   S    
C90   H29   S    
C79   C80   A    
C98   H54   S    
C66   O10   A    
O67   C99   S    
C8    C80   A    
C52   C56   S    
