data_mof_unit_5664.cif
_audit_creation_date              2012-10-26T21:15:27-0400
_audit_creation_method            fapswitch 2.2
_symmetry_space_group_name_H-M    P1
_symmetry_Int_Tables_number       1
_space_group_crystal_system       triclinic
_cell_length_a                    10.626263
_cell_length_b                    10.889392
_cell_length_c                    9.693112
_cell_angle_alpha                 90.591163
_cell_angle_beta                  89.853831
_cell_angle_gamma                 89.974409
_cell_volume                      1121.5608588

loop_
_atom_site_label
_atom_site_type_symbol
_atom_type_description
_atom_site_fract_x
_atom_site_fract_y
_atom_site_fract_z
_atom_type_partial_charge
C1    C     C_R   0.501899 0.265062 0.499029 0.574349
C2    C     C_2   0.421840 0.435187 0.077271 -0.023648
C3    C     C_R   0.259333 0.500024 0.500244 0.578357
C4    C     C_R   0.503976 0.734902 0.500756 0.569976
C5    C     C_R   0.740625 0.499776 0.499750 0.553572
C6    C     C_3   0.040171 0.488679 0.630952 -0.147722
C7    C     C_3   0.957565 0.393568 0.553267 -0.137963
C8    C     C_3   0.877327 0.499737 0.499063 0.005627
C9    C     C_3   0.957351 0.595035 0.577577 -0.123683
C10   C     C_3   0.040330 0.603342 0.447965 0.277376
C11   C     C_3   0.994793 0.790903 0.352129 0.010708
C12   C     C_3   0.959318 0.509946 0.368326 -0.110607
C13   C     C_3   0.051283 0.913142 0.306901 -0.258268
C14   C     C_3   0.949206 0.002523 0.260940 -0.479357
C15   C     C_3   0.601246 0.078212 0.156657 0.011073
C16   C     C_3   0.658548 0.167163 0.052916 -0.249361
C17   C     C_3   0.633238 0.126230 0.904429 -0.483492
C18   C     C_3   0.042113 0.404160 0.423460 -0.158827
C19   C     C_3   0.122476 0.499414 0.500998 0.062457
C20   C     C_2   0.527787 0.931515 0.387388 -0.167457
C21   C     C_2   0.519083 0.867077 0.503997 -0.153567
C22   C     C_2   0.545010 0.066495 0.389309 0.228650
C23   C     C_2   0.497059 0.132214 0.495745 -0.078784
C24   C     C_2   0.425567 0.431173 0.921560 -0.025888
Cu1   Cu    Cu3+1 0.500030 0.500020 0.638630 0.923348
Cu2   Cu    Cu3+1 0.499970 0.499980 0.361370 0.958120
H1    H     H_    0.919679 0.307068 0.596520 0.119576
H2    H     H_    0.079851 0.325961 0.361648 0.106248
H3    H     H_    0.523910 0.883653 0.288837 0.130919
H4    H     H_    0.529733 0.910363 0.604621 0.093173
H5    H     H_    0.927467 0.809658 0.438113 0.123726
H6    H     H_    0.943280 0.749291 0.263357 0.127654
H7    H     H_    0.104277 0.954947 0.394266 0.169695
H8    H     H_    0.117936 0.896770 0.220050 0.172722
H9    H     H_    0.897035 0.963886 0.171336 0.143466
H10   H     H_    0.993075 0.090582 0.229879 0.140790
H11   H     H_    0.882103 0.021304 0.346696 0.177963
H12   H     H_    0.445239 0.089585 0.579044 0.039391
H13   H     H_    0.499166 0.066909 0.133156 0.125149
H14   H     H_    0.651070 0.988789 0.145448 0.119869
H15   H     H_    0.618137 0.260141 0.069616 0.194063
H16   H     H_    0.761862 0.172914 0.069593 0.160452
H17   H     H_    0.673906 0.033683 0.884741 0.137290
H18   H     H_    0.677182 0.192214 0.832198 0.166461
H19   H     H_    0.530387 0.123690 0.884288 0.147658
H20   H     H_    0.361660 0.368371 0.869712 0.133045
H21   H     H_    0.556001 0.561687 0.894575 0.201926
H22   H     H_    0.351385 0.379453 0.128117 0.134874
H23   H     H_    0.568850 0.547698 0.106326 0.197517
H24   H     H_    0.075862 0.479159 0.737860 0.122691
H25   H     H_    0.919804 0.672884 0.640059 0.099971
H26   H     H_    0.923923 0.519104 0.261265 0.109387
N1    N     N_2   0.498620 0.498660 0.846910 -0.347186
N2    N     N_2   0.498590 0.498630 0.153040 -0.350625
O1    O     O_R   0.500020 0.321960 0.617040 -0.516118
O2    O     O_3   0.618519 0.126480 0.291020 -0.546759
O3    O     O_R   0.499980 0.321920 0.382900 -0.449142
O4    O     O_R   0.316870 0.499990 0.617050 -0.505846
O5    O     O_R   0.316830 0.499950 0.382910 -0.484312
O6    O     O_R   0.500020 0.678080 0.617100 -0.495511
O7    O     O_R   0.499980 0.678040 0.382960 -0.489475
O8    O     O_R   0.683170 0.500050 0.617090 -0.501349
O9    O     O_R   0.683130 0.500010 0.382950 -0.504710
O10   O     O_3   0.092592 0.712232 0.394716 -0.559633

loop_
_geom_bond_atom_site_label_1
_geom_bond_atom_site_label_2
_ccdc_geom_bond_type
C11   H6    S    
C5    C8    S    
Cu2   O9    S    
C17   H17   S    
C13   H7    S    
C6    C7    S    
C4    C21   S    
Cu1   O6    S    
C1    O3    A    
C23   H12   S    
C21   H4    S    
C7    H1    S    
C9    H25   S    
C8    C12   S    
C10   C19   S    
H21   N1    S    
C7    C18   S    
C24   H20   S    
C15   O2    S    
C4    O6    A    
C6    C9    S    
Cu1   O1    S    
C24   N1    D    
C17   H18   S    
C11   H5    S    
C13   H8    S    
C4    O7    A    
Cu2   O5    S    
C13   C14   S    
C6    H24   S    
C14   H11   S    
C3    C19   S    
C6    C19   S    
C11   C13   S    
C15   H13   S    
C16   C17   S    
C10   C12   S    
C20   H3    S    
Cu2   N2    S    
C12   H26   S    
Cu2   O7    S    
Cu1   N1    S    
C5    O8    A    
C1    C23   S    
Cu1   O8    S    
C2    C24   S    
Cu2   O3    S    
C2    N2    D    
C15   H14   S    
Cu1   O4    S    
C20   C22   S    
C15   C16   S    
C3    O4    A    
C16   H16   S    
C7    C8    S    
C18   H2    S    
C20   C21   D    
C5    O9    A    
C11   O10   S    
C9    C10   S    
C12   C18   S    
C14   H9    S    
C22   C23   D    
C18   C19   S    
C14   H10   S    
C22   O2    S    
C2    H22   S    
Cu1   Cu2   S    
C16   H15   S    
C10   O10   S    
H23   N2    S    
C17   H19   S    
C8    C9    S    
C1    O1    A    
C3    O5    A    
