data_mof_unit_64774.cif
_audit_creation_date              2012-10-26T18:17:50-0400
_audit_creation_method            fapswitch 2.2
_symmetry_space_group_name_H-M    P1
_symmetry_Int_Tables_number       1
_space_group_crystal_system       triclinic
_cell_length_a                    50.467897
_cell_length_b                    39.065343
_cell_length_c                    32.013403
_cell_angle_alpha                 90.001382
_cell_angle_beta                  129.308509
_cell_angle_gamma                 89.99909
_cell_volume                      48835.6739724

loop_
_atom_site_label
_atom_site_type_symbol
_atom_type_description
_atom_site_fract_x
_atom_site_fract_y
_atom_site_fract_z
_atom_type_partial_charge
C1    C     C_R   0.066225 0.000013 0.566200 0.547733
C2    C     C_3   0.038031 0.993045 0.764144 -0.081041
C3    C     C_R   0.342083 0.530362 0.349766 -0.122466
C4    C     C_R   0.176165 0.000028 0.676294 0.031505
C5    C     C_R   0.823835 0.000028 0.323701 0.031507
C6    C     C_R   0.676165 0.500028 0.676297 0.031513
C7    C     C_R   0.323835 0.500028 0.323702 0.031515
C8    C     C_R   1.000000 0.066129 1.000000 0.548283
C9    C     C_R   0.500000 0.566129 1.000000 0.548290
C10   C     C_R   0.999989 0.999905 0.079988 0.557256
C11   C     C_R   0.000010 0.999904 0.920012 0.557256
C12   C     C_R   0.499989 0.499905 0.079988 0.557254
C13   C     C_3   0.463364 0.487650 0.237254 -0.080950
C14   C     C_R   0.500011 0.499905 0.920012 0.557255
C15   C     C_R   0.000000 0.933662 0.000000 0.548405
C16   C     C_R   0.500000 0.433661 0.000000 0.548396
C17   C     C_R   0.500000 0.933603 0.999999 0.553825
C18   C     C_R   1.000000 0.433603 0.999999 0.553810
C19   C     C_R   0.433684 0.000001 0.933705 0.552923
C20   C     C_R   0.566315 0.000001 0.066295 0.552923
C21   C     C_R   0.933684 0.500001 0.933705 0.552922
C22   C     C_R   0.066315 0.500001 0.066295 0.552924
C23   C     C_R   0.500000 0.066243 0.000000 0.553527
C24   C     C_3   0.537099 0.489122 0.763209 -0.080976
C25   C     C_R   0.000000 0.566243 0.000000 0.553535
C26   C     C_R   0.501187 0.877651 0.963369 -0.130829
C27   C     C_R   0.498812 0.877651 0.036627 -0.130828
C28   C     C_R   0.001142 0.377650 0.963322 -0.130832
C29   C     C_R   0.998858 0.377651 0.036674 -0.130829
C30   C     C_3   0.026154 0.974826 0.300589 -0.229561
C31   C     C_3   0.977140 0.971782 0.702702 -0.229470
C32   C     C_3   0.526687 0.475395 0.301123 -0.229583
C33   C     C_3   0.474319 0.474344 0.699881 -0.229548
C34   C     C_R   0.501231 0.841940 0.963422 -0.121927
C35   C     C_1   0.999716 0.999918 0.162270 -0.078513
C36   C     C_R   0.498769 0.841940 0.036572 -0.121925
C37   C     C_R   0.001184 0.341939 0.963374 -0.121926
C38   C     C_R   0.998815 0.341940 0.036620 -0.121925
C39   C     C_R   0.499999 0.823756 0.999997 0.030820
C40   C     C_R   1.000000 0.323756 0.999997 0.030825
C41   C     C_R   0.500000 0.895854 0.999999 0.014393
C42   C     C_R   1.000000 0.395853 0.999999 0.014391
C43   C     C_R   0.521935 0.767733 0.995142 -0.115668
C44   C     C_R   0.478063 0.767734 0.004850 -0.115668
C45   C     C_R   0.021899 0.267732 0.995065 -0.115662
C46   C     C_1   0.000283 0.999955 0.837729 -0.078510
C47   C     C_R   0.978099 0.267733 0.004927 -0.115662
C48   C     C_R   0.021938 0.232024 0.995151 -0.115777
C49   C     C_R   0.978060 0.232025 0.004842 -0.115773
C50   C     C_R   0.521974 0.732025 0.995228 -0.115781
C51   C     C_R   0.478025 0.732026 0.004764 -0.115778
C52   C     C_R   0.999999 0.213841 0.999997 0.030033
C53   C     C_R   0.499999 0.713841 0.999996 0.030026
C54   C     C_R   0.499999 0.785918 0.999996 0.030040
C55   C     C_R   0.999999 0.285917 0.999996 0.030051
C56   C     C_R   0.969009 0.157819 0.970537 -0.122814
C57   C     C_1   0.499715 0.499912 0.162269 -0.078509
C58   C     C_R   0.030990 0.157819 0.029459 -0.122810
C59   C     C_R   0.469007 0.657819 0.970483 -0.122808
C60   C     C_R   0.530992 0.657819 0.029512 -0.122807
C61   C     C_R   0.968999 0.122107 0.970474 -0.131315
C62   C     C_R   0.031001 0.122108 0.029523 -0.131312
C63   C     C_R   0.468998 0.622108 0.970421 -0.131307
C64   C     C_R   0.531002 0.622108 0.029576 -0.131308
C65   C     C_R   1.000000 0.103894 0.999999 0.014264
C66   C     C_R   0.500000 0.603894 0.999999 0.014262
C67   C     C_3   0.026606 0.974896 0.252558 -0.221106
C68   C     C_1   0.500285 0.499924 0.837731 -0.078515
C69   C     C_3   0.976681 0.971803 0.750727 -0.221200
C70   C     C_3   0.527137 0.475473 0.253090 -0.221002
C71   C     C_3   0.473865 0.474406 0.747911 -0.221035
C72   C     C_R   1.000000 0.176002 0.999997 0.030535
C73   C     C_R   0.499999 0.676002 0.999997 0.030533
C74   C     C_R   0.498930 0.122191 0.036754 -0.130812
C75   C     C_R   0.501070 0.122191 0.963249 -0.130811
C76   C     C_R   0.001181 0.622190 0.038997 -0.130794
C77   C     C_R   0.998819 0.622190 0.961006 -0.130793
C78   C     C_R   0.498887 0.157900 0.036701 -0.121992
C79   C     C_1   0.999390 0.000056 0.336828 -0.075042
C80   C     C_R   0.501113 0.157899 0.963304 -0.121992
C81   C     C_R   0.001223 0.657899 0.039029 -0.121974
C82   C     C_R   0.998776 0.657898 0.960975 -0.121973
C83   C     C_R   0.500000 0.176078 0.000003 0.030818
C84   C     C_R   1.000000 0.676077 0.000002 0.030832
C85   C     C_R   0.500000 0.103990 0.000001 0.014373
C86   C     C_R   1.000000 0.603989 0.000001 0.014432
C87   C     C_R   0.521878 0.232089 0.995019 -0.115698
C88   C     C_R   0.478124 0.232090 0.004989 -0.115699
C89   C     C_R   0.978052 0.732088 0.951338 -0.115680
C90   C     C_1   0.000596 0.000108 0.663159 -0.075071
C91   C     C_R   0.021947 0.732089 0.048667 -0.115680
C92   C     C_R   0.978014 0.767793 0.951346 -0.115787
C93   C     C_R   0.021985 0.767795 0.048658 -0.115790
C94   C     C_R   0.521916 0.267794 0.995105 -0.115789
C95   C     C_R   0.478085 0.267795 0.004903 -0.115791
C96   C     C_R   0.999999 0.785974 0.000002 0.030014
C97   C     C_R   0.500001 0.285974 0.000003 0.030048
C98   C     C_R   0.500001 0.213910 0.000004 0.030017
C99   C     C_R   0.999999 0.713909 0.000002 0.030040
C100  C     C_R   0.969005 0.841985 0.967654 -0.122792
C101  C     C_1   0.499388 0.500048 0.336825 -0.075030
C102  C     C_R   0.030994 0.841985 0.032348 -0.122788
C103  C     C_R   0.469009 0.341984 0.970550 -0.122793
C104  C     C_R   0.530992 0.341985 0.029454 -0.122792
C105  C     C_1   0.999916 0.999912 0.124775 -0.033288
C106  C     C_1   0.000084 0.999926 0.875224 -0.033290
C107  C     C_1   0.499916 0.499909 0.124775 -0.033286
C108  C     C_1   0.500084 0.499914 0.875225 -0.033285
C109  C     C_R   0.968995 0.877693 0.967695 -0.131280
C110  C     C_R   0.031004 0.877693 0.032306 -0.131276
C111  C     C_R   0.468998 0.377693 0.970487 -0.131284
C112  C     C_R   0.933774 0.000013 0.433799 0.547720
C113  C     C_1   0.500609 0.500066 0.663171 -0.075044
C114  C     C_R   0.531002 0.377693 0.029516 -0.131281
C115  C     C_R   1.000000 0.895903 0.000000 0.014328
C116  C     C_R   0.500000 0.395902 0.000001 0.014336
C117  C     C_R   1.000000 0.823805 0.000002 0.030554
C118  C     C_R   0.500000 0.323806 0.000003 0.030561
C119  C     C_3   0.998745 0.000115 0.290039 0.085901
C120  C     C_3   0.001227 0.000249 0.709933 0.085912
C121  C     C_3   0.498742 0.500092 0.290035 0.085890
C122  C     C_3   0.501252 0.500137 0.709958 0.085882
C123  C     C_3   0.007014 0.036277 0.232679 -0.215253
C124  C     C_1   0.999760 0.000027 0.374888 -0.037610
C125  C     C_3   0.988563 0.035130 0.762898 -0.215198
C126  C     C_3   0.506233 0.536421 0.231896 -0.215263
C127  C     C_3   0.492311 0.536140 0.766649 -0.215248
C128  C     C_3   0.999302 0.999930 0.207939 0.059316
C129  C     C_3   0.000694 0.000010 0.792057 0.059331
C130  C     C_3   0.499302 0.499916 0.207939 0.059306
C131  C     C_3   0.500699 0.499943 0.792062 0.059292
C132  C     C_3   0.323388 0.985252 0.901014 -0.402562
C133  C     C_3   0.676611 0.985259 0.098980 -0.402565
C134  C     C_3   0.823388 0.485250 0.901013 -0.402484
C135  C     C_1   0.000235 0.000039 0.625107 -0.037628
C136  C     C_3   0.176612 0.485240 0.098988 -0.402485
C137  C     C_3   0.323434 0.014871 0.746087 -0.402150
C138  C     C_3   0.676567 0.014861 0.253915 -0.402151
C139  C     C_3   0.823433 0.514873 0.746088 -0.402313
C140  C     C_3   0.176567 0.514883 0.253910 -0.402313
C141  C     C_3   0.932742 0.009569 0.223407 -0.425200
C142  C     C_3   0.065568 0.017752 0.774907 -0.425193
C143  C     C_3   0.432549 0.508130 0.223213 -0.425206
C144  C     C_3   0.567068 0.510816 0.776405 -0.425212
C145  C     C_1   0.499758 0.500026 0.374887 -0.037603
C146  C     C_1   0.500240 0.500031 0.625112 -0.037608
C147  C     C_R   0.377805 0.993483 0.914843 -0.118309
C148  C     C_R   0.622195 0.993486 0.085154 -0.118309
C149  C     C_R   0.877805 0.493482 0.914843 -0.118093
C150  C     C_R   0.122195 0.493478 0.085158 -0.118092
C151  C     C_R   0.341930 0.993263 0.879383 -0.004210
C152  C     C_R   0.566226 0.500012 0.566201 0.547717
C153  C     C_R   0.658069 0.993266 0.120614 -0.004209
C154  C     C_R   0.841930 0.493263 0.879383 -0.004165
C155  C     C_R   0.158070 0.493258 0.120618 -0.004164
C156  C     C_R   0.323814 0.000055 0.823952 0.052367
C157  C     C_R   0.676186 0.000054 0.176047 0.052367
C158  C     C_R   0.823814 0.500056 0.823952 0.052381
C159  C     C_R   0.176186 0.500055 0.176048 0.052381
C160  C     C_R   0.341952 0.006846 0.804742 -0.004277
C161  C     C_R   0.658049 0.006841 0.195259 -0.004277
C162  C     C_R   0.841951 0.506847 0.804742 -0.004241
C163  C     C_R   0.433774 0.500013 0.433799 0.547715
C164  C     C_R   0.158048 0.506852 0.195257 -0.004241
C165  C     C_R   0.377825 0.006603 0.840959 -0.117898
C166  C     C_R   0.622175 0.006599 0.159042 -0.117899
C167  C     C_R   0.877825 0.506605 0.840959 -0.118060
C168  C     C_R   0.122175 0.506609 0.159040 -0.118059
C169  C     C_R   0.000005 0.000014 0.419986 0.556337
C170  C     C_R   0.999995 0.000015 0.580014 0.556353
C171  C     C_R   0.500005 0.500014 0.419985 0.556335
C172  C     C_R   0.499995 0.500015 0.580014 0.556338
C173  C     C_R   0.395915 0.000032 0.895981 -0.014840
C174  C     C_3   0.963696 0.988695 0.188802 -0.191881
C175  C     C_R   0.604086 0.000032 0.104019 -0.014841
C176  C     C_R   0.895914 0.500032 0.895981 -0.014783
C177  C     C_R   0.104085 0.500032 0.104019 -0.014781
C178  C     C_R   0.268072 0.027810 0.785066 -0.120798
C179  C     C_R   0.731928 0.027811 0.214938 -0.120799
C180  C     C_R   0.768072 0.527812 0.785063 -0.120829
C181  C     C_R   0.231928 0.527809 0.214932 -0.120829
C182  C     C_R   0.232349 0.027765 0.749520 -0.118745
C183  C     C_R   0.767650 0.027767 0.250483 -0.118749
C184  C     C_R   0.732349 0.527767 0.749518 -0.118770
C185  C     C_3   0.037415 0.993241 0.812312 -0.191829
C186  C     C_R   0.267650 0.527765 0.250477 -0.118769
C187  C     C_R   0.214106 0.000028 0.714264 0.030820
C188  C     C_R   0.785894 0.000027 0.285731 0.030815
C189  C     C_R   0.714106 0.500028 0.714267 0.030793
C190  C     C_R   0.285894 0.500028 0.285733 0.030791
C191  C     C_R   0.232392 0.972294 0.715551 -0.118619
C192  C     C_R   0.767608 0.972291 0.284438 -0.118622
C193  C     C_R   0.732392 0.472293 0.715557 -0.118629
C194  C     C_R   0.267608 0.472295 0.284447 -0.118630
C195  C     C_R   0.268113 0.972262 0.751455 -0.120833
C196  C     C_3   0.463944 0.487921 0.189050 -0.191940
C197  C     C_R   0.731888 0.972259 0.248535 -0.120836
C198  C     C_R   0.768113 0.472261 0.751459 -0.120842
C199  C     C_R   0.231887 0.472263 0.248545 -0.120843
C200  C     C_R   0.286053 0.000041 0.786218 0.032860
C201  C     C_R   0.713947 0.000040 0.213780 0.032860
C202  C     C_R   0.786053 0.500042 0.786218 0.032834
C203  C     C_R   0.213947 0.500041 0.213781 0.032834
C204  C     C_R   0.157895 0.969691 0.665790 -0.122567
C205  C     C_R   0.842105 0.969692 0.334197 -0.122585
C206  C     C_R   0.657895 0.469692 0.665799 -0.122579
C207  C     C_3   0.536508 0.489372 0.811401 -0.191914
C208  C     C_R   0.342105 0.469691 0.334203 -0.122584
C209  C     C_R   0.122169 0.969657 0.629833 -0.131304
C210  C     C_R   0.877831 0.969658 0.370154 -0.131359
C211  C     C_R   0.622169 0.469658 0.629842 -0.131352
C212  C     C_R   0.377831 0.469657 0.370161 -0.131368
C213  C     C_R   0.103980 0.000018 0.603999 0.014611
C214  C     C_R   0.896019 0.000018 0.395999 0.014606
C215  C     C_R   0.603981 0.500018 0.604001 0.014610
C216  C     C_R   0.396019 0.500018 0.395999 0.014610
C217  C     C_3   0.007744 0.036187 0.281871 -0.207417
C218  C     C_3   0.963110 0.988435 0.237000 -0.081002
C219  C     C_3   0.987853 0.034943 0.713725 -0.207471
C220  C     C_3   0.506965 0.536349 0.281091 -0.207423
C221  C     C_3   0.491584 0.536036 0.717459 -0.207435
C222  C     C_R   0.122189 0.030386 0.614628 -0.131301
C223  C     C_R   0.877810 0.030384 0.385378 -0.131268
C224  C     C_R   0.622189 0.530385 0.614624 -0.131260
C225  C     C_R   0.377811 0.530386 0.385373 -0.131248
C226  C     C_R   0.157916 0.030362 0.650233 -0.122487
C227  C     C_R   0.842083 0.030360 0.349772 -0.122476
C228  C     C_R   0.657917 0.530361 0.650230 -0.122470
Cu1   Cu    Cu3+1 1.000000 0.034220 0.500000 0.918193
Cu2   Cu    Cu3+1 0.499990 0.999930 0.041330 0.910769
Cu3   Cu    Cu3+1 0.000010 0.499930 0.958670 0.910810
Cu4   Cu    Cu3+1 0.999990 0.499930 0.041330 0.910810
Cu5   Cu    Cu3+1 0.500000 0.534220 0.500000 0.918304
Cu6   Cu    Cu3+1 1.000000 0.965800 0.500000 0.918767
Cu7   Cu    Cu3+1 0.500000 0.465800 0.500000 0.918705
Cu8   Cu    Cu3+1 0.034210 0.999890 0.034180 0.918989
Cu9   Cu    Cu3+1 0.965790 0.999890 0.965820 0.918977
Cu10  Cu    Cu3+1 0.534210 0.499890 0.034180 0.918991
Cu11  Cu    Cu3+1 0.465790 0.499890 0.965820 0.918989
Cu12  Cu    Cu3+1 0.500010 0.999930 0.958670 0.910768
H1    H     H_    0.032129 0.045394 0.245652 0.115001
H2    H     H_    0.006033 0.055729 0.791426 0.113695
H3    H     H_    0.039346 0.718679 0.086685 0.101627
H4    H     H_    0.961044 0.781203 0.913232 0.101404
H5    H     H_    0.038954 0.781206 0.086772 0.101399
H6    H     H_    0.538831 0.281204 0.990763 0.101348
H7    H     H_    0.461171 0.281206 0.009244 0.101345
H8    H     H_    0.944740 0.828569 0.942831 0.104078
H9    H     H_    0.055259 0.828569 0.057173 0.104082
H10   H     H_    0.444745 0.328568 0.946994 0.104081
H11   H     H_    0.555256 0.328569 0.053012 0.104081
H12   H     H_    0.944684 0.891003 0.942445 0.127587
H13   H     H_    0.485969 0.554281 0.200576 0.113739
H14   H     H_    0.055316 0.891002 0.057556 0.127591
H15   H     H_    0.444688 0.391002 0.947261 0.127570
H16   H     H_    0.555312 0.391002 0.052741 0.127571
H17   H     H_    0.051946 0.982047 0.338260 0.116398
H18   H     H_    0.950654 0.975771 0.664338 0.116463
H19   H     H_    0.552319 0.483166 0.338633 0.116466
H20   H     H_    0.448396 0.481083 0.662081 0.116492
H21   H     H_    0.052485 0.982519 0.267187 0.119100
H22   H     H_    0.950058 0.976183 0.735352 0.119009
H23   H     H_    0.552847 0.483648 0.267551 0.119301
H24   H     H_    0.511843 0.554797 0.797239 0.113726
H25   H     H_    0.447849 0.481547 0.733145 0.119294
H26   H     H_    0.021589 0.948548 0.235819 0.114674
H27   H     H_    0.984905 0.946274 0.770674 0.114659
H28   H     H_    0.522687 0.449023 0.236918 0.114866
H29   H     H_    0.479372 0.448156 0.765138 0.114838
H30   H     H_    0.958660 0.961577 0.242948 0.126985
H31   H     H_    0.045755 0.966937 0.761473 0.126860
H32   H     H_    0.459490 0.460703 0.243779 0.126887
H33   H     H_    0.542048 0.462351 0.757758 0.126848
H34   H     H_    0.943749 0.006152 0.156049 0.122475
H35   H     H_    0.957574 0.962592 0.170902 0.102064
H36   H     H_    0.055059 0.013022 0.842762 0.122372
H37   H     H_    0.443627 0.504945 0.155926 0.122429
H38   H     H_    0.556126 0.507197 0.843827 0.122406
H39   H     H_    0.307721 0.007567 0.895095 0.133543
H40   H     H_    0.306440 0.962737 0.879518 0.139693
H41   H     H_    0.341460 0.979249 0.944835 0.118725
H42   H     H_    0.692278 0.007575 0.104904 0.133546
H43   H     H_    0.693559 0.962744 0.120471 0.139687
H44   H     H_    0.658538 0.979259 0.055158 0.118723
H45   H     H_    0.807720 0.507565 0.895094 0.133706
H46   H     H_    0.046706 0.968092 0.833383 0.102183
H47   H     H_    0.806441 0.462736 0.879518 0.139600
H48   H     H_    0.841460 0.479248 0.944835 0.118798
H49   H     H_    0.192279 0.507553 0.104904 0.133707
H50   H     H_    0.193559 0.462726 0.120487 0.139598
H51   H     H_    0.158539 0.479234 0.055168 0.118797
H52   H     H_    0.341521 0.020878 0.738396 0.119181
H53   H     H_    0.307769 0.992561 0.720692 0.133812
H54   H     H_    0.306486 0.037387 0.733727 0.139908
H55   H     H_    0.658480 0.020866 0.261609 0.119180
H56   H     H_    0.692233 0.992550 0.279306 0.133814
H57   H     H_    0.458383 0.461692 0.171712 0.101707
H58   H     H_    0.693515 0.037378 0.266280 0.139907
H59   H     H_    0.841521 0.520881 0.738396 0.118908
H60   H     H_    0.807768 0.492564 0.720691 0.133899
H61   H     H_    0.806487 0.537389 0.733729 0.139724
H62   H     H_    0.158479 0.520894 0.261601 0.118908
H63   H     H_    0.192232 0.492575 0.279310 0.133901
H64   H     H_    0.193513 0.537399 0.266266 0.139723
H65   H     H_    0.908340 0.998521 0.187359 0.122691
H66   H     H_    0.931914 0.008918 0.257223 0.142711
H67   H     H_    0.934188 0.036579 0.214288 0.136483
H68   H     H_    0.543114 0.463388 0.829785 0.101747
H69   H     H_    0.091145 0.009795 0.812133 0.122639
H70   H     H_    0.066473 0.017200 0.741167 0.142912
H71   H     H_    0.060806 0.044382 0.780704 0.136489
H72   H     H_    0.408388 0.496562 0.187407 0.122565
H73   H     H_    0.431734 0.507463 0.257043 0.142670
H74   H     H_    0.433414 0.535165 0.213514 0.136511
H75   H     H_    0.591672 0.500224 0.812654 0.122569
H76   H     H_    0.567909 0.510180 0.742601 0.142731
H77   H     H_    0.565120 0.537795 0.785022 0.136517
H78   H     H_    0.391668 0.988200 0.957290 0.129257
H79   H     H_    0.608332 0.988206 0.042707 0.129258
H80   H     H_    0.891668 0.488198 0.957289 0.129352
H81   H     H_    0.962515 0.041088 0.748987 0.115117
H82   H     H_    0.108332 0.488190 0.042712 0.129350
H83   H     H_    0.391703 0.011876 0.826225 0.129688
H84   H     H_    0.608298 0.011868 0.173778 0.129689
H85   H     H_    0.891703 0.511878 0.826225 0.129432
H86   H     H_    0.108297 0.511886 0.173773 0.129430
H87   H     H_    0.281746 0.049401 0.811860 0.105616
H88   H     H_    0.718253 0.049404 0.188150 0.105619
H89   H     H_    0.781747 0.549404 0.811855 0.105777
H90   H     H_    0.218253 0.549399 0.188137 0.105779
H91   H     H_    0.219029 0.049246 0.750091 0.100646
H92   H     H_    0.531146 0.546075 0.244670 0.114995
H93   H     H_    0.780971 0.049250 0.249918 0.100657
H94   H     H_    0.719029 0.549249 0.750086 0.100725
H95   H     H_    0.280971 0.549245 0.249906 0.100729
H96   H     H_    0.219107 0.950811 0.688365 0.100961
H97   H     H_    0.780894 0.950805 0.311618 0.100965
H98   H     H_    0.719107 0.450808 0.688374 0.101000
H99   H     H_    0.280894 0.450812 0.311633 0.101003
H100  H     H_    0.033747 0.043738 0.318715 0.111222
H101  H     H_    0.961118 0.039236 0.676146 0.111101
H102  H     H_    0.532800 0.544455 0.317768 0.111241
H103  H     H_    0.467031 0.544789 0.753510 0.115038
H104  H     H_    0.465445 0.543102 0.680479 0.111202
H105  H     H_    0.281820 0.950680 0.752036 0.105849
H106  H     H_    0.718181 0.950674 0.247948 0.105848
H107  H     H_    0.781820 0.450677 0.752043 0.105863
H108  H     H_    0.218180 0.450681 0.247964 0.105864
H109  H     H_    0.171203 0.946030 0.685908 0.102215
H110  H     H_    0.828798 0.946032 0.314071 0.102208
H111  H     H_    0.671203 0.446032 0.685923 0.102184
H112  H     H_    0.328797 0.446030 0.314083 0.102182
H113  H     H_    0.108809 0.945904 0.622706 0.126366
H114  H     H_    0.989736 0.055767 0.276186 0.115893
H115  H     H_    0.891191 0.945906 0.377275 0.126343
H116  H     H_    0.608809 0.445906 0.622719 0.126330
H117  H     H_    0.391191 0.445904 0.377286 0.126323
H118  H     H_    0.108846 0.054136 0.595019 0.126370
H119  H     H_    0.891154 0.054134 0.404994 0.126372
H120  H     H_    0.608846 0.554134 0.595010 0.126375
H121  H     H_    0.391154 0.554136 0.404984 0.126377
H122  H     H_    0.171244 0.054026 0.656788 0.102323
H123  H     H_    0.828756 0.054023 0.343223 0.102320
H124  H     H_    0.671244 0.554025 0.656780 0.102298
H125  H     H_    0.003313 0.056589 0.716866 0.115945
H126  H     H_    0.328756 0.554026 0.343213 0.102298
H127  H     H_    0.502051 0.890975 0.934589 0.126370
H128  H     H_    0.497949 0.890976 0.065408 0.126373
H129  H     H_    0.001970 0.390974 0.934503 0.126369
H130  H     H_    0.998030 0.390976 0.065494 0.126373
H131  H     H_    0.501784 0.828525 0.934379 0.103972
H132  H     H_    0.498215 0.828526 0.065615 0.103974
H133  H     H_    0.001702 0.328525 0.934292 0.103964
H134  H     H_    0.998297 0.328527 0.065702 0.103969
H135  H     H_    0.539325 0.781142 0.991855 0.101568
H136  H     H_    0.488541 0.555539 0.274989 0.115892
H137  H     H_    0.460674 0.781144 0.008137 0.101570
H138  H     H_    0.039263 0.281141 0.991718 0.101542
H139  H     H_    0.960735 0.281143 0.008274 0.101546
H140  H     H_    0.038872 0.218614 0.990850 0.101278
H141  H     H_    0.961127 0.218616 0.009143 0.101287
H142  H     H_    0.538933 0.718615 0.990987 0.101304
H143  H     H_    0.461065 0.718617 0.009005 0.101307
H144  H     H_    0.944744 0.171233 0.946971 0.104054
H145  H     H_    0.055255 0.171234 0.053024 0.104057
H146  H     H_    0.444743 0.671233 0.946875 0.104059
H147  H     H_    0.509224 0.555947 0.722778 0.115913
H148  H     H_    0.555256 0.671234 0.053119 0.104060
H149  H     H_    0.020711 0.948478 0.306601 0.110475
H150  H     H_    0.985785 0.946301 0.699896 0.110505
H151  H     H_    0.521811 0.448936 0.307701 0.110530
H152  H     H_    0.480251 0.448101 0.694357 0.110537
H153  H     H_    0.944689 0.108799 0.947242 0.127573
H154  H     H_    0.055311 0.108799 0.052756 0.127573
H155  H     H_    0.444687 0.608799 0.947147 0.127584
H156  H     H_    0.555312 0.608799 0.052851 0.127584
H157  H     H_    0.498160 0.108871 0.065635 0.126624
H158  H     H_    0.987138 0.054567 0.201746 0.113727
H159  H     H_    0.501840 0.108870 0.934367 0.126626
H160  H     H_    0.002041 0.608869 0.069501 0.126553
H161  H     H_    0.997959 0.608868 0.930501 0.126556
H162  H     H_    0.498426 0.171315 0.065839 0.103999
H163  H     H_    0.501575 0.171314 0.934166 0.104001
H164  H     H_    0.001773 0.671314 0.069175 0.103997
H165  H     H_    0.998227 0.671313 0.930830 0.104001
H166  H     H_    0.539222 0.218677 0.991629 0.101676
H167  H     H_    0.460780 0.218679 0.008379 0.101674
H168  H     H_    0.960652 0.718677 0.913320 0.101629
O1    O     O_R   0.049910 0.028900 0.549890 -0.512899
O2    O     O_R   0.549900 0.000010 0.015010 -0.511489
O3    O     O_R   0.950100 0.500010 0.984990 -0.511184
O4    O     O_R   0.049900 0.500010 0.015010 -0.511183
O5    O     O_R   0.500000 0.049850 0.965040 -0.512154
O6    O     O_R   0.500000 0.049850 0.034960 -0.512152
O7    O     O_R   1.000000 0.549850 0.965040 -0.512140
O8    O     O_R   1.000000 0.549850 0.034960 -0.512140
O9    O     O_R   0.049920 0.971120 0.549870 -0.512771
O10   O     O_R   0.950080 0.971120 0.450130 -0.512793
O11   O     O_R   0.549920 0.471120 0.549870 -0.512788
O12   O     O_R   0.950090 0.028900 0.450110 -0.512858
O13   O     O_R   0.450080 0.471120 0.450130 -0.512797
O14   O     O_R   1.000000 0.028900 0.439710 -0.503436
O15   O     O_R   1.000000 0.028900 0.560290 -0.503539
O16   O     O_R   0.500000 0.528900 0.439710 -0.503425
O17   O     O_R   0.500000 0.528900 0.560290 -0.503455
O18   O     O_R   0.000010 0.971120 0.439700 -0.503510
O19   O     O_R   0.999990 0.971120 0.560300 -0.503441
O20   O     O_R   0.500010 0.471120 0.439700 -0.503520
O21   O     O_R   0.499990 0.471120 0.560300 -0.503498
O22   O     O_R   0.028900 0.049810 0.028900 -0.513224
O23   O     O_R   0.549910 0.528900 0.549890 -0.512869
O24   O     O_R   0.971100 0.049810 0.971100 -0.513225
O25   O     O_R   0.528900 0.549810 0.028900 -0.513222
O26   O     O_R   0.471100 0.549810 0.971100 -0.513222
O27   O     O_R   0.028890 0.999890 0.089150 -0.503225
O28   O     O_R   0.971110 0.999890 0.910850 -0.503230
O29   O     O_R   0.528890 0.499890 0.089150 -0.502857
O30   O     O_R   0.471110 0.499890 0.910850 -0.502857
O31   O     O_R   0.971120 0.999910 0.031400 -0.503648
O32   O     O_R   0.028880 0.999910 0.968600 -0.503644
O33   O     O_R   0.471120 0.499910 0.031400 -0.504015
O34   O     O_R   0.450090 0.528900 0.450110 -0.512857
O35   O     O_R   0.528880 0.499910 0.968600 -0.504015
O36   O     O_R   0.028890 0.949980 0.028830 -0.513241
O37   O     O_R   0.971110 0.949980 0.971170 -0.513246
O38   O     O_R   0.528890 0.449980 0.028830 -0.513243
O39   O     O_R   0.471110 0.449980 0.971170 -0.513244
O40   O     O_R   0.500020 0.950020 0.965150 -0.512099
O41   O     O_R   0.499980 0.950020 0.034850 -0.512100
O42   O     O_R   0.000020 0.450020 0.965150 -0.512107
O43   O     O_R   0.999980 0.450020 0.034850 -0.512107
O44   O     O_R   0.450100 0.999940 0.915210 -0.510966
O45   O     O_R   0.549900 0.999940 0.084790 -0.510965
O46   O     O_R   0.950100 0.499940 0.915210 -0.511254
O47   O     O_R   0.049900 0.499940 0.084790 -0.511254
O48   O     O_R   0.450100 0.000010 0.984990 -0.511488

loop_
_geom_bond_atom_site_label_1
_geom_bond_atom_site_label_2
_ccdc_geom_bond_type
C129  C185  S    
C29   C42   A    
C30   H17   S    
C143  H72   S    
Cu9   O31   S    
C25   O8    A    
C21   O3    A    
C1    O1    A    
C2    H31   S    
C16   O38   A    
C89   C99   A    
C74   H157  S    
C154  C158  A    
C136  H49   S    
C88   H167  S    
C20   C175  S    
C87   C94   A    
C222  H118  S    
Cu1   Cu6   S    
C186  H95   S    
Cu10  O25   S    
C18   O43   A    
C113  C122  S    
Cu8   O27   S    
C56   C72   A    
Cu3   O46   S    
C134  H48   S    
Cu2   O48   S    
C45   H138  S    
C15   O36   A    
C59   C73   A    
C198  H107  S    
C51   H143  S    
C169  O14   A    
C132  H41   S    
C88   C95   A    
C100  C109  A    
C219  H101  S    
C33   H152  S    
C61   H153  S    
C46   C129  S    
C80   C83   A    
C224  C228  A    
C126  C220  S    
C217  H100  S    
C111  H15   S    
Cu4   O47   S    
C50   C53   A    
Cu2   O41   S    
C205  H110  S    
C164  C168  A    
C13   H32   S    
C149  H80   S    
C11   O28   A    
C94   C97   A    
C152  O11   A    
C133  H43   S    
C136  H51   S    
Cu1   O12   S    
C209  C213  A    
C9    O26   A    
C64   C66   A    
C113  C146  T    
C186  C190  A    
C68   C131  S    
C59   H146  S    
C52   C72   S    
C141  C218  S    
C213  C222  A    
C57   C130  S    
C43   C54   A    
C17   O41   A    
C208  C212  A    
C40   C55   S    
C178  C182  A    
C93   H5    S    
C223  H119  S    
C93   C96   A    
C82   C84   A    
C191  H96   S    
C204  H109  S    
C121  C220  S    
C15   C115  S    
C148  C153  A    
C140  H62   S    
C137  C160  S    
C221  H147  S    
C152  O23   A    
C59   C63   A    
C32   C121  S    
C139  C162  S    
C87   H166  S    
C69   H27   S    
C95   C97   A    
C70   H28   S    
C50   H142  S    
C24   C207  S    
C180  C202  A    
C60   C64   A    
Cu9   O24   S    
C139  H60   S    
C172  O21   A    
C210  C214  A    
C183  C188  A    
C174  H34   S    
Cu5   O17   S    
C77   C82   A    
C110  H14   S    
C120  C219  S    
Cu8   O36   S    
C211  H116  S    
C127  C131  S    
C31   C120  S    
C33   C71   S    
C125  C129  S    
C48   C52   A    
C69   C129  S    
Cu1   O15   S    
C100  C117  A    
C5    C188  S    
C193  C198  A    
Cu9   O37   S    
Cu8   O22   S    
Cu11  O26   S    
C226  H122  S    
C217  H114  S    
C29   H130  S    
C81   H164  S    
C131  C207  S    
C148  H79   S    
C62   H154  S    
C101  C145  T    
C193  H98   S    
C165  H83   S    
C27   H128  S    
C37   C40   A    
Cu7   O20   S    
C18   C42   S    
C223  C227  A    
Cu10  O35   S    
Cu11  O33   S    
C39   C54   S    
C141  H66   S    
C77   H161  S    
C92   C96   A    
C127  H24   S    
C196  H57   S    
C135  C170  S    
C196  H37   S    
C95   H7    S    
C83   C98   S    
C29   C38   A    
C198  C202  A    
C7    C190  S    
C174  C218  S    
C112  C214  S    
C138  H58   S    
C49   H141  S    
C181  H90   S    
Cu1   O1    S    
C140  H64   S    
C8    C65   S    
C181  C203  A    
C168  H86   S    
C22   C177  S    
C123  H158  S    
C67   H21   S    
C75   C85   A    
C132  H40   S    
C20   O45   A    
C155  C159  A    
C34   C39   A    
C38   H134  S    
C96   C117  S    
C156  C160  A    
C184  H94   S    
C144  H76   S    
C136  C155  S    
C2    C120  S    
C32   C70   S    
C5    C227  A    
C79   C119  S    
C51   C53   A    
C90   C120  S    
Cu5   O34   S    
C137  H52   S    
C147  C151  A    
C171  O20   A    
C35   C105  T    
C61   C65   A    
C13   C121  S    
C169  O18   A    
C21   O46   A    
Cu3   O7    S    
C60   H148  S    
C142  H71   S    
C125  H2    S    
C22   O4    A    
C219  H125  S    
C127  H103  S    
C19   O48   A    
C102  C117  A    
C20   O2    A    
C150  C177  A    
C163  O13   A    
Cu4   O43   S    
C150  C155  A    
C140  H63   S    
C33   C122  S    
C2    C142  S    
C228  H124  S    
C157  C201  S    
C44   H137  S    
C123  H1    S    
C126  H92   S    
C56   C61   A    
C36   C39   A    
C138  H55   S    
C25   O7    A    
C114  C116  A    
C181  C186  A    
C43   C50   A    
Cu11  O39   S    
C140  C164  S    
C79   C124  T    
C128  C174  S    
C206  H111  S    
C188  C192  A    
C167  H85   S    
C2    C185  S    
C136  H50   S    
C171  O16   A    
C90   C135  T    
C205  C210  A    
C46   C106  T    
C6    C189  S    
C166  H84   S    
C31   H18   S    
C74   C85   A    
C143  H74   S    
C191  C195  A    
C139  H61   S    
C214  C223  A    
C71   C131  S    
C185  H46   S    
C44   C54   A    
C31   C69   S    
C45   C55   A    
Cu6   O9    S    
C159  C164  A    
C91   C99   A    
C88   C98   A    
C58   C62   A    
C102  H9    S    
C30   H149  S    
C215  C224  A    
C220  H136  S    
Cu12  O2    S    
Cu6   O18   S    
C166  C175  A    
C218  H30   S    
C75   H159  S    
C76   H160  S    
C137  H54   S    
Cu3   O42   S    
C109  C115  A    
C3    C7    A    
C192  H97   S    
C126  C130  S    
C168  C177  A    
C23   O5    A    
C60   C73   A    
C70   C130  S    
C142  H69   S    
C9    O25   A    
C103  C111  A    
Cu7   O21   S    
C47   H139  S    
C78   C83   A    
Cu10  O38   S    
Cu11  O30   S    
C124  C169  S    
C179  C201  A    
Cu7   O11   S    
C6    C228  A    
C204  C209  A    
C48   H140  S    
C119  C218  S    
C180  C184  A    
C111  C116  A    
C4    C226  A    
C3    H126  S    
C112  O10   A    
C210  H115  S    
C87   C98   A    
C14   C108  S    
C123  C217  S    
C63   C66   A    
C221  H104  S    
C199  C203  A    
C16   C116  S    
C104  C118  A    
C80   H163  S    
C183  H93   S    
C78   H162  S    
C147  H78   S    
C82   H165  S    
C170  O15   A    
C185  H36   S    
C67   H26   S    
C7    C208  A    
C194  H99   S    
C26   H127  S    
C101  C121  S    
C149  C154  A    
C19   C173  S    
C139  H59   S    
C100  H8    S    
C18   O42   A    
C174  H35   S    
Cu5   O16   S    
C49   C52   A    
C11   C106  S    
C24   C122  S    
C134  H47   S    
C151  C156  A    
C94   H6    S    
C207  H38   S    
C10   O27   A    
Cu4   O3    S    
C1    C213  S    
Cu1   O14   S    
C8    O22   A    
C102  C110  A    
C103  C118  A    
C58   H145  S    
C23   O6    A    
C76   C86   A    
Cu3   O4    S    
C180  H89   S    
Cu5   O23   S    
C45   C48   A    
C178  C200  A    
Cu10  Cu11  S    
C84   C99   S    
C12   C107  S    
C178  H87   S    
C147  C173  A    
C69   H22   S    
C27   C36   A    
C133  H44   S    
C216  C225  A    
C125  H81   S    
C149  C176  A    
Cu2   O6    S    
C160  C165  A    
C19   O44   A    
C192  C197  A    
C38   C40   A    
C134  C154  S    
C24   C144  S    
C141  H65   S    
C14   O30   A    
C138  C161  S    
C13   C143  S    
C153  C157  A    
C35   C128  S    
C112  O12   A    
C179  H88   S    
C199  H108  S    
C197  H106  S    
C133  H42   S    
C22   O47   A    
C74   C78   A    
C132  C151  S    
C222  C226  A    
C207  H68   S    
Cu12  O44   S    
C34   H131  S    
C67   C128  S    
C110  C115  A    
C182  H91   S    
Cu10  O29   S    
C211  C215  A    
C145  C171  S    
C109  H12   S    
C16   O39   A    
C146  C172  S    
C227  H123  S    
Cu2   Cu12  S    
C12   O29   A    
C143  H73   S    
C47   C49   A    
Cu8   Cu9   S    
C209  H113  S    
Cu4   O8    S    
C133  C153  S    
C28   C37   A    
C4    C187  S    
C64   H156  S    
C4    C204  A    
C91   C93   A    
Cu12  O5    S    
Cu8   O32   S    
C165  C173  A    
C36   H132  S    
C134  H45   S    
C163  C216  S    
Cu2   O45   S    
C97   C118  S    
C9    C66   S    
C63   H155  S    
C206  C211  A    
C26   C34   A    
C11   O32   A    
C212  C216  A    
C122  C221  S    
C32   H151  S    
C8    O24   A    
C220  H102  S    
Cu12  O40   S    
C75   C80   A    
C3    C225  A    
C187  C191  A    
C161  C166  A    
C71   H29   S    
C71   H25   S    
C104  H11   S    
C14   O35   A    
C156  C200  S    
C12   O33   A    
C179  C183  A    
C24   H33   S    
C56   H144  S    
C70   H23   S    
C152  C215  S    
C148  C175  A    
C6    C206  A    
C28   H129  S    
C195  H105  S    
C37   H133  S    
C138  H56   S    
C144  H77   S    
C190  C194  A    
C150  H82   S    
C141  H67   S    
C13   C196  S    
C43   H135  S    
C158  C162  A    
C189  C193  A    
C27   C41   A    
C159  C203  S    
C194  C199  A    
C21   C176  S    
C225  H121  S    
C89   C92   A    
C197  C201  A    
C212  H117  S    
Cu5   Cu7   S    
Cu9   O28   S    
C163  O34   A    
C104  C114  A    
C125  C219  S    
C44   C51   A    
C57   C107  T    
C91   H3    S    
C77   C86   A    
C130  C196  S    
Cu6   O10   S    
C158  C202  S    
C170  O19   A    
C89   H168  S    
C30   C119  S    
C81   C84   A    
C47   C55   A    
C195  C200  A    
C132  H39   S    
C62   C65   A    
C172  O17   A    
C103  H10   S    
C208  H112  S    
C32   H19   S    
C53   C73   S    
C30   C67   S    
C157  C161  A    
C144  H75   S    
C76   C81   A    
Cu7   O13   S    
C114  H16   S    
Cu6   O19   S    
C137  H53   S    
C15   O37   A    
C1    O9    A    
C10   O31   A    
C92   H4    S    
C58   C72   A    
C123  C128  S    
C31   H150  S    
C33   H20   S    
C28   C42   A    
C25   C86   S    
C142  H70   S    
C126  H13   S    
C182  C187  A    
C224  H120  S    
C17   O40   A    
C17   C41   S    
C127  C221  S    
C5    C205  A    
C162  C167  A    
C23   C85   S    
Cu3   Cu4   S    
C119  C217  S    
C184  C189  A    
C10   C105  S    
C68   C108  T    
C26   C41   A    
C167  C176  A    
