data_mof_unit_19577.cif
_audit_creation_date              2012-12-10T18:10:08-0500
_audit_creation_method            fapswitch 2.2
_symmetry_space_group_name_H-M    P1
_symmetry_Int_Tables_number       1
_space_group_crystal_system       triclinic
_cell_length_a                    18.474376
_cell_length_b                    18.502403
_cell_length_c                    59.757129
_cell_angle_alpha                 90.012995
_cell_angle_beta                  90.005125
_cell_angle_gamma                 89.977652
_cell_volume                      20426.2005846

loop_
_atom_site_label
_atom_site_type_symbol
_atom_type_description
_atom_site_fract_x
_atom_site_fract_y
_atom_site_fract_z
_atom_type_partial_charge
C1    C     C_R   0.499607 0.000036 0.810241 0.915635
C2    C     C_R   0.486698 0.935580 0.440723 -0.052726
C3    C     C_R   0.859724 0.640348 0.750006 0.870143
C4    C     C_R   0.359797 0.859794 0.250001 0.873900
C5    C     C_R   0.640594 0.139996 0.750093 0.864639
C6    C     C_R   0.859428 0.639863 0.250100 0.866060
C7    C     C_R   0.139965 0.359405 0.750125 0.870711
C8    C     C_R   0.748729 0.198282 0.732672 0.345260
C9    C     C_R   0.255965 0.797744 0.268424 0.349749
C10   C     C_R   0.802857 0.749764 0.732912 0.344056
C11   C     C_R   0.201008 0.254532 0.267986 0.356406
C12   C     C_R   0.250901 0.802041 0.732789 0.346645
C13   C     C_R   0.934508 0.496730 0.559053 -0.054585
C14   C     C_R   0.744061 0.202270 0.268420 0.349732
C15   C     C_R   0.196484 0.249683 0.733187 0.345285
C16   C     C_R   0.799001 0.745494 0.267986 0.356406
C17   C     C_R   0.750032 0.802949 0.266892 0.327071
C18   C     C_R   0.252455 0.199078 0.732410 0.350817
C19   C     C_R   0.798788 0.254286 0.268091 0.347813
C20   C     C_R   0.200212 0.746158 0.732086 0.351076
C21   C     C_R   0.249979 0.197077 0.266892 0.327077
C22   C     C_R   0.746898 0.800445 0.732152 0.349918
C23   C     C_R   0.201230 0.745735 0.268095 0.347818
C24   C     C_R   0.062647 0.479539 0.440738 -0.053368
C25   C     C_R   0.799501 0.254109 0.731987 0.350033
C26   C     C_R   0.248580 0.698468 0.232637 0.346269
C27   C     C_R   0.755139 0.298529 0.768218 0.348021
C28   C     C_R   0.303496 0.250363 0.233094 0.344793
C29   C     C_R   0.703086 0.756910 0.768497 0.358888
C30   C     C_R   0.751441 0.301483 0.232627 0.346292
C31   C     C_R   0.245899 0.700535 0.768035 0.346586
C32   C     C_R   0.696519 0.749637 0.233086 0.344804
C33   C     C_R   0.300637 0.246993 0.767780 0.345745
C34   C     C_R   0.248200 0.301299 0.767502 0.346755
C35   C     C_R   0.508374 0.934777 0.559099 -0.054271
C36   C     C_R   0.752325 0.698824 0.232341 0.350881
C37   C     C_R   0.300156 0.753011 0.767774 0.347044
C38   C     C_R   0.700789 0.245545 0.231931 0.350349
C39   C     C_R   0.752450 0.699774 0.767609 0.330518
C40   C     C_R   0.247688 0.301173 0.232348 0.350882
C41   C     C_R   0.700665 0.246276 0.767952 0.349474
C42   C     C_R   0.299225 0.754408 0.231938 0.350349
C43   C     C_R   0.803872 0.303665 0.750012 -0.398243
C44   C     C_R   0.197471 0.695398 0.250279 -0.395799
C45   C     C_R   0.697480 0.805100 0.750220 -0.394293
C46   C     C_R   0.513033 0.064185 0.440744 -0.052695
C47   C     C_R   0.303461 0.196323 0.249913 -0.390107
C48   C     C_R   0.196367 0.696114 0.749993 -0.397984
C49   C     C_R   0.802538 0.304597 0.250274 -0.395748
C50   C     C_R   0.303774 0.196322 0.750015 -0.398192
C51   C     C_R   0.696548 0.803684 0.249910 -0.390144
C52   C     C_R   0.802807 0.695320 0.250155 -0.393582
C53   C     C_R   0.195462 0.302690 0.750305 -0.396613
C54   C     C_R   0.695979 0.196459 0.250061 -0.397796
C55   C     C_R   0.302714 0.804453 0.750245 -0.396585
C56   C     C_R   0.197201 0.304690 0.250157 -0.393541
C57   C     C_R   0.065861 0.502400 0.559055 -0.054760
C58   C     C_R   0.804078 0.697020 0.750113 -0.391599
C59   C     C_R   0.304040 0.803524 0.250065 -0.397828
C60   C     C_R   0.697364 0.195482 0.750251 -0.395907
C61   C     C_R   0.487991 0.063243 0.582575 0.579995
C62   C     C_R   0.483882 0.937460 0.417256 0.571809
C63   C     C_R   0.935944 0.493250 0.582512 0.582054
C64   C     C_R   0.060316 0.476616 0.417278 0.572501
C65   C     C_R   0.511337 0.936440 0.582568 0.579951
C66   C     C_R   0.515938 0.062327 0.417277 0.571849
C67   C     C_R   0.064436 0.505879 0.582515 0.581967
C68   C     C_R   0.937620 0.520185 0.440755 -0.053355
C69   C     C_R   0.939921 0.523238 0.417297 0.572569
C70   C     C_R   0.990010 0.563844 0.082533 0.580896
C71   C     C_R   0.980946 0.438732 0.917287 0.570681
C72   C     C_R   0.435201 0.992264 0.082585 0.581417
C73   C     C_R   0.559518 0.978192 0.917243 0.575511
C74   C     C_R   0.010391 0.436532 0.082530 0.580730
C75   C     C_R   0.019712 0.561686 0.917281 0.571309
C76   C     C_R   0.563510 0.006621 0.082503 0.581446
C77   C     C_R   0.437406 0.020119 0.917299 0.574727
C78   C     C_R   0.450740 0.955967 0.629931 0.387178
C79   C     C_R   0.993463 0.565478 0.059072 -0.054541
C80   C     C_R   0.454373 0.047542 0.369891 0.368370
C81   C     C_R   0.040941 0.448076 0.629922 0.385610
C82   C     C_R   0.946590 0.461453 0.369864 0.371971
C83   C     C_R   0.548775 0.043846 0.629907 0.386838
C84   C     C_R   0.545553 0.952333 0.369885 0.368371
C85   C     C_R   0.959310 0.551371 0.629875 0.385240
C86   C     C_R   0.053528 0.538539 0.369867 0.371931
C87   C     C_R   0.950830 0.456431 0.129904 0.386703
C88   C     C_R   0.958086 0.551022 0.869867 0.369210
C89   C     C_R   0.540391 0.948008 0.129891 0.385391
C90   C     C_R   0.984133 0.436620 0.940745 -0.052970
C91   C     C_R   0.447154 0.958713 0.869765 0.366159
C92   C     C_R   0.049246 0.543879 0.129943 0.386638
C93   C     C_R   0.041936 0.449296 0.869837 0.374027
C94   C     C_R   0.458967 0.051468 0.129889 0.385346
C95   C     C_R   0.549727 0.041383 0.870022 0.387512
C96   C     C_R   0.455051 0.951758 0.653307 0.308424
C97   C     C_R   0.458928 0.051452 0.346492 0.267445
C98   C     C_R   0.045692 0.452423 0.653290 0.308781
C99   C     C_R   0.943327 0.466653 0.346476 0.268578
C100  C     C_R   0.544515 0.048150 0.653281 0.309068
C101  C     C_R   0.433588 0.995293 0.059119 -0.054400
C102  C     C_R   0.541052 0.948484 0.346483 0.267417
C103  C     C_R   0.954398 0.547124 0.653239 0.309157
C104  C     C_R   0.056733 0.533380 0.346476 0.268539
C105  C     C_R   0.955317 0.451899 0.153271 0.309514
C106  C     C_R   0.963043 0.554650 0.846467 0.268412
C107  C     C_R   0.545230 0.952256 0.153258 0.308742
C108  C     C_R   0.443933 0.964215 0.846381 0.272509
C109  C     C_R   0.044687 0.548317 0.153310 0.309740
C110  C     C_R   0.036664 0.445582 0.846462 0.267232
C111  C     C_R   0.454451 0.047505 0.153267 0.308532
C112  C     C_R   0.499994 0.999990 0.189706 0.896093
C113  C     C_R   0.561715 0.980848 0.940706 -0.052394
C114  C     C_R   0.553902 0.036587 0.846657 0.321568
C115  C     C_R   0.499758 0.999861 0.618042 -0.069908
C116  C     C_R   0.499951 0.999923 0.381783 -0.059791
C117  C     C_R   0.000174 0.499701 0.618009 -0.069412
C118  C     C_R   0.000076 0.499983 0.381781 -0.063848
C119  C     C_R   0.000063 0.500174 0.118029 -0.071786
C120  C     C_R   0.000154 0.500213 0.881772 -0.065652
C121  C     C_R   0.499592 0.999662 0.118016 -0.067705
C122  C     C_R   0.498550 0.999567 0.881789 -0.071331
C123  C     C_R   0.499677 0.999845 0.547228 -0.057594
C124  C     C_R   0.007155 0.434911 0.059066 -0.054486
C125  C     C_R   0.499840 0.999877 0.452609 -0.057934
C126  C     C_R   0.000181 0.499582 0.547186 -0.058230
C127  C     C_R   0.000139 0.499825 0.452614 -0.058266
C128  C     C_R   0.000356 0.500197 0.047200 -0.058088
C129  C     C_R   0.000461 0.500197 0.952615 -0.058326
C130  C     C_R   0.499131 0.999225 0.047207 -0.057857
C131  C     C_R   0.498584 0.998973 0.952607 -0.058338
C132  C     C_3   0.712983 0.155327 0.698120 0.204991
C133  C     C_3   0.755405 0.133021 0.677394 -0.765663
C134  C     C_3   0.310115 0.827103 0.301797 0.157489
C135  C     C_R   0.016713 0.563781 0.940746 -0.052687
C136  C     C_3   0.311318 0.882833 0.320537 -0.805380
C137  C     C_3   0.849473 0.717707 0.698410 0.206898
C138  C     C_3   0.872656 0.762716 0.678330 -0.769214
C139  C     C_3   0.177238 0.310779 0.301405 0.144238
C140  C     C_3   0.143295 0.295748 0.324144 -0.814263
C141  C     C_3   0.285597 0.845908 0.698240 0.204461
C142  C     C_3   0.242429 0.868340 0.677676 -0.768624
C143  C     C_3   0.689939 0.172944 0.301793 0.157438
C144  C     C_3   0.688734 0.117216 0.320525 -0.805301
C145  C     C_3   0.149091 0.280520 0.698671 0.207662
C146  C     C_R   0.564824 0.003297 0.059040 -0.054384
C147  C     C_3   0.125377 0.234878 0.678780 -0.772642
C148  C     C_3   0.822760 0.689276 0.301403 0.144200
C149  C     C_3   0.856702 0.704321 0.324146 -0.814294
C150  C     C_3   0.728021 0.855777 0.301295 0.205948
C151  C     C_3   0.765424 0.904823 0.318116 -0.751071
C152  C     C_3   0.301602 0.165130 0.698669 0.144960
C153  C     C_3   0.304409 0.103858 0.681655 -0.765830
C154  C     C_3   0.833399 0.300553 0.302245 0.199370
C155  C     C_3   0.853773 0.266784 0.324598 -0.757487
C156  C     C_3   0.168307 0.694497 0.698527 0.146799
C157  C     C_R   0.435357 0.017177 0.940763 -0.053747
C158  C     C_3   0.108577 0.691227 0.680976 -0.771481
C159  C     C_3   0.272022 0.144302 0.301294 0.205911
C160  C     C_3   0.234656 0.095258 0.318115 -0.750954
C161  C     C_3   0.695818 0.832366 0.698526 0.145401
C162  C     C_3   0.692721 0.892146 0.681024 -0.770285
C163  C     C_3   0.166620 0.699514 0.302247 0.199333
C164  C     C_3   0.146250 0.733306 0.324601 -0.757519
C165  C     C_3   0.831124 0.306168 0.698467 0.147433
C166  C     C_3   0.890507 0.309252 0.680806 -0.773109
C167  C     C_3   0.212756 0.655556 0.198088 0.203892
C168  C     C_R   0.484758 0.129967 0.547342 -0.138021
C169  C     C_3   0.255234 0.633619 0.177335 -0.764840
C170  C     C_3   0.806447 0.329457 0.801864 0.159004
C171  C     C_3   0.805741 0.385929 0.820394 -0.806877
C172  C     C_3   0.351606 0.219895 0.198639 0.207861
C173  C     C_3   0.375393 0.265872 0.178840 -0.772998
C174  C     C_3   0.681964 0.817924 0.801312 0.146012
C175  C     C_3   0.651796 0.805340 0.824690 -0.814575
C176  C     C_3   0.787289 0.344320 0.198078 0.203629
C177  C     C_3   0.744837 0.366269 0.177322 -0.764573
C178  C     C_3   0.196968 0.665270 0.801702 0.157531
C179  C     C_R   0.476009 0.871104 0.452485 -0.137713
C180  C     C_3   0.197838 0.605229 0.819122 -0.775638
C181  C     C_3   0.648426 0.780099 0.198630 0.207731
C182  C     C_3   0.624614 0.734125 0.178825 -0.772786
C183  C     C_3   0.338721 0.201026 0.801577 0.156340
C184  C     C_3   0.400885 0.202502 0.818307 -0.766279
C185  C     C_3   0.208258 0.340628 0.801959 0.195521
C186  C     C_3   0.245341 0.366296 0.823271 -0.767982
C187  C     C_3   0.801554 0.665141 0.198617 0.145044
C188  C     C_3   0.804460 0.604040 0.181546 -0.766630
C189  C     C_3   0.336291 0.796490 0.802114 0.198522
C190  C     C_R   0.869043 0.496775 0.547279 -0.137558
C191  C     C_3   0.359826 0.761643 0.824011 -0.756661
C192  C     C_3   0.670071 0.192564 0.198467 0.146181
C193  C     C_3   0.611294 0.189127 0.180615 -0.773816
C194  C     C_3   0.783331 0.654475 0.802253 0.206736
C195  C     C_3   0.750675 0.609359 0.820961 -0.742309
C196  C     C_3   0.198463 0.334819 0.198621 0.145039
C197  C     C_3   0.195540 0.395913 0.181557 -0.766683
C198  C     C_3   0.664544 0.201369 0.802158 0.189752
C199  C     C_3   0.644331 0.236663 0.824322 -0.754679
C200  C     C_3   0.329913 0.807338 0.198472 0.146230
C201  C     C_R   0.125731 0.462007 0.452505 -0.137349
C202  C     C_3   0.388699 0.810789 0.180627 -0.774033
C203  C     C_3   0.540845 0.160125 0.669538 0.105452
C204  C     C_3   0.562527 0.224140 0.655011 -0.786536
C205  C     C_3   0.531395 0.833096 0.334352 0.153681
C206  C     C_3   0.569720 0.771064 0.322585 -0.889488
C207  C     C_3   0.841695 0.548960 0.669097 0.105233
C208  C     C_3   0.779684 0.573293 0.654094 -0.785086
C209  C     C_3   0.168892 0.506239 0.334011 0.136948
C210  C     C_3   0.234415 0.533350 0.321145 -0.892164
C211  C     C_3   0.457526 0.839851 0.669627 0.106517
C212  C     C_R   0.514573 0.869721 0.547322 -0.138021
C213  C     C_3   0.434827 0.775872 0.655224 -0.787353
C214  C     C_3   0.468597 0.166873 0.334410 0.153715
C215  C     C_3   0.430291 0.228932 0.322658 -0.889495
C216  C     C_3   0.158151 0.449610 0.669314 0.106588
C217  C     C_3   0.220253 0.424412 0.654486 -0.786072
C218  C     C_3   0.831161 0.493828 0.334023 0.136895
C219  C     C_3   0.765608 0.466731 0.321161 -0.892137
C220  C     C_3   0.040936 0.660328 0.169524 0.102972
C221  C     C_3   0.061732 0.723836 0.154661 -0.784525
C222  C     C_3   0.014854 0.332424 0.833953 0.139669
C223  C     C_R   0.999989 0.500130 0.810242 0.939887
C224  C     C_R   0.523674 0.128651 0.452524 -0.137712
C225  C     C_3   0.046498 0.266794 0.822200 -0.886388
C226  C     C_3   0.342038 0.051042 0.169313 0.107893
C227  C     C_3   0.279898 0.076818 0.154596 -0.786921
C228  C     C_3   0.663243 0.021620 0.829216 0.066795
C229  C     C_3   0.719050 0.011940 0.847784 -0.764927
C230  C     C_3   0.959044 0.339813 0.169421 0.103343
C231  C     C_3   0.938209 0.276338 0.154539 -0.784620
C232  C     C_3   0.980278 0.669454 0.834618 0.150234
C233  C     C_3   0.946777 0.733313 0.822400 -0.891300
C234  C     C_3   0.657782 0.948840 0.169219 0.107536
C235  C     C_R   0.131318 0.502361 0.547279 -0.137570
C236  C     C_3   0.719753 0.923102 0.154427 -0.786754
C237  C     C_3   0.330704 0.988941 0.834293 0.140044
C238  C     C_3   0.265381 0.960358 0.821627 -0.888695
C239  C     C_3   0.663985 0.049184 0.617154 0.117515
C240  C     C_3   0.719089 0.096487 0.605239 -0.808747
C241  C     C_3   0.657863 0.941301 0.384617 0.125321
C242  C     C_3   0.710611 0.889135 0.395588 -0.800096
C243  C     C_3   0.961015 0.667135 0.617661 0.116705
C244  C     C_3   0.917657 0.725082 0.605598 -0.807426
C245  C     C_3   0.079740 0.648109 0.384619 0.120165
C246  C     C_R   0.874547 0.537648 0.452537 -0.137351
C247  C     C_3   0.138348 0.692898 0.395860 -0.800676
C248  C     C_3   0.335500 0.950964 0.617179 0.117649
C249  C     C_3   0.280184 0.903732 0.605322 -0.809061
C250  C     C_3   0.342033 0.058520 0.384599 0.125274
C251  C     C_3   0.289247 0.110656 0.395571 -0.800126
C252  C     C_3   0.038944 0.332331 0.617679 0.117192
C253  C     C_3   0.082281 0.274190 0.605692 -0.807694
C254  C     C_3   0.920424 0.351863 0.384594 0.120142
C255  C     C_3   0.861844 0.307054 0.395831 -0.800702
C256  C     C_3   0.164702 0.548227 0.117370 0.116956
C257  C     C_R   0.989515 0.630719 0.047299 -0.137708
C258  C     C_3   0.220341 0.594964 0.105479 -0.808246
C259  C     C_3   0.153440 0.429808 0.884292 0.119367
C260  C     C_3   0.201995 0.374239 0.895509 -0.800419
C261  C     C_3   0.460705 0.167021 0.117482 0.117676
C262  C     C_3   0.417170 0.224917 0.105456 -0.808306
C263  C     C_3   0.569284 0.153243 0.884101 0.115751
C264  C     C_3   0.624292 0.201390 0.895740 -0.802869
C265  C     C_3   0.835389 0.452057 0.117312 0.116998
C266  C     C_3   0.779803 0.405343 0.105379 -0.808201
C267  C     C_3   0.847525 0.568543 0.885304 0.124766
C268  C     C_R   0.970676 0.372665 0.952517 -0.137611
C269  C     C_3   0.797318 0.624816 0.895443 -0.801247
C270  C     C_3   0.538425 0.832313 0.117599 0.117630
C271  C     C_3   0.581769 0.774251 0.105578 -0.808332
C272  C     C_3   0.425360 0.847879 0.884258 0.121238
C273  C     C_3   0.368687 0.800585 0.895454 -0.801471
C274  C     C_R   0.368078 0.993827 0.047385 -0.137846
C275  C     C_R   0.625335 0.965223 0.952446 -0.137683
C276  C     C_R   0.011222 0.369676 0.047287 -0.137701
C277  C     C_R   0.030213 0.627733 0.952526 -0.137595
C278  C     C_R   0.630187 0.004620 0.047231 -0.137879
C279  C     C_R   0.999997 0.500008 0.189705 0.901068
C280  C     C_R   0.371836 0.032718 0.952566 -0.138025
C281  C     C_R   0.499899 0.999904 0.665129 -0.397109
C282  C     C_R   0.500002 0.999983 0.334731 -0.366649
C283  C     C_R   0.000076 0.499885 0.665114 -0.398670
C284  C     C_R   0.000018 0.500022 0.334722 -0.356466
C285  C     C_R   0.999996 0.500076 0.165127 -0.397672
C286  C     C_R   0.999946 0.500178 0.834715 -0.365006
C287  C     C_R   0.499916 0.999945 0.165112 -0.398041
C288  C     C_R   0.499399 0.999995 0.834743 -0.374912
C289  C     C_R   0.008969 0.566253 0.988096 0.040619
C290  C     C_R   0.000003 0.500008 0.310237 0.930489
C291  C     C_R   0.999226 0.433612 0.011719 0.040689
C292  C     C_R   0.432935 0.009758 0.988120 0.040721
C293  C     C_R   0.565514 0.995270 0.011691 0.040759
C294  C     C_R   0.992013 0.434141 0.988088 0.040670
C295  C     C_R   0.001710 0.566787 0.011727 0.040671
C296  C     C_R   0.564600 0.988181 0.988056 0.040688
C297  C     C_R   0.432306 0.002819 0.011761 0.040669
C298  C     C_R   0.505535 0.066223 0.488104 0.040699
C299  C     C_R   0.500908 0.933253 0.511734 0.040752
C300  C     C_R   0.934659 0.512332 0.488092 0.040598
C301  C     C_R   0.000007 0.499978 0.689706 0.897139
C302  C     C_R   0.066649 0.494259 0.511711 0.040676
C303  C     C_R   0.493995 0.933503 0.488088 0.040688
C304  C     C_R   0.498531 0.066456 0.511747 0.040757
C305  C     C_R   0.065652 0.487099 0.488081 0.040586
C306  C     C_R   0.933684 0.505036 0.511716 0.040678
C307  C     C_R   0.000492 0.500196 0.976343 0.081742
C308  C     C_R   0.000437 0.500200 0.023471 0.082130
C309  C     C_R   0.498703 0.998956 0.976339 0.081669
C310  C     C_R   0.498982 0.999098 0.023475 0.081914
C311  C     C_R   0.499790 0.999868 0.476345 0.081415
C312  C     C_R   0.500002 0.999998 0.310249 0.935422
C313  C     C_R   0.499703 0.999851 0.523492 0.081741
C314  C     C_R   0.000151 0.499752 0.476339 0.081878
C315  C     C_R   0.000171 0.499622 0.523461 0.082254
C316  C     C_R   0.025196 0.629359 0.975760 -0.216490
C317  C     C_R   0.006071 0.368808 0.024053 -0.215778
C318  C     C_R   0.370217 0.027965 0.975800 -0.215971
C319  C     C_R   0.630704 0.999512 0.024000 -0.215482
C320  C     C_R   0.975764 0.371034 0.975747 -0.216558
C321  C     C_R   0.994829 0.631592 0.024068 -0.215749
C322  C     C_R   0.627178 0.969919 0.975679 -0.216288
C323  C     C_R   0.499981 0.999963 0.689705 0.900758
C324  C     C_R   0.367271 0.998690 0.024149 -0.215492
C325  C     C_R   0.518904 0.129986 0.475759 -0.216124
C326  C     C_R   0.509801 0.868715 0.524086 -0.215371
C327  C     C_R   0.872599 0.532585 0.475766 -0.216414
C328  C     C_R   0.131857 0.497071 0.524046 -0.215682
C329  C     C_R   0.480681 0.869750 0.475722 -0.216099
C330  C     C_R   0.489584 0.130985 0.524107 -0.215425
C331  C     C_R   0.127702 0.466925 0.475738 -0.216401
C332  C     C_R   0.868485 0.502146 0.524049 -0.215749
C333  C     C_R   0.640569 0.860184 0.750091 0.861651
C334  C     C_R   0.490956 0.064908 0.559108 -0.054172
C335  C     C_R   0.359543 0.140138 0.249934 0.873376
C336  C     C_R   0.140307 0.640119 0.749981 0.874376
C337  C     C_R   0.859377 0.360028 0.250100 0.865102
C338  C     C_R   0.359836 0.140284 0.749978 0.876235
C339  C     C_R   0.640461 0.859860 0.249932 0.873546
C340  C     C_R   0.859770 0.359810 0.749995 0.873911
C341  C     C_R   0.140623 0.639975 0.250102 0.865178
C342  C     C_R   0.640210 0.140198 0.250001 0.873825
C343  C     C_R   0.359399 0.860018 0.750099 0.867280
C344  C     C_R   0.140572 0.360142 0.250100 0.865916
H1    H     H_    0.694052 0.212166 0.696258 0.054849
H2    H     H_    0.324727 0.936816 0.313679 0.285458
H3    H     H_    0.591720 0.807790 0.824328 0.265578
H4    H     H_    0.806446 0.287541 0.196262 0.055168
H5    H     H_    0.836047 0.378859 0.198797 0.208525
H6    H     H_    0.734508 0.425414 0.177565 0.252117
H7    H     H_    0.775942 0.352655 0.162007 0.228580
H8    H     H_    0.692255 0.337578 0.176807 0.258124
H9    H     H_    0.141037 0.670318 0.795001 0.113495
H10   H     H_    0.210445 0.716485 0.810273 0.109148
H11   H     H_    0.251972 0.601954 0.827121 0.239153
H12   H     H_    0.156734 0.616066 0.832250 0.176561
H13   H     H_    0.793075 0.698052 0.695948 0.055934
H14   H     H_    0.185850 0.552523 0.811086 0.290399
H15   H     H_    0.704688 0.799772 0.195894 0.056079
H16   H     H_    0.613039 0.828288 0.198886 0.212026
H17   H     H_    0.565822 0.722241 0.180094 0.256429
H18   H     H_    0.634850 0.763408 0.162929 0.225104
H19   H     H_    0.654803 0.682412 0.178579 0.260622
H20   H     H_    0.332092 0.144732 0.795384 0.114683
H21   H     H_    0.288701 0.215874 0.810616 0.108694
H22   H     H_    0.405700 0.257146 0.825836 0.238524
H23   H     H_    0.391123 0.162704 0.831872 0.173961
H24   H     H_    0.884764 0.669463 0.698798 0.211077
H25   H     H_    0.452565 0.189203 0.809792 0.293405
H26   H     H_    0.194066 0.282469 0.803750 0.065780
H27   H     H_    0.156693 0.370756 0.800468 0.211998
H28   H     H_    0.251359 0.426012 0.822959 0.251395
H29   H     H_    0.212446 0.350838 0.838057 0.231630
H30   H     H_    0.299705 0.341391 0.824824 0.251700
H31   H     H_    0.856993 0.673255 0.205440 0.108896
H32   H     H_    0.785818 0.715235 0.189735 0.106910
H33   H     H_    0.752151 0.599790 0.172524 0.227099
H34   H     H_    0.848109 0.614383 0.169185 0.179442
H35   H     H_    0.931562 0.774329 0.679307 0.254773
H36   H     H_    0.815058 0.551867 0.190076 0.297396
H37   H     H_    0.277887 0.810907 0.803233 0.062484
H38   H     H_    0.366669 0.847745 0.800341 0.212204
H39   H     H_    0.342101 0.795480 0.838339 0.232335
H40   H     H_    0.335390 0.707207 0.825723 0.248799
H41   H     H_    0.419706 0.756373 0.824437 0.254522
H42   H     H_    0.675975 0.137815 0.205930 0.108330
H43   H     H_    0.721785 0.206318 0.190133 0.107500
H44   H     H_    0.609462 0.240431 0.171028 0.227518
H45   H     H_    0.622429 0.144019 0.168850 0.180210
H46   H     H_    0.861543 0.732895 0.662586 0.226458
H47   H     H_    0.557666 0.180580 0.188521 0.296261
H48   H     H_    0.783502 0.711598 0.807734 0.100925
H49   H     H_    0.840269 0.637287 0.799962 0.191166
H50   H     H_    0.755030 0.551056 0.816841 0.255717
H51   H     H_    0.779859 0.620037 0.836853 0.221320
H52   H     H_    0.692700 0.623375 0.823205 0.251850
H53   H     H_    0.143026 0.326692 0.205440 0.108900
H54   H     H_    0.214213 0.284725 0.189735 0.106912
H55   H     H_    0.247847 0.400173 0.172537 0.227109
H56   H     H_    0.151893 0.385555 0.169193 0.179457
H57   H     H_    0.842736 0.814579 0.678021 0.260242
H58   H     H_    0.184931 0.448086 0.190092 0.297382
H59   H     H_    0.722254 0.183906 0.802763 0.054777
H60   H     H_    0.631622 0.151738 0.800461 0.199106
H61   H     H_    0.663922 0.203114 0.838477 0.233854
H62   H     H_    0.669170 0.290971 0.825631 0.252178
H63   H     H_    0.584604 0.242355 0.825540 0.248133
H64   H     H_    0.323972 0.862094 0.205935 0.108296
H65   H     H_    0.278211 0.793545 0.190132 0.107564
H66   H     H_    0.390569 0.759475 0.171039 0.227478
H67   H     H_    0.377543 0.855875 0.168861 0.180223
H68   H     H_    0.160077 0.365493 0.296016 0.143868
H69   H     H_    0.442317 0.819380 0.188539 0.296296
H70   H     H_    0.549886 0.174914 0.687325 0.115484
H71   H     H_    0.481373 0.150724 0.667731 0.111521
H72   H     H_    0.551096 0.212209 0.637155 0.300148
H73   H     H_    0.531071 0.272646 0.660036 0.194815
H74   H     H_    0.621100 0.235798 0.657059 0.240490
H75   H     H_    0.481019 0.845429 0.324850 0.107136
H76   H     H_    0.516823 0.814595 0.351525 0.190003
H77   H     H_    0.622137 0.759474 0.330948 0.261010
H78   H     H_    0.535426 0.721841 0.323283 0.221134
H79   H     H_    0.237175 0.312371 0.303407 0.080560
H80   H     H_    0.579263 0.784824 0.304751 0.227183
H81   H     H_    0.826072 0.559038 0.686760 0.115265
H82   H     H_    0.848445 0.489150 0.667490 0.110380
H83   H     H_    0.792106 0.560510 0.636360 0.301094
H84   H     H_    0.729256 0.544654 0.658933 0.194321
H85   H     H_    0.770895 0.632383 0.655849 0.241680
H86   H     H_    0.147579 0.458007 0.325073 0.113993
H87   H     H_    0.187121 0.490168 0.351081 0.193362
H88   H     H_    0.256476 0.582638 0.329261 0.263219
H89   H     H_    0.277013 0.490990 0.320986 0.220368
H90   H     H_    0.157400 0.240428 0.329822 0.252549
H91   H     H_    0.219074 0.545629 0.303589 0.229429
H92   H     H_    0.448574 0.825481 0.687450 0.115058
H93   H     H_    0.517062 0.848486 0.667716 0.111538
H94   H     H_    0.446236 0.787326 0.637339 0.299972
H95   H     H_    0.465674 0.727036 0.660298 0.194740
H96   H     H_    0.376120 0.765048 0.657340 0.240444
H97   H     H_    0.518997 0.154573 0.324917 0.107156
H98   H     H_    0.483127 0.185328 0.351594 0.190027
H99   H     H_    0.377849 0.240487 0.331009 0.261030
H100  H     H_    0.464573 0.278160 0.323387 0.221136
H101  H     H_    0.163776 0.334940 0.336697 0.189825
H102  H     H_    0.420798 0.215223 0.304814 0.227169
H103  H     H_    0.173234 0.439599 0.687026 0.115838
H104  H     H_    0.152047 0.509469 0.667615 0.110102
H105  H     H_    0.208428 0.437182 0.636712 0.300687
H106  H     H_    0.270897 0.452487 0.659432 0.194412
H107  H     H_    0.228268 0.365230 0.656300 0.241714
H108  H     H_    0.852476 0.542048 0.325087 0.114032
H109  H     H_    0.812965 0.509916 0.351096 0.193302
H110  H     H_    0.743545 0.417454 0.329275 0.263225
H111  H     H_    0.723022 0.509104 0.321010 0.220366
H112  H     H_    0.664071 0.121006 0.698838 0.209116
H113  H     H_    0.083471 0.300718 0.323034 0.266486
H114  H     H_    0.780917 0.454437 0.303602 0.229423
H115  H     H_    0.050669 0.675905 0.187211 0.115542
H116  H     H_    0.981439 0.650573 0.168019 0.111116
H117  H     H_    0.049425 0.711216 0.136907 0.300364
H118  H     H_    0.030416 0.772460 0.159661 0.194358
H119  H     H_    0.120376 0.735692 0.156387 0.241589
H120  H     H_    0.966944 0.350576 0.824166 0.112714
H121  H     H_    0.997173 0.315332 0.850989 0.189108
H122  H     H_    0.096388 0.248694 0.830925 0.263901
H123  H     H_    0.006501 0.222012 0.822375 0.218461
H124  H     H_    0.304790 0.789210 0.696229 0.055385
H125  H     H_    0.059145 0.280195 0.804522 0.228437
H126  H     H_    0.327285 0.060954 0.187057 0.115491
H127  H     H_    0.347688 0.991171 0.167528 0.110303
H128  H     H_    0.291325 0.064048 0.136796 0.300605
H129  H     H_    0.229113 0.049119 0.159600 0.194445
H130  H     H_    0.272378 0.136050 0.156457 0.241436
H131  H     H_    0.691642 0.043348 0.814304 0.126780
H132  H     H_    0.641096 0.968151 0.824118 0.113658
H133  H     H_    0.694364 0.983972 0.862327 0.285936
H134  H     H_    0.764793 0.978595 0.841552 0.190572
H135  H     H_    0.334336 0.880496 0.698850 0.209409
H136  H     H_    0.740075 0.065415 0.853173 0.267513
H137  H     H_    0.949345 0.324203 0.187104 0.115428
H138  H     H_    0.018541 0.349554 0.167910 0.111127
H139  H     H_    0.950448 0.289007 0.136787 0.300438
H140  H     H_    0.969557 0.227711 0.159511 0.194381
H141  H     H_    0.879576 0.264460 0.156278 0.241453
H142  H     H_    0.030710 0.653970 0.825597 0.107452
H143  H     H_    0.994289 0.687427 0.851888 0.192724
H144  H     H_    0.894592 0.748435 0.830353 0.261031
H145  H     H_    0.984036 0.780324 0.823191 0.220879
H146  H     H_    0.231811 0.927419 0.678141 0.252839
H147  H     H_    0.937605 0.719468 0.804549 0.228497
H148  H     H_    0.672767 0.938939 0.186945 0.115586
H149  H     H_    0.652065 0.008706 0.167450 0.110290
H150  H     H_    0.708065 0.935811 0.136641 0.300527
H151  H     H_    0.770571 0.950877 0.159365 0.194456
H152  H     H_    0.727370 0.863885 0.156287 0.241523
H153  H     H_    0.350012 0.038342 0.825485 0.111003
H154  H     H_    0.312755 0.003717 0.851506 0.192493
H155  H     H_    0.245174 0.910185 0.829677 0.261617
H156  H     H_    0.221535 0.001424 0.821812 0.219811
H157  H     H_    0.273200 0.855423 0.662237 0.227863
H158  H     H_    0.280208 0.949113 0.803961 0.230687
H159  H     H_    0.657502 0.998225 0.607406 0.138354
H160  H     H_    0.685488 0.036255 0.634124 0.153405
H161  H     H_    0.727265 0.147465 0.614731 0.257186
H162  H     H_    0.771593 0.067528 0.604000 0.203126
H163  H     H_    0.699701 0.109584 0.588116 0.261148
H164  H     H_    0.650765 0.988696 0.395908 0.139704
H165  H     H_    0.681893 0.959691 0.368479 0.141165
H166  H     H_    0.719550 0.841656 0.384546 0.260174
H167  H     H_    0.763226 0.916566 0.398502 0.201445
H168  H     H_    0.189978 0.839404 0.677205 0.258734
H169  H     H_    0.688614 0.870465 0.411892 0.261240
H170  H     H_    0.012404 0.658210 0.608281 0.136973
H171  H     H_    0.973708 0.687275 0.634806 0.155009
H172  H     H_    0.866385 0.735729 0.614736 0.257573
H173  H     H_    0.949553 0.775866 0.604769 0.202841
H174  H     H_    0.904869 0.707053 0.588312 0.260793
H175  H     H_    0.031390 0.647444 0.395760 0.140640
H176  H     H_    0.065316 0.674662 0.368475 0.142876
H177  H     H_    0.187093 0.695290 0.385004 0.258041
H178  H     H_    0.118292 0.748698 0.398768 0.202792
H179  H     H_    0.634921 0.175704 0.294290 0.113773
H180  H     H_    0.153219 0.668348 0.412189 0.261481
H181  H     H_    0.342149 0.001785 0.607381 0.138441
H182  H     H_    0.314088 0.964172 0.634140 0.153481
H183  H     H_    0.271845 0.852894 0.614865 0.257189
H184  H     H_    0.227785 0.932874 0.604067 0.203104
H185  H     H_    0.299472 0.890367 0.588208 0.261212
H186  H     H_    0.349116 0.011109 0.395878 0.139712
H187  H     H_    0.318043 0.040148 0.368450 0.141171
H188  H     H_    0.280322 0.158150 0.384540 0.260168
H189  H     H_    0.236632 0.083209 0.398462 0.201454
H190  H     H_    0.701927 0.226211 0.309347 0.111005
H191  H     H_    0.311202 0.129306 0.411886 0.261239
H192  H     H_    0.987766 0.341458 0.608207 0.137077
H193  H     H_    0.025850 0.312262 0.634799 0.155069
H194  H     H_    0.133338 0.263341 0.614923 0.257579
H195  H     H_    0.050189 0.223538 0.604804 0.202833
H196  H     H_    0.095461 0.292146 0.588431 0.260838
H197  H     H_    0.968793 0.352526 0.395729 0.140610
H198  H     H_    0.934824 0.325329 0.368442 0.142866
H199  H     H_    0.813079 0.304664 0.384981 0.258024
H200  H     H_    0.881916 0.251254 0.398724 0.202802
H201  H     H_    0.742496 0.114194 0.328757 0.242660
H202  H     H_    0.847001 0.331585 0.412168 0.261478
H203  H     H_    0.157940 0.497221 0.107663 0.137789
H204  H     H_    0.185871 0.535305 0.134381 0.153057
H205  H     H_    0.228799 0.645976 0.114929 0.257092
H206  H     H_    0.272627 0.565574 0.104336 0.202986
H207  H     H_    0.201285 0.608033 0.088318 0.261052
H208  H     H_    0.150268 0.478227 0.895339 0.139841
H209  H     H_    0.178653 0.445340 0.868037 0.143142
H210  H     H_    0.206921 0.325542 0.884740 0.258200
H211  H     H_    0.256692 0.397526 0.898209 0.202423
H212  H     H_    0.647607 0.132275 0.333240 0.182758
H213  H     H_    0.178814 0.358370 0.911940 0.261488
H214  H     H_    0.511813 0.157833 0.107981 0.137499
H215  H     H_    0.473920 0.187365 0.134565 0.155363
H216  H     H_    0.366180 0.235824 0.114714 0.257585
H217  H     H_    0.449176 0.275605 0.104477 0.202941
H218  H     H_    0.403862 0.206686 0.088228 0.260920
H219  H     H_    0.519509 0.151190 0.894612 0.139593
H220  H     H_    0.555985 0.177964 0.867588 0.147768
H221  H     H_    0.674338 0.205118 0.885503 0.256774
H222  H     H_    0.601460 0.256451 0.897961 0.203587
H223  H     H_    0.765506 0.073839 0.677686 0.252975
H224  H     H_    0.675306 0.063236 0.313660 0.285461
H225  H     H_    0.637952 0.178725 0.912427 0.261076
H226  H     H_    0.842108 0.503134 0.107645 0.137771
H227  H     H_    0.814196 0.464844 0.134330 0.153167
H228  H     H_    0.771384 0.354265 0.114791 0.257113
H229  H     H_    0.727490 0.434692 0.104251 0.202976
H230  H     H_    0.798884 0.392398 0.088211 0.261030
H231  H     H_    0.853046 0.523104 0.897400 0.141094
H232  H     H_    0.822165 0.548115 0.869594 0.137104
H233  H     H_    0.790013 0.670497 0.883595 0.258497
H234  H     H_    0.743703 0.600194 0.898953 0.202322
H235  H     H_    0.205450 0.300054 0.696035 0.055414
H236  H     H_    0.820567 0.645551 0.911340 0.261968
H237  H     H_    0.487200 0.841422 0.108150 0.137498
H238  H     H_    0.525419 0.812175 0.134717 0.155400
H239  H     H_    0.632873 0.763422 0.114786 0.257572
H240  H     H_    0.549721 0.723572 0.104687 0.202947
H241  H     H_    0.594862 0.792273 0.088317 0.260905
H242  H     H_    0.473739 0.850272 0.895368 0.141070
H243  H     H_    0.440699 0.822223 0.868053 0.142920
H244  H     H_    0.319978 0.796456 0.884630 0.257875
H245  H     H_    0.390981 0.745575 0.898239 0.203137
H246  H     H_    0.113879 0.328832 0.698937 0.211847
H247  H     H_    0.352997 0.824221 0.911841 0.261564
H248  H     H_    0.477192 0.180734 0.556072 0.186994
H249  H     H_    0.464994 0.820985 0.443752 0.187673
H250  H     H_    0.817721 0.493873 0.556000 0.186909
H251  H     H_    0.174402 0.445503 0.443777 0.187833
H252  H     H_    0.522114 0.818950 0.556045 0.186984
H253  H     H_    0.534727 0.178777 0.443807 0.187675
H254  H     H_    0.182646 0.505227 0.556001 0.186908
H255  H     H_    0.825868 0.554205 0.443822 0.187841
H256  H     H_    0.983463 0.681696 0.056024 0.186932
H257  H     H_    0.066496 0.223314 0.679935 0.255822
H258  H     H_    0.957253 0.323118 0.943793 0.187571
H259  H     H_    0.316877 0.990019 0.056141 0.186901
H260  H     H_    0.674488 0.950331 0.943698 0.187463
H261  H     H_    0.017227 0.318699 0.056008 0.186937
H262  H     H_    0.043589 0.677284 0.943805 0.187516
H263  H     H_    0.681498 0.008524 0.055925 0.186920
H264  H     H_    0.322602 0.047635 0.943865 0.187548
H265  H     H_    0.036927 0.680334 0.983737 0.143013
H266  H     H_    0.010281 0.316668 0.016076 0.142767
H267  H     H_    0.319612 0.041446 0.983780 0.142866
H268  H     H_    0.136069 0.264259 0.662930 0.225551
H269  H     H_    0.683017 0.001647 0.016014 0.142672
H270  H     H_    0.964036 0.320061 0.983719 0.143028
H271  H     H_    0.990694 0.683735 0.016096 0.142746
H272  H     H_    0.677854 0.956403 0.983611 0.142901
H273  H     H_    0.314860 0.996483 0.016222 0.142631
H274  H     H_    0.528510 0.181431 0.483712 0.142908
H275  H     H_    0.515860 0.816723 0.516136 0.142621
H276  H     H_    0.822391 0.547474 0.483752 0.143123
H277  H     H_    0.184226 0.497992 0.516066 0.142834
H278  H     H_    0.471046 0.818297 0.483660 0.142906
H279  H     H_    0.155266 0.182992 0.678533 0.260411
H280  H     H_    0.483532 0.182979 0.516165 0.142627
H281  H     H_    0.177918 0.451992 0.483711 0.143107
H282  H     H_    0.816111 0.501239 0.516070 0.142850
H283  H     H_    0.839914 0.634553 0.296013 0.143871
H284  H     H_    0.762822 0.687694 0.303401 0.080586
H285  H     H_    0.842604 0.759647 0.329826 0.252548
H286  H     H_    0.836215 0.665142 0.336695 0.189812
H287  H     H_    0.724379 0.146603 0.662060 0.228311
H288  H     H_    0.916526 0.699343 0.323039 0.266487
H289  H     H_    0.729273 0.800092 0.307956 0.106889
H290  H     H_    0.670688 0.872765 0.300154 0.196688
H291  H     H_    0.762204 0.961869 0.312463 0.263272
H292  H     H_    0.738762 0.899860 0.334693 0.212270
H293  H     H_    0.823235 0.889327 0.319782 0.255090
H294  H     H_    0.357067 0.173281 0.705462 0.108424
H295  H     H_    0.285905 0.215140 0.689740 0.107384
H296  H     H_    0.252087 0.099595 0.672640 0.226957
H297  H     H_    0.348069 0.114013 0.669283 0.179816
H298  H     H_    0.808099 0.161510 0.676866 0.257696
H299  H     H_    0.314928 0.051753 0.690234 0.297276
H300  H     H_    0.775348 0.316672 0.302707 0.063546
H301  H     H_    0.865410 0.350787 0.300383 0.210314
H302  H     H_    0.835346 0.301997 0.338517 0.234062
H303  H     H_    0.827864 0.213099 0.326409 0.249974
H304  H     H_    0.913431 0.260134 0.325671 0.251739
H305  H     H_    0.175060 0.639532 0.705768 0.108432
H306  H     H_    0.219439 0.708899 0.689964 0.107325
H307  H     H_    0.106015 0.742754 0.671519 0.226827
H308  H     H_    0.119257 0.646425 0.669056 0.179816
H309  H     H_    0.365130 0.824355 0.294294 0.113768
H310  H     H_    0.055424 0.682268 0.689141 0.296994
H311  H     H_    0.270755 0.199993 0.307958 0.106843
H312  H     H_    0.329361 0.127336 0.300150 0.196597
H313  H     H_    0.237893 0.038208 0.312460 0.263279
H314  H     H_    0.261333 0.100250 0.334691 0.212359
H315  H     H_    0.176841 0.110733 0.319784 0.255041
H316  H     H_    0.640644 0.825409 0.705659 0.109106
H317  H     H_    0.710642 0.781420 0.689951 0.106823
H318  H     H_    0.744748 0.895396 0.671814 0.228167
H319  H     H_    0.648651 0.881114 0.668866 0.179896
H320  H     H_    0.298142 0.773833 0.309345 0.110976
H321  H     H_    0.682694 0.945022 0.689201 0.296397
H322  H     H_    0.224670 0.683393 0.302712 0.063587
H323  H     H_    0.134605 0.649280 0.300382 0.210280
H324  H     H_    0.164658 0.698097 0.338518 0.234026
H325  H     H_    0.172179 0.786983 0.326417 0.249974
H326  H     H_    0.086594 0.739980 0.325668 0.251763
H327  H     H_    0.824837 0.361095 0.705782 0.108252
H328  H     H_    0.779739 0.292113 0.689989 0.107450
H329  H     H_    0.892839 0.257646 0.671377 0.227551
H330  H     H_    0.879632 0.353952 0.668874 0.179798
H331  H     H_    0.257562 0.885843 0.328769 0.242656
H332  H     H_    0.943827 0.318234 0.688868 0.296487
H333  H     H_    0.193559 0.712321 0.196273 0.055230
H334  H     H_    0.164026 0.620982 0.198800 0.208862
H335  H     H_    0.265564 0.574475 0.177568 0.252032
H336  H     H_    0.224140 0.647244 0.162019 0.228648
H337  H     H_    0.307815 0.662312 0.176833 0.258234
H338  H     H_    0.862170 0.326295 0.794893 0.113395
H339  H     H_    0.793613 0.276496 0.809477 0.111451
H340  H     H_    0.750371 0.391854 0.827353 0.248135
H341  H     H_    0.842842 0.369641 0.834102 0.181064
H342  H     H_    0.352459 0.867786 0.333250 0.182767
H343  H     H_    0.823307 0.438856 0.813658 0.282463
H344  H     H_    0.295352 0.200196 0.195900 0.056146
H345  H     H_    0.387017 0.171725 0.198890 0.212132
H346  H     H_    0.434181 0.277779 0.180112 0.256460
H347  H     H_    0.365163 0.236577 0.162941 0.225027
H348  H     H_    0.345185 0.317574 0.178598 0.260686
H349  H     H_    0.662397 0.871343 0.795472 0.133255
H350  H     H_    0.742048 0.821368 0.802457 0.079516
H351  H     H_    0.668982 0.751656 0.831010 0.251398
H352  H     H_    0.672332 0.847368 0.836323 0.199939
N1    N     N_R   0.499690 0.999846 0.593898 -0.305377
N2    N     N_R   0.499928 0.999901 0.405935 -0.309849
N3    N     N_R   0.000189 0.499597 0.593854 -0.305231
N4    N     N_R   0.000109 0.499952 0.405943 -0.310802
N5    N     N_R   0.000143 0.500183 0.093872 -0.305738
N6    N     N_R   0.000315 0.500202 0.905938 -0.311163
N7    N     N_R   0.499428 0.999514 0.093872 -0.304850
N8    N     N_R   0.498425 0.999206 0.905939 -0.308166
O1    O     O_3   0.500000 1.000000 0.750000 -0.515601
O2    O     O_R   0.500000 0.060550 0.200300 -0.650403
O3    O     O_3   0.349292 0.754690 0.214618 -0.529142
O4    O     O_3   0.584970 0.099565 0.664427 -0.604724
O5    O     O_3   0.577273 0.894215 0.335150 -0.592920
O6    O     O_3   0.904748 0.589928 0.664337 -0.603489
O7    O     O_3   0.115749 0.561075 0.335152 -0.600759
O8    O     O_3   0.414074 0.900848 0.664487 -0.604659
O9    O     O_3   0.422725 0.105745 0.335170 -0.592911
O10   O     O_3   0.094829 0.409198 0.664451 -0.603043
O11   O     O_3   0.884285 0.438974 0.335154 -0.600769
O12   O     O_3   0.085070 0.599715 0.164485 -0.604795
O13   O     O_R   0.060550 0.500000 0.799700 -0.653577
O14   O     O_3   0.067289 0.387939 0.835180 -0.598047
O15   O     O_3   0.405566 0.091073 0.164412 -0.603255
O16   O     O_3   0.609230 0.071939 0.835581 -0.608881
O17   O     O_3   0.914913 0.400447 0.164407 -0.604688
O18   O     O_3   0.930770 0.611219 0.835096 -0.596021
O19   O     O_3   0.594219 0.908769 0.164386 -0.603215
O20   O     O_3   0.385512 0.935589 0.834973 -0.598100
O21   O     O_3   0.597669 0.086728 0.618547 -0.548849
O22   O     O_3   0.591276 0.905731 0.381125 -0.547747
O23   O     O_3   0.919795 0.603037 0.618513 -0.548094
O24   O     O_R   0.939450 0.500000 0.200300 -0.652092
O25   O     O_3   0.106044 0.577435 0.381073 -0.546707
O26   O     O_3   0.401678 0.913186 0.618594 -0.548922
O27   O     O_3   0.408619 0.094110 0.381136 -0.547775
O28   O     O_3   0.080416 0.396258 0.618609 -0.548038
O29   O     O_3   0.894101 0.422536 0.381067 -0.546693
O30   O     O_3   0.098675 0.586318 0.118645 -0.547849
O31   O     O_3   0.084210 0.399429 0.881020 -0.544513
O32   O     O_3   0.419343 0.103042 0.118524 -0.549011
O33   O     O_3   0.599122 0.083581 0.881435 -0.545370
O34   O     O_3   0.901453 0.414024 0.118564 -0.547879
O35   O     O_R   1.000000 0.560550 0.299700 -0.644100
O36   O     O_3   0.915431 0.600606 0.881047 -0.548198
O37   O     O_3   0.579839 0.896279 0.118531 -0.548954
O38   O     O_3   0.396220 0.917506 0.880862 -0.546605
O39   O     O_R   0.000000 0.439450 0.700300 -0.650454
O40   O     O_R   0.439450 1.000000 0.299700 -0.646436
O41   O     O_R   0.560550 0.000000 0.700300 -0.650834
O42   O     O_R   0.000000 0.439450 0.299700 -0.644069
O43   O     O_R   0.000000 0.560550 0.700300 -0.650803
O44   O     O_R   0.560550 1.000000 0.299700 -0.646483
O45   O     O_3   0.500000 0.000000 0.250000 -0.515332
O46   O     O_R   0.439450 0.000000 0.700300 -0.652372
O47   O     O_R   0.585450 0.853690 0.762850 -0.605182
O48   O     O_R   0.414550 0.146310 0.237150 -0.624099
O49   O     O_R   0.146310 0.585450 0.762850 -0.606340
O50   O     O_R   0.853690 0.414550 0.237150 -0.621671
O51   O     O_R   0.414550 0.146310 0.762850 -0.606352
O52   O     O_R   0.585450 0.853690 0.237150 -0.624085
O53   O     O_R   0.853690 0.414550 0.762850 -0.604012
O54   O     O_R   0.146310 0.585450 0.237150 -0.621703
O55   O     O_R   0.585450 0.146310 0.237150 -0.602527
O56   O     O_3   0.000000 0.500000 0.750000 -0.515128
O57   O     O_R   0.414550 0.853690 0.762850 -0.612582
O58   O     O_R   0.146310 0.414550 0.237150 -0.604059
O59   O     O_R   0.853690 0.585450 0.762850 -0.611951
O60   O     O_R   0.414550 0.853690 0.237150 -0.602583
O61   O     O_R   0.585450 0.146310 0.762850 -0.617279
O62   O     O_R   0.853690 0.585450 0.237150 -0.604057
O63   O     O_R   0.146310 0.414550 0.762850 -0.616935
O64   O     O_R   0.085450 0.353690 0.262850 -0.605613
O65   O     O_R   0.914550 0.646310 0.737150 -0.623561
O66   O     O_R   0.646310 0.085450 0.262850 -0.604553
O67   O     O_3   0.000000 0.500000 0.250000 -0.517872
O68   O     O_R   0.353690 0.914550 0.737150 -0.621964
O69   O     O_R   0.914550 0.646310 0.262850 -0.605649
O70   O     O_R   0.085450 0.353690 0.737150 -0.623768
O71   O     O_R   0.353690 0.914550 0.262850 -0.604517
O72   O     O_R   0.646310 0.085450 0.737150 -0.621774
O73   O     O_R   0.085450 0.646310 0.737150 -0.602585
O74   O     O_R   0.914550 0.353690 0.262850 -0.613007
O75   O     O_R   0.646310 0.914550 0.737150 -0.604335
O76   O     O_R   0.353690 0.085450 0.262850 -0.616286
O77   O     O_R   0.914550 0.353690 0.737150 -0.603311
O78   O     O_R   0.500000 0.060550 0.799700 -0.657538
O79   O     O_R   0.085450 0.646310 0.262850 -0.613056
O80   O     O_R   0.353690 0.085450 0.737150 -0.603510
O81   O     O_R   0.646310 0.914550 0.262850 -0.616311
O82   O     O_2   0.473136 0.124466 0.593972 -0.556671
O83   O     O_2   0.464798 0.877435 0.405858 -0.556525
O84   O     O_2   0.873622 0.483196 0.593876 -0.556542
O85   O     O_2   0.117638 0.450197 0.405908 -0.553772
O86   O     O_2   0.526150 0.875208 0.593957 -0.556309
O87   O     O_2   0.535069 0.122364 0.405901 -0.556570
O88   O     O_2   0.126768 0.515888 0.593882 -0.555994
O89   O     O_R   0.500000 0.939450 0.200300 -0.650450
O90   O     O_2   0.882587 0.549723 0.405949 -0.553774
O91   O     O_2   0.976213 0.625369 0.093900 -0.556062
O92   O     O_2   0.958138 0.379928 0.905933 -0.554866
O93   O     O_2   0.373079 0.981762 0.094014 -0.556892
O94   O     O_2   0.617902 0.954421 0.905830 -0.561631
O95   O     O_2   0.024098 0.375002 0.093897 -0.556135
O96   O     O_2   0.042264 0.620543 0.905916 -0.555766
O97   O     O_2   0.625778 0.017271 0.093848 -0.556927
O98   O     O_2   0.379018 0.044198 0.905951 -0.556213
O99   O     O_3   0.755633 0.142254 0.717384 -0.540614
O100  O     O_R   0.939450 0.500000 0.799700 -0.649062
O101  O     O_3   0.256911 0.847186 0.285892 -0.529934
O102  O     O_3   0.860470 0.758152 0.718234 -0.541045
O103  O     O_3   0.153599 0.257448 0.285961 -0.531299
O104  O     O_3   0.243517 0.858453 0.717659 -0.540219
O105  O     O_3   0.743132 0.152848 0.285886 -0.529947
O106  O     O_3   0.138490 0.240818 0.718665 -0.540327
O107  O     O_3   0.846406 0.742590 0.285964 -0.531335
O108  O     O_3   0.762379 0.863103 0.280268 -0.543056
O109  O     O_3   0.250906 0.147319 0.715596 -0.529097
O110  O     O_3   0.851044 0.251930 0.284757 -0.540821
O111  O     O_R   0.060550 0.500000 0.200300 -0.652106
O112  O     O_3   0.149489 0.746505 0.714946 -0.529060
O113  O     O_3   0.237641 0.136943 0.280269 -0.543023
O114  O     O_3   0.747461 0.851210 0.715060 -0.529176
O115  O     O_3   0.148978 0.748120 0.284759 -0.540836
O116  O     O_3   0.850019 0.253920 0.714793 -0.528958
O117  O     O_3   0.255499 0.642506 0.217328 -0.540299
O118  O     O_3   0.754989 0.349059 0.785377 -0.526626
O119  O     O_3   0.361782 0.259391 0.218699 -0.540964
O120  O     O_3   0.657650 0.761869 0.786924 -0.529576
O121  O     O_3   0.744534 0.357410 0.217313 -0.540232
O122  O     O_R   0.500000 0.939450 0.799700 -0.638796
O123  O     O_3   0.247897 0.648520 0.784756 -0.526633
O124  O     O_3   0.638240 0.740607 0.218685 -0.540960
O125  O     O_3   0.354102 0.250297 0.784069 -0.526368
O126  O     O_3   0.253128 0.356027 0.783328 -0.539731
O127  O     O_3   0.750857 0.647121 0.215518 -0.528913
O128  O     O_3   0.353461 0.749706 0.784106 -0.539682
O129  O     O_3   0.650711 0.245242 0.214612 -0.529112
O130  O     O_3   0.743544 0.642586 0.782378 -0.541232
O131  O     O_3   0.249156 0.352860 0.215527 -0.528907
O132  O     O_3   0.647801 0.249352 0.784417 -0.539671
Zn1   Zn    Zn3+2 0.586770 0.000000 0.731050 0.953121
Zn2   Zn    Zn3+2 0.913230 0.500000 0.768950 0.971539
Zn3   Zn    Zn3+2 0.500000 0.086770 0.231050 0.957780
Zn4   Zn    Zn3+2 0.500000 0.913230 0.768950 0.975870
Zn5   Zn    Zn3+2 0.913230 0.500000 0.231050 0.955157
Zn6   Zn    Zn3+2 0.086770 0.500000 0.768950 0.967038
Zn7   Zn    Zn3+2 0.500000 0.913230 0.231050 0.957798
Zn8   Zn    Zn3+2 0.500000 0.086770 0.768950 0.957920
Zn9   Zn    Zn3+2 0.413230 0.000000 0.268950 0.969708
Zn10  Zn    Zn3+2 0.000000 0.586770 0.731050 0.957393
Zn11  Zn    Zn3+2 0.000000 0.413230 0.268950 0.976848
Zn12  Zn    Zn3+2 0.413230 0.000000 0.731050 0.957051
Zn13  Zn    Zn3+2 0.586770 0.000000 0.268950 0.969684
Zn14  Zn    Zn3+2 0.000000 0.413230 0.731050 0.956600
Zn15  Zn    Zn3+2 0.000000 0.586770 0.268950 0.976870
Zn16  Zn    Zn3+2 0.086770 0.500000 0.231050 0.955113

loop_
_geom_bond_atom_site_label_1
_geom_bond_atom_site_label_2
_ccdc_geom_bond_type
C171  H340  S    
C168  H248  S    
C28   C47   A    
C185  H26   S    
C302  C315  A    
C130  C146  A    
O1    Zn4   S    
C136  H331  S    
C258  H206  S    
C78   C115  A    
C220  H116  S    
C34   O126  S    
C162  H319  S    
C192  O129  S    
C174  H350  S    
C167  H334  S    
C9    O101  S    
C213  H95   S    
C165  C166  S    
C262  H218  S    
C11   O103  S    
C197  H58   S    
C192  H42   S    
C167  O117  S    
C183  O125  S    
C92   C119  A    
C168  C330  A    
O68   Zn12  S    
C177  H8    S    
C159  H311  S    
C188  H33   S    
O69   Zn15  S    
C39   O130  S    
C92   C109  A    
C206  H78   S    
C244  H174  S    
C72   C101  A    
C32   O124  S    
C256  O30   S    
C143  C144  S    
C81   C117  A    
C94   C111  A    
C166  H330  S    
C37   O128  S    
C46   C224  A    
C50   C338  S    
C137  H13   S    
C5    O61   A    
C328  H277  S    
C323  O41   A    
C151  H291  S    
C157  C280  A    
C231  H140  S    
C205  O5    S    
C73   O94   S    
C80   C116  A    
C15   O106  S    
C300  C314  A    
C272  C273  S    
C91   C122  A    
C223  O13   A    
C24   C127  A    
C61   O82   S    
C144  H224  S    
C75   N6    A    
C147  H257  S    
C93   C120  A    
C219  H111  S    
C85   C103  A    
C227  H130  S    
C237  H153  S    
C93   C110  A    
C62   N2    A    
C101  C130  A    
C283  C301  S    
C295  C308  A    
C228  O16   S    
C254  O29   S    
C284  C290  S    
C185  O126  S    
C135  C277  A    
C140  H113  S    
O51   Zn8   S    
O65   Zn10  S    
C165  H327  S    
C292  C297  A    
O1    Zn8   S    
C234  C236  S    
C246  C327  A    
C203  H70   S    
C228  C229  S    
C57   C235  A    
C163  H323  S    
C88   C106  A    
C214  H98   S    
C143  H179  S    
C250  H186  S    
C55   C343  S    
C224  H253  S    
O63   Zn6   S    
C65   N1    A    
C226  C227  S    
C181  H16   S    
O45   Zn7   S    
C193  H44   S    
C160  H314  S    
C117  N3    S    
C102  O5    S    
C229  H133  S    
C77   O98   S    
C82   O29   S    
C98   C283  A    
C312  O44   A    
C1    O78   A    
C68   C246  A    
C33   C50   A    
C250  H187  S    
C245  H176  S    
C233  H145  S    
C133  H223  S    
C10   C22   A    
C305  C314  A    
C31   C37   A    
C29   C45   A    
O80   Zn12  S    
C269  H236  S    
C79   C257  A    
C148  H283  S    
C139  H79   S    
C183  C184  S    
C95   O33   S    
O57   Zn4   S    
C121  N7    S    
C215  H100  S    
C83   C115  A    
C197  H55   S    
C19   C49   A    
C220  O12   S    
C164  H326  S    
C139  C140  S    
C87   O34   S    
C209  H86   S    
C12   C20   A    
C61   N1    A    
O44   Zn13  S    
C66   O87   S    
C110  O14   S    
O40   Zn9   S    
C183  H21   S    
C85   C117  A    
C201  C331  A    
C69   N4    A    
C112  O2    A    
C154  C155  S    
C64   N4    A    
C340  O77   A    
C150  H289  S    
C293  C310  A    
C95   C122  A    
C236  H150  S    
C30   C49   A    
C289  C316  A    
C83   C100  A    
C280  H264  S    
C104  O7    S    
O58   Zn16  S    
C219  H114  S    
C7    C53   S    
C207  O6    S    
C111  O15   S    
C218  H108  S    
C303  C311  A    
C265  H226  S    
C49   C337  S    
C96   O8    S    
C205  C206  S    
C198  H59   S    
C70   C79   A    
C14   C19   A    
C180  H12   S    
C109  O12   S    
C204  H72   S    
C119  N5    S    
C196  C197  S    
C40   O131  S    
C205  H75   S    
C273  H244  S    
O56   Zn2   S    
O74   Zn11  S    
C161  H316  S    
C289  C307  A    
C204  H74   S    
C173  H348  S    
C221  H117  S    
C156  C158  S    
C218  H109  S    
C327  H276  S    
C43   C340  S    
C81   O28   S    
C114  C288  A    
C341  O54   A    
C241  H164  S    
C133  H287  S    
C4    O71   A    
O39   Zn14  S    
C92   O30   S    
C242  H169  S    
C6    O69   A    
O81   Zn13  S    
C254  H198  S    
C297  C310  A    
C73   N8    A    
C227  H128  S    
C22   C45   A    
C200  C202  S    
C296  C309  A    
C170  H339  S    
C162  H321  S    
C291  C308  A    
C76   N7    A    
C321  H271  S    
O66   Zn13  S    
C149  H285  S    
C6    C52   S    
C67   O88   S    
C219  H110  S    
C1    C288  S    
C104  C284  A    
C11   C56   A    
C172  H344  S    
C252  C253  S    
C67   N3    A    
C245  H175  S    
C210  H91   S    
C15   C18   A    
C266  H228  S    
C251  H189  S    
C128  C308  A    
C80   C97   A    
C84   C102  A    
C148  O107  S    
C23   O115  S    
C158  H310  S    
C38   O129  S    
C61   C334  A    
C35   C212  A    
C142  H157  S    
C86   C104  A    
C25   C43   A    
C80   O27   S    
C26   C44   A    
C167  C169  S    
C266  H230  S    
O48   Zn3   S    
C233  H147  S    
C141  H124  S    
C30   C38   A    
C289  C295  A    
O1    Zn1   S    
C247  H180  S    
C211  H92   S    
O54   Zn16  S    
C10   C58   A    
C150  H290  S    
C225  H122  S    
C85   O23   S    
C261  C262  S    
C242  H166  S    
C270  H237  S    
C249  H185  S    
C145  H235  S    
C266  H229  S    
C107  O19   S    
C170  C171  S    
C173  H347  S    
C174  O120  S    
C70   O91   S    
C106  O18   S    
C18   O109  S    
C256  H204  S    
C105  O17   S    
C253  H194  S    
C300  C327  A    
C343  O57   A    
C241  C242  S    
C189  C191  S    
C154  O110  S    
C174  C175  S    
C133  H298  S    
C216  O10   S    
C211  O8    S    
C129  C135  A    
C90   C129  A    
C259  H209  S    
C301  O43   A    
C256  C258  S    
C259  O31   S    
C187  H32   S    
C125  C311  A    
C271  H239  S    
C261  H214  S    
C323  O46   A    
C302  C328  A    
C36   C52   A    
C232  O18   S    
O73   Zn10  S    
C217  H105  S    
C17   O108  S    
C196  H53   S    
C84   C116  A    
C252  H193  S    
O56   Zn14  S    
C195  H52   S    
C295  C321  A    
C6    O62   A    
C180  H14   S    
C139  H68   S    
O45   Zn13  S    
C178  O123  S    
C241  H165  S    
C272  O38   S    
C220  C221  S    
C293  C319  A    
O100  Zn2   S    
C294  C320  A    
O62   Zn5   S    
C164  H325  S    
C24   C201  A    
C208  H84   S    
C318  H267  S    
C221  H119  S    
C304  C330  A    
C248  H182  S    
C4    O60   A    
C198  O132  S    
C203  H71   S    
C333  O47   A    
C145  O106  S    
C9    C23   A    
O79   Zn15  S    
O60   Zn7   S    
C222  C225  S    
C39   C58   A    
C116  N2    S    
C11   C21   A    
C298  C325  A    
C105  C285  A    
C13   C190  A    
C138  H46   S    
O78   Zn8   S    
C264  H221  S    
C107  C287  A    
C276  H261  S    
C3    C58   S    
C87   C119  A    
C189  H38   S    
C108  C288  A    
C120  N6    S    
C278  H263  S    
C191  H40   S    
C87   C105  A    
C47   C335  S    
C319  H269  S    
C216  C217  S    
C134  H320  S    
C203  O4    S    
C137  H24   S    
C305  C331  A    
C209  C210  S    
C329  H278  S    
C344  O64   A    
O1    Zn12  S    
C269  H233  S    
O111  Zn16  S    
C320  H270  S    
C190  C332  A    
C262  H216  S    
C241  O22   S    
C159  O113  S    
C210  H89   S    
C268  H258  S    
C145  H246  S    
C29   O120  S    
C263  H220  S    
C299  C326  A    
C101  C274  A    
C178  H10   S    
C158  H308  S    
C250  O27   S    
C182  H18   S    
C138  H57   S    
C255  H199  S    
O67   Zn16  S    
C156  H306  S    
C336  O49   A    
C26   C42   A    
C222  H121  S    
C138  H35   S    
C130  C310  A    
C171  H341  S    
C211  C213  S    
C342  O66   A    
C160  H313  S    
C5    C60   S    
C7    O63   A    
C247  H178  S    
C169  H337  S    
C258  H207  S    
C186  H29   S    
C72   O93   S    
C41   C60   A    
C222  O14   S    
C42   C59   A    
C202  H67   S    
C216  H103  S    
C140  H90   S    
C236  H151  S    
C213  H94   S    
C226  H127  S    
C96   C281  A    
C253  H196  S    
C124  C128  A    
C22   O114  S    
C35   C123  A    
C240  H161  S    
C177  H7    S    
C188  H34   S    
C341  O79   A    
C71   C90   A    
C234  H148  S    
C207  H82   S    
C260  H213  S    
C28   O119  S    
C114  O16   S    
C208  H85   S    
C194  C195  S    
C62   O83   S    
C42   O3    S    
C113  C275  A    
C12   C55   A    
O45   Zn3   S    
O53   Zn2   S    
C231  H139  S    
C37   C55   A    
C2    C125  A    
C129  C307  A    
C154  H300  S    
C152  C153  S    
C24   C64   A    
C267  H232  S    
C2    C179  A    
C65   O86   S    
C76   C146  A    
C195  H50   S    
C150  C151  S    
O46   Zn12  S    
C263  O33   S    
C200  H64   S    
C146  C278  A    
C155  H302  S    
C239  O21   S    
C70   N5    A    
C175  H352  S    
C21   C47   A    
C234  H149  S    
C12   O104  S    
C74   C124  A    
C110  C286  A    
O61   Zn8   S    
O70   Zn14  S    
C238  H156  S    
C152  H295  S    
C82   C99   A    
C179  H249  S    
C46   C125  A    
C187  O127  S    
C239  C240  S    
C281  C323  S    
C151  H293  S    
O67   Zn11  S    
C17   C51   A    
C161  C162  S    
C304  C313  A    
C154  H301  S    
C181  C182  S    
C170  O118  S    
C152  H294  S    
C143  O105  S    
O72   Zn1   S    
C20   O112  S    
C260  H210  S    
C181  H15   S    
C234  O19   S    
C15   C53   A    
C239  H159  S    
C3    O59   A    
C46   C66   A    
C293  C296  A    
C268  C320  A    
C75   C135  A    
C81   C98   A    
C35   C65   A    
C95   C114  A    
C243  C244  S    
C290  O42   A    
C233  H144  S    
C51   C339  S    
O52   Zn7   S    
C73   C113  A    
C165  H328  S    
C344  O58   A    
C176  H4    S    
C276  C317  A    
C131  C157  A    
C102  C282  A    
C232  H143  S    
C215  H99   S    
C292  C309  A    
C83   O21   S    
C278  C319  A    
C78   C96   A    
C230  H137  S    
C210  H88   S    
C68   C69   A    
C40   C56   A    
C264  H225  S    
C100  C281  A    
C123  C313  A    
C5    O72   A    
C280  C318  A    
C212  H252  S    
C275  H260  S    
C112  C287  S    
C144  H201  S    
C88   C120  A    
C183  H20   S    
O71   Zn9   S    
O56   Zn10  S    
C99   C284  A    
C48   C336  S    
O41   Zn1   S    
C290  O35   A    
C162  H318  S    
C25   O116  S    
C176  O121  S    
C185  H27   S    
C160  H315  S    
C1    O122  A    
C94   O32   S    
C8    C25   A    
C258  H205  S    
C238  H158  S    
C220  H115  S    
C179  C329  A    
C215  H102  S    
C292  C318  A    
C152  O109  S    
C174  H349  S    
C126  C315  A    
C145  C147  S    
C84   O22   S    
C338  O51   A    
C213  H96   S    
C251  H191  S    
C262  H217  S    
C226  H126  S    
C198  H60   S    
C282  C312  S    
C207  C208  S    
C142  H146  S    
C261  O32   S    
C240  H163  S    
C159  H312  S    
C188  H36   S    
C118  N4    S    
C141  O104  S    
C243  H171  S    
C294  C307  A    
C170  H338  S    
C250  C251  S    
C3    O65   A    
C166  H329  S    
C150  O108  S    
C23   C44   A    
O89   Zn7   S    
C86   O25   S    
C90   C268  A    
C184  H25   S    
C32   C51   A    
C167  H333  S    
C254  C255  S    
C306  C332  A    
C298  C311  A    
C223  C286  S    
C131  C309  A    
C184  H23   S    
C159  C160  S    
C38   C54   A    
C64   O85   S    
C302  C305  A    
O13   Zn6   S    
C89   C107  A    
C21   O113  S    
C19   O110  S    
C86   C118  A    
O35   Zn15  S    
O49   Zn6   S    
O45   Zn9   S    
C68   C127  A    
C20   C48   A    
C194  H49   S    
C237  H154  S    
O55   Zn3   S    
C274  H259  S    
C63   N3    A    
C326  H275  S    
C245  C247  S    
C330  H280  S    
C176  H5    S    
C71   O92   S    
C32   C36   A    
C132  H112  S    
C248  C249  S    
C18   C50   A    
C214  H97   S    
C338  O80   A    
C300  C306  A    
C29   C39   A    
C27   C43   A    
C186  H28   S    
O43   Zn10  S    
C99   O11   S    
C106  C286  A    
C91   C108  A    
C98   O10   S    
C193  H45   S    
C16   C52   A    
C97   O9    S    
C267  O36   S    
C206  H77   S    
C148  H284  S    
C229  H134  S    
C189  O128  S    
C178  C180  S    
O75   Zn1   S    
C122  N8    S    
C265  O34   S    
C244  H173  S    
C301  O39   A    
O2    Zn3   S    
C257  H256  S    
C134  O101  S    
C187  C188  S    
C8    C60   A    
C197  H56   S    
C140  H101  S    
C267  C269  S    
C249  H184  S    
C185  C186  S    
C88   O36   S    
C89   C121  A    
C74   O95   S    
C209  H87   S    
C232  C233  S    
C196  O131  S    
C279  O24   A    
C163  O115  S    
C230  C231  S    
C168  C334  A    
C239  H160  S    
C336  O73   A    
C123  C334  A    
C94   C121  A    
C322  H272  S    
C223  O100  A    
C34   C53   A    
C316  H265  S    
C111  C287  A    
C270  C271  S    
C343  O68   A    
C187  H31   S    
C89   O37   S    
C97   C282  A    
C175  H3    S    
C339  O52   A    
C143  H190  S    
C199  H63   S    
C333  O75   A    
C153  H299  S    
C265  H227  S    
C8    O99   S    
C337  O50   A    
C209  O7    S    
C139  O103  S    
C79   C128  A    
C230  O17   S    
C196  H54   S    
C337  O74   A    
C26   O117  S    
C195  H51   S    
C144  H212  S    
C180  H11   S    
C163  C164  S    
C155  H303  S    
C205  H76   S    
C273  H245  S    
C335  O76   A    
C190  H250  S    
C225  H125  S    
C147  H279  S    
C245  O25   S    
C235  H254  S    
C172  O119  S    
C299  C303  A    
C204  H73   S    
C151  H292  S    
C141  H135  S    
C14   O105  S    
C221  H118  S    
C137  O102  S    
C271  H241  S    
C259  H208  S    
C171  H343  S    
C115  N1    S    
C173  H346  S    
C16   C17   A    
C274  C324  A    
C44   C341  S    
C272  H243  S    
C242  H167  S    
C7    O70   A    
C248  O26   S    
C254  H197  S    
C249  H183  S    
C189  H37   S    
C77   C157  A    
C191  H39   S    
C69   O90   S    
C28   C40   A    
C132  C133  S    
C13   C63   A    
C75   O96   S    
C257  C321  A    
C325  H274  S    
C252  O28   S    
C198  C199  S    
C260  H211  S    
O24   Zn5   S    
C41   O132  S    
C265  C266  S    
C232  H142  S    
C163  H322  S    
C112  O89   A    
C153  H297  S    
C200  O3    S    
C252  H192  S    
C263  H219  S    
C296  C322  A    
O76   Zn9   S    
C193  H47   S    
C182  H19   S    
C57   C67   A    
C194  H48   S    
C229  H136  S    
C103  C283  A    
C297  C324  A    
C100  O4    S    
C224  C325  A    
C161  H317  S    
C136  H342  S    
C132  O99   S    
C279  O111  A    
C91   O38   S    
C247  H177  S    
C169  H336  S    
C186  H30   S    
C291  C294  A    
C136  H2    S    
C148  C149  S    
C303  C329  A    
C277  C316  A    
C33   O125  S    
C57   C126  A    
C216  H104  S    
C214  C215  S    
C134  C136  S    
C200  H65   S    
C202  H69   S    
C212  C326  A    
C339  O81   A    
O77   Zn14  S    
C256  H203  S    
C253  H195  S    
C103  O6    S    
C217  H107  S    
C147  H268  S    
C169  H335  S    
C240  H162  S    
C342  O55   A    
C199  H62   S    
C177  H6    S    
C74   N5    A    
O56   Zn6   S    
C27   C41   A    
O59   Zn2   S    
C206  H80   S    
C317  H266  S    
C244  H172  S    
C207  H81   S    
C166  H332  S    
C33   C34   A    
C76   O97   S    
C27   O118  S    
C93   O31   S    
C298  C304  A    
C164  H324  S    
C271  H240  S    
C261  H215  S    
C202  H66   S    
C149  H286  S    
C225  H123  S    
C272  H242  S    
C217  H106  S    
C270  H238  S    
C184  H22   S    
C176  C177  S    
C14   C54   A    
C181  O124  S    
C16   O107  S    
C218  O11   S    
C255  H202  S    
C267  H231  S    
C324  H273  S    
C66   N2    A    
C203  C204  S    
C235  C328  A    
C56   C344  S    
C277  H262  S    
C13   C126  A    
C259  C260  S    
C291  C317  A    
C30   O121  S    
C273  H247  S    
C142  H168  S    
C172  C173  S    
C228  H132  S    
C175  H351  S    
O42   Zn11  S    
C31   O123  S    
C165  O116  S    
C270  O37   S    
C155  H304  S    
C113  C131  A    
C208  H83   S    
C161  O114  S    
C77   N8    A    
O47   Zn4   S    
C201  H251  S    
C72   N7    A    
C156  O112  S    
C248  H181  S    
C194  O130  S    
C231  H141  S    
C332  H282  S    
C192  H43   S    
C312  O40   A    
C246  H255  S    
C331  H281  S    
O64   Zn11  S    
C36   O127  S    
C137  C138  S    
C306  C315  A    
C237  O20   S    
C10   O102  S    
C236  H152  S    
C31   C48   A    
C192  C193  S    
C263  C264  S    
C243  O23   S    
O122  Zn4   S    
C141  C142  S    
C78   O26   S    
C134  H309  S    
O67   Zn15  S    
C124  C276  A    
C214  O9    S    
C218  C219  S    
C335  O48   A    
C238  H155  S    
C4    C59   S    
C275  C322  A    
C153  H296  S    
C149  H288  S    
C108  O20   S    
C269  H234  S    
C71   N6    A    
O67   Zn5   S    
C226  O15   S    
C45   C333  S    
C299  C313  A    
C222  H120  S    
C279  C285  S    
C191  H41   S    
C227  H129  S    
C63   O84   S    
C230  H138  S    
C127  C314  A    
C251  H188  S    
C228  H131  S    
C172  H345  S    
C132  H1    S    
C264  H222  S    
C54   C342  S    
C109  C285  A    
C82   C118  A    
C340  O53   A    
C178  H9    S    
C158  H307  S    
C182  H17   S    
C211  H93   S    
C237  C238  S    
C9    C59   A    
C255  H200  S    
C243  H170  S    
C156  H305  S    
C2    C62   A    
O50   Zn5   S    
C199  H61   S    
