data_mof_unit_19822.cif
_audit_creation_date              2012-12-10T17:24:14-0500
_audit_creation_method            fapswitch 2.2
_symmetry_space_group_name_H-M    P1
_symmetry_Int_Tables_number       1
_space_group_crystal_system       triclinic
_cell_length_a                    10.139798
_cell_length_b                    10.480794
_cell_length_c                    16.821637
_cell_angle_alpha                 91.212272
_cell_angle_beta                  76.808896
_cell_angle_gamma                 95.196407
_cell_volume                      1733.36515178

loop_
_atom_site_label
_atom_site_type_symbol
_atom_type_description
_atom_site_fract_x
_atom_site_fract_y
_atom_site_fract_z
_atom_type_partial_charge
C1    C     C_R   0.556519 0.735045 0.494832 0.897334
C2    C     C_R   0.516722 0.493299 0.345609 0.846719
C3    C     C_R   0.478752 0.531380 0.739899 -0.024979
C4    C     C_R   0.521865 0.471311 0.259914 -0.023343
C5    C     C_R   0.597532 0.580390 0.763306 -0.206090
C6    C     C_R   0.644708 0.494887 0.202000 -0.211496
C7    C     C_R   0.594992 0.602222 0.845017 -0.206590
C8    C     C_R   0.646947 0.477674 0.119751 -0.203089
C9    C     C_R   0.474458 0.572708 0.903270 0.186196
C10   C     C_R   0.526898 0.435364 0.096107 0.185006
C11   C     C_R   0.353846 0.530935 0.880096 -0.204720
C12   C     C_R   0.443034 0.264461 0.507642 0.897844
C13   C     C_R   0.406554 0.403181 0.153956 -0.205103
C14   C     C_R   0.355711 0.511112 0.798074 -0.211199
C15   C     C_R   0.403666 0.422156 0.235938 -0.206971
C16   C     C_2   0.481390 0.560094 0.988051 0.000050
C17   C     C_2   0.520375 0.448253 0.011311 0.000019
C18   C     C_3   0.554826 0.337046 0.952067 -0.410332
C19   C     C_3   0.594088 0.218583 0.990735 -0.345872
C20   C     C_3   0.625202 0.111531 0.928179 -0.898816
C21   C     C_3   0.446404 0.670989 0.047456 -0.410880
C22   C     C_3   0.405911 0.789096 0.009085 -0.346426
C23   C     C_2   0.586665 0.873241 0.498192 -0.059419
C24   C     C_3   0.374363 0.895888 0.071826 -0.897257
C25   C     C_3   0.293725 0.046678 0.499901 -0.404295
C26   C     C_3   0.195757 0.122868 0.466512 -0.347002
C27   C     C_3   0.085575 0.034147 0.440373 -0.919171
C28   C     C_3   0.690038 0.946790 0.430675 -0.422979
C29   C     C_3   0.760928 0.862588 0.360612 -0.331725
C30   C     C_3   0.843498 0.943613 0.288924 -0.908557
C31   C     C_2   0.411533 0.126814 0.524518 -0.075333
C32   C     C_2   0.504952 0.933489 0.559035 -0.225576
C33   C     C_2   0.500504 0.071412 0.558576 -0.216831
C34   C     C_2   0.926397 0.511410 0.506780 -0.136604
C35   C     C_2   0.073753 0.488939 0.492964 -0.140659
C36   C     C_R   0.483374 0.507123 0.654399 0.852001
H1    H     H_    0.692505 0.599884 0.718654 0.147017
H2    H     H_    0.428339 0.879746 0.605017 0.162356
H3    H     H_    0.115094 0.418229 0.448313 0.154891
H4    H     H_    0.885167 0.582447 0.551214 0.158501
H5    H     H_    0.111013 0.618188 0.574659 0.157818
H6    H     H_    0.888860 0.381431 0.425580 0.159449
H7    H     H_    0.533809 0.080141 0.904472 0.264562
H8    H     H_    0.710039 0.144778 0.876527 0.262499
H9    H     H_    0.655572 0.028411 0.957490 0.253490
H10   H     H_    0.685778 0.244679 0.015353 0.226034
H11   H     H_    0.509257 0.182450 0.041637 0.228973
H12   H     H_    0.736948 0.531351 0.220095 0.150143
H13   H     H_    0.465213 0.307788 0.926084 0.213371
H14   H     H_    0.641277 0.370510 0.901379 0.211982
H15   H     H_    0.289781 0.862174 0.123505 0.262553
H16   H     H_    0.465733 0.927665 0.095471 0.264488
H17   H     H_    0.343430 0.978899 0.042704 0.253384
H18   H     H_    0.490247 0.825717 0.958046 0.228895
H19   H     H_    0.314086 0.762400 0.984707 0.225423
H20   H     H_    0.360425 0.636929 0.098268 0.212234
H21   H     H_    0.536099 0.700798 0.073250 0.213106
H22   H     H_    0.131373 0.971061 0.389560 0.270638
H23   H     H_    0.308915 0.400299 0.280394 0.144470
H24   H     H_    0.027102 0.974197 0.492518 0.265357
H25   H     H_    0.014590 0.093015 0.419278 0.243775
H26   H     H_    0.144881 0.187597 0.514795 0.243884
H27   H     H_    0.252550 0.180619 0.412808 0.219196
H28   H     H_    0.336792 0.976532 0.452681 0.223496
H29   H     H_    0.234241 0.991946 0.554274 0.212515
H30   H     H_    0.775740 0.000459 0.263255 0.262762
H31   H     H_    0.921869 0.009583 0.308547 0.264571
H32   H     H_    0.895121 0.879982 0.240278 0.250443
H33   H     H_    0.830455 0.803160 0.382878 0.243091
H34   H     H_    0.262925 0.475131 0.780447 0.151160
H35   H     H_    0.683963 0.798318 0.338001 0.214140
H36   H     H_    0.636378 0.017352 0.404289 0.226067
H37   H     H_    0.768167 0.000747 0.458070 0.211309
H38   H     H_    0.260972 0.506919 0.925682 0.131462
H39   H     H_    0.313620 0.371244 0.135170 0.132782
H40   H     H_    0.739633 0.503719 0.074459 0.131282
H41   H     H_    0.688396 0.633682 0.863413 0.131910
H42   H     H_    0.584358 0.127634 0.576665 0.176619
N1    N     N_2   0.846390 0.448330 0.467170 -0.192217
N2    N     N_2   0.153610 0.551670 0.532830 -0.189554
O1    O     O_R   0.430310 0.692580 0.506610 -0.607268
O2    O     O_R   0.569690 0.307420 0.493390 -0.610354
O3    O     O_R   0.652740 0.659410 0.485540 -0.610962
O4    O     O_R   0.347260 0.340590 0.514460 -0.611503
O5    O     O_R   0.375640 0.518570 0.627580 -0.611711
O6    O     O_R   0.624360 0.481430 0.372420 -0.610750
O7    O     O_R   0.598070 0.485390 0.606510 -0.612589
O8    O     O_R   0.401930 0.514610 0.393490 -0.610253
Zn1   Zn    Zn3+2 0.351480 0.522150 0.514070 0.921234
Zn2   Zn    Zn3+2 0.648520 0.477850 0.485930 0.919968

loop_
_geom_bond_atom_site_label_1
_geom_bond_atom_site_label_2
_ccdc_geom_bond_type
C24   H16   S    
C25   C31   S    
C16   C21   S    
C5    H1    S    
C35   H3    S    
C19   C20   S    
H5    N2    S    
C19   H10   S    
C22   H18   S    
C26   C27   S    
C6    H12   S    
C34   H4    S    
C28   C29   S    
C9    C16   S    
C18   C19   S    
C27   H24   S    
C11   C14   A    
C19   H11   S    
C33   H42   S    
C10   C17   S    
C1    O1    A    
C35   N2    D    
C8    H40   S    
C12   O4    A    
C34   C35   S    
N2    Zn1   S    
N1    Zn2   S    
C27   H25   S    
C13   H39   S    
C16   C17   D    
C31   C33   D    
C2    O8    A    
C32   H2    S    
C30   H31   S    
C7    H41   S    
O1    Zn1   S    
C24   H15   S    
H6    N1    S    
C10   C13   A    
C21   C22   S    
C14   H34   S    
C28   H36   S    
C28   H37   S    
C20   H8    S    
C29   H33   S    
C36   O7    A    
C25   H29   S    
C4    C6    A    
O6    Zn2   S    
C5    C7    A    
O5    Zn1   S    
C6    C8    A    
C25   C26   S    
C11   H38   S    
C25   H28   S    
C2    C4    S    
C26   H27   S    
C21   H21   S    
C29   C30   S    
C34   N1    D    
C17   C18   S    
C12   O2    A    
C23   C28   S    
C9    C11   A    
C30   H30   S    
C3    C14   A    
C1    C23   S    
C13   C15   A    
C12   C31   S    
C22   C24   S    
O4    Zn1   S    
C20   H7    S    
C18   H14   S    
C7    C9    A    
O3    Zn2   S    
C15   H23   S    
C20   H9    S    
C3    C5    A    
C27   H22   S    
C21   H20   S    
C22   H19   S    
C36   O5    A    
C1    O3    A    
O2    Zn2   S    
C23   C32   D    
C4    C15   A    
C24   H17   S    
C32   C33   S    
C3    C36   S    
C2    O6    A    
C26   H26   S    
O8    Zn1   S    
C8    C10   A    
O7    Zn2   S    
C30   H32   S    
C18   H13   S    
C29   H35   S    
