data_mof_unit_28365.cif
_audit_creation_date              2012-12-10T16:37:26-0500
_audit_creation_method            fapswitch 2.2
_symmetry_space_group_name_H-M    P1
_symmetry_Int_Tables_number       1
_space_group_crystal_system       triclinic
_cell_length_a                    16.810372
_cell_length_b                    16.658082
_cell_length_c                    16.922668
_cell_angle_alpha                 65.851011
_cell_angle_beta                  66.679245
_cell_angle_gamma                 66.687547
_cell_volume                      3813.16222598

loop_
_atom_site_label
_atom_site_type_symbol
_atom_type_description
_atom_site_fract_x
_atom_site_fract_y
_atom_site_fract_z
_atom_type_partial_charge
C1    C     C_R   0.423372 0.012874 0.663557 -0.229154
C2    C     C_R   0.460051 0.720635 0.896583 -0.202535
C3    C     C_3   0.774983 0.861707 0.980037 -0.896934
C4    C     C_3   0.293990 0.292725 0.864741 -0.348848
C5    C     C_3   0.270579 0.365368 0.779410 -0.863585
C6    C     C_R   0.956591 0.598937 0.329557 -0.228276
C7    C     C_R   0.922054 0.462511 0.696958 -0.221381
C8    C     C_R   0.959026 0.179690 0.438893 0.922842
C9    C     C_R   0.038528 0.820430 0.561700 0.872540
C10   C     C_R   0.179667 0.439181 0.959516 0.920331
C11   C     C_R   0.821727 0.569068 0.025317 0.870997
C12   C     C_R   0.435985 0.967037 0.178834 0.963626
C13   C     C_R   0.567605 0.026016 0.821514 0.857758
C14   C     C_R   0.575735 0.845007 0.987826 0.952819
C15   C     C_R   0.607303 0.901067 0.350437 -0.215356
C16   C     C_R   0.437545 0.180489 0.961991 0.907790
C17   C     C_R   0.023780 0.568549 0.822426 0.885794
C18   C     C_R   0.961490 0.437501 0.179579 0.932632
C19   C     C_R   0.835942 0.996419 0.574410 0.935054
C20   C     C_R   0.178230 0.969454 0.435446 0.923081
C21   C     C_R   0.467543 0.035989 0.702013 -0.185857
C22   C     C_R   0.555832 0.904643 0.300544 -0.174691
C23   C     C_R   0.062707 0.704472 0.448821 -0.162567
C24   C     C_R   0.914619 0.298411 0.556589 -0.166109
C25   C     C_R   0.694819 0.476373 0.045353 -0.181908
C26   C     C_R   0.037959 0.665342 0.406654 -0.228550
C27   C     C_R   0.296095 0.564685 0.907510 -0.171235
C28   C     C_R   0.295211 0.922720 0.554082 -0.177886
C29   C     C_R   0.753290 0.920501 0.502132 -0.170122
C30   C     C_R   0.550688 0.296811 0.937108 -0.167498
C31   C     C_R   0.509378 0.766135 0.904960 -0.167884
C32   C     C_R   0.935953 0.555823 0.288298 -0.162141
C33   C     C_R   0.939871 0.508091 0.738434 -0.166030
C34   C     C_R   0.565678 0.957470 0.560903 0.030739
C35   C     C_R   0.472020 0.932229 0.470210 0.032125
C36   C     C_R   0.985410 0.558686 0.550929 0.032583
C37   C     C_R   0.919987 0.347632 0.603222 -0.222921
C38   C     C_R   0.948343 0.469511 0.464174 0.029887
C39   C     C_R   0.559489 0.574854 0.957556 0.029114
C40   C     C_R   0.466222 0.478305 0.937333 0.031996
C41   C     C_R   0.614305 0.927000 0.483049 0.043866
C42   C     C_R   0.427677 0.946532 0.555575 0.048120
C43   C     C_R   0.949154 0.483097 0.602568 0.046282
C44   C     C_R   0.968781 0.554355 0.415970 0.048869
C45   C     C_R   0.482374 0.624034 0.924860 0.040548
C46   C     C_R   0.549208 0.432456 0.958532 0.049388
C47   C     C_R   0.566034 0.919986 0.434037 0.045865
C48   C     C_R   0.653860 0.430236 0.027792 -0.224079
C49   C     C_R   0.471721 0.970166 0.595198 0.046436
C50   C     C_R   0.430853 0.574317 0.922486 0.046117
C51   C     C_R   0.588912 0.478476 0.979882 0.044645
C52   C     C_R   0.938910 0.433018 0.557896 0.047053
C53   C     C_R   0.996637 0.593760 0.457001 0.044931
C54   C     C_R   0.562536 0.009575 0.680115 0.026874
C55   C     C_R   0.460587 0.929867 0.330690 0.027457
C56   C     C_R   0.044658 0.675762 0.543197 0.029225
C57   C     C_R   0.927869 0.331976 0.462397 0.047169
C58   C     C_R   0.679104 0.572185 0.008544 0.038733
C59   C     C_R   0.345622 0.616296 0.905793 -0.216388
C60   C     C_R   0.329745 0.468680 0.924401 0.033450
C61   C     C_R   0.328634 0.936970 0.459771 0.028921
C62   C     C_R   0.705047 0.958962 0.573835 0.031633
C63   C     C_R   0.459417 0.333500 0.936106 0.044012
C64   C     C_R   0.581459 0.717495 0.944397 0.018950
C65   C     C_R   0.937197 0.462399 0.326672 0.029991
C66   C     C_R   0.992649 0.570567 0.687938 0.028599
C67   C     C_R   0.611308 0.012635 0.731843 -0.152513
C68   C     C_R   0.402747 0.956608 0.274973 -0.184657
C69   C     C_R   0.060535 0.720371 0.589340 -0.122707
C70   C     C_R   0.341363 0.933795 0.599576 -0.227229
C71   C     C_R   0.928006 0.281024 0.411733 -0.202600
C72   C     C_R   0.733255 0.619562 0.009510 -0.181925
C73   C     C_R   0.279722 0.413517 0.929249 -0.154978
C74   C     C_R   0.274185 0.959675 0.402380 -0.175007
C75   C     C_R   0.748351 0.978978 0.617626 -0.185756
C76   C     C_R   0.409625 0.282235 0.933462 -0.200382
C77   C     C_R   0.625431 0.762157 0.963947 -0.168714
C78   C     C_R   0.933228 0.410445 0.279092 -0.154430
C79   C     C_R   0.030366 0.604299 0.727030 -0.186967
C80   C     C_R   0.705975 0.986557 0.703665 0.033576
C81   C     C_R   0.709008 0.906421 0.456706 -0.212760
C82   C     C_R   0.309835 0.988154 0.309297 0.049985
C83   C     C_R   0.075622 0.671658 0.672961 0.067509
C84   C     C_R   0.911246 0.327399 0.327537 0.070192
C85   C     C_R   0.708982 0.717525 0.983055 0.005376
C86   C     C_R   0.326806 0.328700 0.912835 0.076267
C87   C     C_R   0.611095 0.974737 0.605295 0.079343
C88   C     C_R   0.420604 0.933007 0.420183 0.081737
C89   C     C_R   0.009037 0.600486 0.593760 0.065802
C90   C     C_R   0.937101 0.421448 0.417954 0.070019
C91   C     C_R   0.607492 0.621663 0.968854 0.086297
C92   C     C_R   0.592517 0.342899 0.953504 -0.234662
C93   C     C_R   0.418568 0.427029 0.931912 0.071784
C94   C     C_3   0.764810 0.951143 0.767416 -0.279525
C95   C     C_3   0.785827 0.028734 0.778796 -0.697836
C96   C     C_3   0.254411 0.073330 0.251382 -0.318451
C97   C     C_3   0.205653 0.052779 0.204751 -0.713058
C98   C     C_3   0.140106 0.691083 0.701878 -0.353204
C99   C     C_3   0.226349 0.704639 0.626195 -0.888770
C100  C     C_3   0.862556 0.292112 0.294541 -0.336252
C101  C     C_3   0.777381 0.364600 0.271955 -0.884854
C102  C     C_3   0.773230 0.767898 0.982271 -0.262135
H1    H     H_    0.350401 0.033331 0.684843 0.143247
H2    H     H_    0.405795 0.762768 0.865900 0.135695
H3    H     H_    0.957635 0.669458 0.294820 0.134573
H4    H     H_    0.883730 0.413699 0.740170 0.139369
H5    H     H_    0.425167 0.075907 0.747890 0.174964
H6    H     H_    0.592718 0.887930 0.238140 0.174832
H7    H     H_    0.098537 0.755742 0.406358 0.167654
H8    H     H_    0.895559 0.235746 0.596754 0.169370
H9    H     H_    0.737997 0.435239 0.089147 0.170679
H10   H     H_    0.233169 0.602483 0.890370 0.162845
H11   H     H_    0.232949 0.905518 0.594817 0.181866
H12   H     H_    0.679193 0.886475 0.320047 0.133624
H13   H     H_    0.826210 0.898027 0.481811 0.171962
H14   H     H_    0.593856 0.234300 0.921428 0.175911
H15   H     H_    0.490641 0.840236 0.880046 0.164767
H16   H     H_    0.915722 0.599183 0.227822 0.172355
H17   H     H_    0.910234 0.493506 0.810366 0.180970
H18   H     H_    0.859205 0.010797 0.770322 0.212419
H19   H     H_    0.765874 0.095591 0.728347 0.252574
H20   H     H_    0.751656 0.042441 0.844419 0.216217
H21   H     H_    0.734189 0.904090 0.829652 0.187948
H22   H     H_    0.829886 0.902024 0.743826 0.173506
H23   H     H_    0.055004 0.689718 0.333857 0.141833
H24   H     H_    0.227620 0.084029 0.130552 0.234362
H25   H     H_    0.219160 0.977948 0.219423 0.257808
H26   H     H_    0.131670 0.083422 0.227337 0.234792
H27   H     H_    0.203928 0.118111 0.293424 0.185097
H28   H     H_    0.298650 0.116807 0.199469 0.183792
H29   H     H_    0.260069 0.644827 0.599605 0.266442
H30   H     H_    0.211674 0.767889 0.570259 0.249307
H31   H     H_    0.273446 0.711036 0.652978 0.249104
H32   H     H_    0.105686 0.751788 0.726958 0.223060
H33   H     H_    0.163787 0.632046 0.757033 0.206173
H34   H     H_    0.911892 0.315743 0.674701 0.135776
H35   H     H_    0.731678 0.388499 0.331392 0.264000
H36   H     H_    0.793817 0.424301 0.214275 0.251317
H37   H     H_    0.741275 0.334419 0.253696 0.242977
H38   H     H_    0.908056 0.266715 0.236136 0.223753
H39   H     H_    0.838590 0.233657 0.348181 0.219913
H40   H     H_    0.732560 0.921442 0.943747 0.300272
H41   H     H_    0.752684 0.868939 0.048903 0.236267
H42   H     H_    0.845011 0.868126 0.949587 0.211029
H43   H     H_    0.776760 0.734991 0.053115 0.246518
H44   H     H_    0.835606 0.751296 0.927720 0.218940
H45   H     H_    0.670544 0.356457 0.056145 0.144418
H46   H     H_    0.211482 0.423002 0.795551 0.260722
H47   H     H_    0.329085 0.392549 0.733685 0.257828
H48   H     H_    0.253891 0.334083 0.743379 0.246903
H49   H     H_    0.347975 0.235767 0.840711 0.209510
H50   H     H_    0.235795 0.265463 0.910850 0.226383
H51   H     H_    0.314328 0.689024 0.893565 0.133324
H52   H     H_    0.309909 0.929548 0.670145 0.135297
H53   H     H_    0.751038 0.877228 0.402323 0.136455
H54   H     H_    0.661605 0.309584 0.956335 0.137714
O1    O     O_R   0.982940 0.138950 0.510160 -0.623599
O2    O     O_R   0.982940 0.510160 0.138950 -0.634775
O3    O     O_R   0.861050 0.017060 0.489840 -0.639598
O4    O     O_R   0.138950 0.982940 0.510160 -0.641627
O5    O     O_R   0.867700 0.025880 0.612340 -0.624537
O6    O     O_R   0.132300 0.974120 0.387660 -0.615150
O7    O     O_R   0.025880 0.612340 0.867700 -0.651564
O8    O     O_R   0.974120 0.387660 0.132300 -0.619425
O9    O     O_R   0.612340 0.867700 0.025880 -0.609268
O10   O     O_R   0.387660 0.132300 0.974120 -0.639851
O11   O     O_R   0.387660 0.974120 0.132300 -0.603409
O12   O     O_R   0.017060 0.861050 0.489840 -0.659088
O13   O     O_R   0.612340 0.025880 0.867700 -0.651244
O14   O     O_R   0.132300 0.387660 0.974120 -0.615706
O15   O     O_R   0.867700 0.612340 0.025880 -0.666024
O16   O     O_R   0.974120 0.132300 0.387660 -0.633763
O17   O     O_R   0.025880 0.867700 0.612340 -0.644356
O18   O     O_R   0.138950 0.510160 0.982940 -0.631145
O19   O     O_R   0.861050 0.489840 0.017060 -0.634455
O20   O     O_R   0.510160 0.982940 0.138950 -0.637054
O21   O     O_R   0.489840 0.017060 0.861050 -0.677009
O22   O     O_R   0.489840 0.861050 0.017060 -0.624122
O23   O     O_R   0.510160 0.138950 0.982940 -0.631801
O24   O     O_R   0.017060 0.489840 0.861050 -0.635906
Zn1   Zn    Zn3+2 0.004880 0.004880 0.583590 0.891808
Zn2   Zn    Zn3+2 0.995120 0.995120 0.416410 0.893344
Zn3   Zn    Zn3+2 0.004880 0.583590 0.004880 0.900860
Zn4   Zn    Zn3+2 0.995120 0.416410 0.995120 0.922737
Zn5   Zn    Zn3+2 0.583590 0.004880 0.004880 0.874446
Zn6   Zn    Zn3+2 0.416410 0.995120 0.995120 0.897421

loop_
_geom_bond_atom_site_label_1
_geom_bond_atom_site_label_2
_ccdc_geom_bond_type
C36   C89   A    
C10   O18   A    
C39   C51   A    
C1    C21   A    
C64   C77   A    
O4    Zn1   S    
C6    C32   A    
C3    H40   S    
C40   C93   A    
C97   H25   S    
C35   C47   A    
C12   O11   A    
C72   C85   A    
C101  H37   S    
O20   Zn5   S    
C17   C79   S    
C30   H14   S    
C98   C99   S    
C40   C46   A    
C66   C79   A    
C12   C68   S    
C99   H30   S    
C18   O2    A    
C50   C59   A    
O15   Zn3   S    
C9    C69   S    
O6    Zn2   S    
C27   C60   A    
C102  H43   S    
C13   C67   S    
C54   C87   A    
C10   C73   S    
C40   C50   A    
C43   C52   A    
C23   C26   A    
C4    C86   S    
C63   C76   A    
C3    H41   S    
C48   H45   S    
C60   C73   A    
C42   C70   A    
C5    H47   S    
C99   H31   S    
C19   O5    A    
C14   C77   S    
C55   C88   A    
C35   C42   A    
C31   H15   S    
C36   C53   A    
C100  H38   S    
C18   O8    A    
C44   C53   A    
C15   C22   A    
C16   O10   A    
C24   C57   A    
C8    C71   S    
C83   C98   S    
C69   C83   A    
C9    O17   A    
C7    C43   A    
C17   O7    A    
C58   C91   A    
C1    H1    S    
C16   O23   A    
C39   C45   A    
C60   C93   A    
C95   H19   S    
C13   O13   A    
C29   H13   S    
C20   O6    A    
C13   O21   A    
C5    H46   S    
C6    C44   A    
C30   C63   A    
C7    C33   A    
C34   C41   A    
O1    Zn1   S    
C74   C82   A    
C97   H26   S    
C4    H50   S    
C8    O1    A    
C39   C91   A    
C33   C66   A    
C55   C68   A    
C66   C89   A    
C48   C51   A    
C2    C45   A    
C59   H51   S    
C65   C90   A    
C23   H7    S    
C15   H12   S    
C82   C96   S    
C57   C90   A    
C67   C80   A    
O7    Zn3   S    
C84   C100  S    
C23   C56   A    
C24   H8    S    
O21   Zn6   S    
C30   C92   A    
C37   C52   A    
C101  H35   S    
C11   C72   S    
C4    C5    S    
C54   C67   A    
O11   Zn6   S    
C46   C51   A    
O9    Zn5   S    
C5    H48   S    
C2    C31   A    
C26   H23   S    
C70   H52   S    
C38   C44   A    
O8    Zn4   S    
C61   C88   A    
O16   Zn2   S    
O10   Zn6   S    
C35   C88   A    
C2    H2    S    
C18   C78   S    
C41   C81   A    
C96   C97   S    
C24   C37   A    
C41   C47   A    
C7    H4    S    
C20   C74   S    
C92   H54   S    
C14   O22   A    
C57   C71   A    
C14   O9    A    
C25   C48   A    
C21   H5    S    
C95   H20   S    
C56   C89   A    
C29   C81   A    
C33   H17   S    
O12   Zn2   S    
C61   C74   A    
C62   C75   A    
C25   C58   A    
C80   C94   S    
C26   C53   A    
C76   C86   A    
C11   O15   A    
C17   O24   A    
C96   H28   S    
C71   C84   A    
C75   C80   A    
C4    H49   S    
C38   C90   A    
C29   C62   A    
C34   C49   A    
C37   H34   S    
C65   C78   A    
O14   Zn4   S    
C16   C76   S    
C31   C64   A    
C9    O12   A    
C28   C70   A    
C3    H42   S    
C32   H16   S    
C97   H24   S    
C36   C43   A    
O18   Zn3   S    
C27   H10   S    
C101  H36   S    
C8    O16   A    
C22   C55   A    
O23   Zn5   S    
C99   H29   S    
C95   H18   S    
C10   O14   A    
C62   C87   A    
C98   H32   S    
C11   O19   A    
C81   H53   S    
C12   O20   A    
C100  H39   S    
C68   C82   A    
O13   Zn5   S    
C19   C75   S    
C19   O3    A    
C27   C59   A    
C28   C61   A    
C79   C83   A    
C58   C72   A    
C21   C54   A    
C45   C50   A    
C22   H6    S    
C98   H33   S    
C38   C52   A    
C100  C101  S    
C6    H3    S    
C34   C87   A    
O17   Zn1   S    
O3    Zn2   S    
O5    Zn1   S    
C94   C95   S    
C3    C102  S    
C73   C86   A    
C28   H11   S    
C25   H9    S    
C42   C49   A    
C77   C85   A    
O22   Zn6   S    
C78   C84   A    
C46   C92   A    
C56   C69   A    
C20   O4    A    
C32   C65   A    
C15   C47   A    
C64   C91   A    
C63   C93   A    
C94   H21   S    
C1    C49   A    
C102  H44   S    
C85   C102  S    
O24   Zn4   S    
O2    Zn3   S    
C96   H27   S    
O19   Zn4   S    
C94   H22   S    
