data_mof_unit_47863.cif
_audit_creation_date              2012-12-10T17:18:16-0500
_audit_creation_method            fapswitch 2.2
_symmetry_space_group_name_H-M    P1
_symmetry_Int_Tables_number       1
_space_group_crystal_system       triclinic
_cell_length_a                    10.278681
_cell_length_b                    10.711951
_cell_length_c                    14.964382
_cell_angle_alpha                 91.825646
_cell_angle_beta                  81.131153
_cell_angle_gamma                 94.14143
_cell_volume                      1623.33969789

loop_
_atom_site_label
_atom_site_type_symbol
_atom_type_description
_atom_site_fract_x
_atom_site_fract_y
_atom_site_fract_z
_atom_type_partial_charge
C1    C     C_R   0.553614 0.732783 0.491414 0.874436
C2    C     C_R   0.446232 0.266895 0.501271 0.906669
C3    C     C_R   0.465131 0.727669 0.965022 0.052298
C4    C     C_R   0.547738 0.279604 0.037134 0.059865
C5    C     C_2   0.579068 0.866083 0.478926 -0.205025
C6    C     C_2   0.420582 0.132656 0.490857 -0.174227
C7    C     C_2   0.496964 0.930156 0.437020 0.060479
C8    C     C_2   0.510031 0.065834 0.436785 0.100713
C9    C     C_2   0.923814 0.499787 0.514800 0.046809
C10   C     C_2   0.070261 0.480943 0.500094 0.050604
C11   C     C_R   0.500341 0.502081 0.672333 0.888550
C12   C     C_R   0.500631 0.500791 0.327316 0.866680
C13   C     C_R   0.492778 0.387282 0.183785 0.039964
C14   C     C_R   0.492711 0.616430 0.815862 0.025320
C15   C     C_R   0.502947 0.501162 0.231338 -0.147665
C16   C     C_R   0.500712 0.502383 0.767791 -0.127741
C17   C     C_R   0.524517 0.614168 0.186163 -0.082137
C18   C     C_R   0.512988 0.389461 0.808569 -0.079587
C19   C     C_R   0.501978 0.615754 0.096442 -0.000750
C20   C     C_R   0.527332 0.390279 0.900393 0.018306
C21   C     C_R   0.507866 0.502363 0.045523 -0.036921
C22   C     C_R   0.508057 0.503522 0.951890 -0.018591
C23   C     C_R   0.514414 0.387829 0.088990 0.124910
C24   C     C_R   0.489254 0.617700 0.910218 0.089091
C25   C     C_R   0.471853 0.725771 0.057390 -0.017435
C26   C     C_R   0.560673 0.282621 0.942751 -0.064953
N1    N     N_2   0.842700 0.448880 0.462930 -0.115143
N2    N     N_2   0.157300 0.551120 0.537070 -0.117663
O1    O     O_R   0.431060 0.692470 0.507460 -0.636912
O2    O     O_R   0.568940 0.307530 0.492540 -0.584939
O3    O     O_R   0.651120 0.659650 0.483670 -0.600838
O4    O     O_R   0.348880 0.340350 0.516330 -0.611522
O5    O     O_R   0.389960 0.516440 0.644050 -0.617009
O6    O     O_R   0.610040 0.483560 0.355950 -0.621936
O7    O     O_R   0.610030 0.483620 0.620260 -0.610940
O8    O     O_R   0.389970 0.516380 0.379740 -0.619777
Zn1   Zn    Zn3+2 0.353060 0.521920 0.515880 0.944788
Zn2   Zn    Zn3+2 0.646940 0.478080 0.484120 0.966844
N3    N     N_3   0.463309 0.272155 0.231367 -0.416202
H1    H     H_    0.373084 0.277350 0.273914 0.202772
H2    H     H_    0.536650 0.264166 0.271219 0.203417
N4    N     N_3   0.491626 0.730227 0.767614 -0.478053
H3    H     H_    0.408289 0.726168 0.735179 0.197951
H4    H     H_    0.576324 0.739498 0.719020 0.202295
C27   C     C_1   0.593715 0.720428 0.224898 0.153314
N5    N     N_1   0.651215 0.804701 0.254562 -0.208212
C28   C     C_1   0.498415 0.273626 0.756271 0.196054
N6    N     N_1   0.486290 0.182000 0.714313 -0.197214
C29   C     C_1   0.429335 0.832522 0.113907 0.207675
N7    N     N_1   0.394222 0.916538 0.159616 -0.184161
C30   C     C_1   0.620836 0.178763 0.891424 0.165133
N8    N     N_1   0.669885 0.096126 0.850994 -0.190583
N9    N     N_3   0.427425 0.841298 0.930646 -0.455414
H5    H     H_    0.344851 0.822319 0.898241 0.214418
H6    H     H_    0.507003 0.883295 0.887594 0.235649
N10   N     N_3   0.579183 0.169796 0.079994 -0.420446
H7    H     H_    0.522324 0.093224 0.058451 0.216333
H8    H     H_    0.678810 0.154983 0.059093 0.191755
N11   N     N_3   0.619247 0.125089 0.377731 -0.450446
H9    H     H_    0.620653 0.084134 0.313245 0.205488
H10   H     H_    0.707217 0.106016 0.399614 0.204096
N12   N     N_3   0.390726 0.871835 0.394497 -0.418032
H11   H     H_    0.310269 0.849442 0.444024 0.205146
H12   H     H_    0.418967 0.790271 0.359363 0.208791
C31   C     C_1   0.304125 0.073973 0.544668 0.180152
N13   N     N_1   0.211175 0.027318 0.587724 -0.189220
C32   C     C_1   0.686485 0.927662 0.519645 0.161365
N14   N     N_1   0.772155 0.976616 0.552342 -0.166629
C33   C     C_1   0.115472 0.372183 0.448117 0.295100
N15   N     N_1   0.149943 0.284744 0.406081 -0.215951
C34   C     C_1   0.868857 0.568421 0.594746 0.300353
N16   N     N_1   0.827602 0.624784 0.658935 -0.204934
N17   N     N_3   0.119473 0.661410 0.581568 -0.405430
H13   H     H_    0.174233 0.734954 0.546531 0.206660
H14   H     H_    0.149339 0.660732 0.645183 0.207396
N18   N     N_3   0.895902 0.414298 0.375392 -0.410987
H15   H     H_    0.868306 0.478824 0.332121 0.218784
H16   H     H_    0.848837 0.327836 0.361238 0.207203

loop_
_geom_bond_atom_site_label_1
_geom_bond_atom_site_label_2
_ccdc_geom_bond_type
N17   H13   S    
C5    C32   S    
C18   C28   S    
C7    C8    S    
N3    H2    S    
N9    H5    S    
O2    Zn2   S    
C1    C5    S    
O8    Zn1   S    
C19   C21   A    
C17   C27   S    
C8    N11   S    
N1    Zn2   S    
C1    O3    A    
N10   H7    S    
C13   C23   A    
C2    O4    A    
C14   C24   A    
N12   H12   S    
C6    C31   S    
C12   O8    A    
C9    C10   S    
C18   C20   A    
C14   N4    S    
N11   H9    S    
C21   C22   A    
C4    N10   S    
N17   H14   S    
C3    C24   A    
C2    C6    S    
N4    H4    S    
N2    N17   S    
N9    H6    S    
N11   H10   S    
C30   N8    T    
C11   O5    A    
O7    Zn2   S    
N18   H15   S    
N3    H1    S    
C5    C7    D    
C4    C23   A    
C6    C8    D    
C27   N5    T    
O5    Zn1   S    
C32   N14   T    
C7    N12   S    
N12   H11   S    
C11   C16   S    
C28   N6    T    
C12   C15   S    
C3    C25   A    
C1    O1    A    
O4    Zn1   S    
C20   C22   A    
C29   N7    T    
C21   C23   A    
C22   C24   A    
N4    H3    S    
C12   O6    A    
N1    N18   S    
C9    N1    D    
C10   N2    D    
C15   C17   A    
O6    Zn2   S    
C9    C34   S    
N18   H16   S    
C4    C26   A    
O3    Zn2   S    
C2    O2    A    
C13   C15   A    
C34   N16   T    
C26   C30   S    
C3    N9    S    
C20   C26   A    
N2    Zn1   S    
C11   O7    A    
C17   C19   A    
N10   H8    S    
C14   C16   A    
C33   N15   T    
C19   C25   A    
C25   C29   S    
C13   N3    S    
C10   C33   S    
C16   C18   A    
C31   N13   T    
O1    Zn1   S    
