data_mof_unit_6222.cif
_audit_creation_date              2012-12-10T19:43:23-0500
_audit_creation_method            fapswitch 2.2
_symmetry_space_group_name_H-M    P1
_symmetry_Int_Tables_number       1
_space_group_crystal_system       triclinic
_cell_length_a                    10.945253
_cell_length_b                    10.829545
_cell_length_c                    9.66955
_cell_angle_alpha                 89.496313
_cell_angle_beta                  91.276418
_cell_angle_gamma                 92.454869
_cell_volume                      1144.78092563

loop_
_atom_site_label
_atom_site_type_symbol
_atom_type_description
_atom_site_fract_x
_atom_site_fract_y
_atom_site_fract_z
_atom_type_partial_charge
C1    C     C_R   0.507112 0.262548 0.501718 0.792378
C2    C     C_R   0.199182 0.528584 0.969413 -0.160838
C3    C     C_R   0.930638 0.514263 0.380811 -0.223996
C4    C     C_R   0.870663 0.493672 0.504830 -0.080189
C5    C     C_R   0.940232 0.469727 0.625754 -0.000671
C6    C     C_R   0.066993 0.472805 0.619405 -0.196649
C7    C     C_R   0.127491 0.495391 0.495707 -0.059657
C8    C     C_R   0.056914 0.512706 0.374106 0.052113
C9    C     C_R   0.901669 0.534257 0.864478 -0.129305
C10   C     C_R   0.858026 0.510289 0.996268 -0.128515
C11   C     C_R   0.799767 0.396319 0.027355 -0.132239
C12   C     C_R   0.262221 0.498250 0.498308 0.835537
C13   C     C_R   0.785598 0.305808 0.925471 -0.168104
C14   C     C_R   0.828778 0.329740 0.792342 -0.117107
C15   C     C_R   0.886842 0.444578 0.761773 0.120703
C16   C     C_R   0.521592 0.107421 0.765422 -0.205262
C17   C     C_R   0.480155 0.044465 0.882854 -0.240482
C18   C     C_R   0.410335 0.934965 0.868375 -0.146988
C19   C     C_R   0.394636 0.880799 0.738248 0.389507
C20   C     C_R   0.454964 0.934492 0.622617 0.027952
C21   C     C_R   0.497671 0.058533 0.631719 0.060099
C22   C     C_R   0.512511 0.127303 0.506467 -0.094129
C23   C     C_R   0.489510 0.736551 0.499315 0.830465
C24   C     C_R   0.515115 0.064516 0.380492 -0.209860
C25   C     C_R   0.502999 0.936965 0.377792 -0.225908
C26   C     C_R   0.475482 0.870380 0.498777 -0.083577
C27   C     C_R   0.642147 0.681552 0.144195 -0.238151
C28   C     C_R   0.704401 0.776048 0.073441 -0.246536
C29   C     C_R   0.705248 0.776545 0.930347 0.164536
C30   C     C_R   0.642953 0.680632 0.858804 -0.162494
C31   C     C_R   0.566666 0.591526 0.926208 0.208810
C32   C     C_R   0.566596 0.591581 0.075171 0.212870
C33   C     C_R   0.445950 0.406876 0.073203 -0.041695
C34   C     C_R   0.737129 0.497587 0.501879 0.764924
C35   C     C_R   0.447672 0.406126 0.925916 -0.087583
C36   C     C_R   0.196115 0.635890 0.047715 -0.134799
C37   C     C_R   0.149775 0.630838 0.180307 -0.196858
C38   C     C_R   0.108481 0.517467 0.235941 0.085381
C39   C     C_R   0.111121 0.408605 0.158139 0.200315
C40   C     C_R   0.155077 0.414106 0.022820 0.132471
Cu1   Cu    Cu3+1 0.499990 0.499990 0.640660 0.954258
Cu2   Cu    Cu3+1 0.500010 0.500010 0.359340 0.936355
H1    H     H_    0.239431 0.535137 0.869013 0.203992
H2    H     H_    0.765815 0.378034 0.130076 0.151560
H3    H     H_    0.742039 0.217020 0.950130 0.121187
H4    H     H_    0.818425 0.258948 0.714024 0.116680
H5    H     H_    0.529155 0.113727 0.283701 0.155692
H6    H     H_    0.575481 0.191694 0.781915 0.176166
H7    H     H_    0.496851 0.084002 0.984361 0.146467
H8    H     H_    0.367451 0.893294 0.958075 0.146728
H9    H     H_    0.515553 0.890710 0.280592 0.170717
H10   H     H_    0.399712 0.331027 0.126941 0.147971
H11   H     H_    0.230025 0.723183 0.005968 0.182064
H12   H     H_    0.662858 0.678475 0.252042 0.212915
H13   H     H_    0.759093 0.844810 0.130709 0.164409
H14   H     H_    0.664494 0.673479 0.752649 0.191985
H15   H     H_    0.405168 0.328777 0.871186 0.154460
H16   H     H_    0.146926 0.714728 0.240146 0.150482
H17   H     H_    0.878488 0.530154 0.287461 0.146680
H18   H     H_    0.118165 0.454389 0.711972 0.148644
H19   H     H_    0.947281 0.622796 0.842423 0.166930
H20   H     H_    0.869471 0.581695 0.072712 0.142626
N1    N     N_R   0.501190 0.501210 0.147910 -0.198639
N2    N     N_R   0.501230 0.501290 0.852040 -0.192057
O1    O     O_R   0.499990 0.319640 0.618810 -0.596495
O2    O     O_R   0.500000 0.319660 0.381240 -0.591589
O3    O     O_R   0.319640 0.500000 0.618780 -0.561417
O4    O     O_R   0.319650 0.500020 0.381210 -0.571919
O5    O     O_R   0.500000 0.680340 0.618760 -0.573893
O6    O     O_R   0.500010 0.680360 0.381190 -0.606304
O7    O     O_R   0.680350 0.499980 0.618790 -0.592425
O8    O     O_R   0.680360 0.500000 0.381220 -0.612373
Cl1   Cl    Cl    0.276781 0.766184 0.717839 -0.692475
N3    N     N_3   0.778239 0.869358 0.859440 -0.582646
H21   H     H_    0.741775 0.954877 0.879505 0.222765
H22   H     H_    0.770453 0.857088 0.752376 0.208828
N4    N     N_3   0.070194 0.292938 0.218285 -0.598838
H23   H     H_    0.142140 0.232545 0.216222 0.234866
H24   H     H_    0.997791 0.255655 0.157557 0.225829
N5    N     N_3   0.157542 0.302560 0.943746 -0.619538
H25   H     H_    0.200812 0.318596 0.850008 0.208609
H26   H     H_    0.067136 0.274830 0.919195 0.234277

loop_
_geom_bond_atom_site_label_1
_geom_bond_atom_site_label_2
_ccdc_geom_bond_type
C16   C21   A    
Cu1   Cu2   S    
C23   O5    A    
C19   C20   A    
C16   H6    S    
C27   H12   S    
C7    C8    A    
C14   H4    S    
N4    H23   S    
C33   H10   S    
C12   O4    A    
C29   C30   A    
N3    H22   S    
C9    H19   S    
C39   N4    S    
C28   C29   A    
C38   C39   A    
Cu2   O6    S    
C18   C19   A    
C23   C26   S    
C36   H11   S    
C16   C17   A    
C1    O1    A    
C40   N5    S    
C35   N2    A    
C9    C10   A    
C37   H16   S    
Cu1   O7    S    
C1    C22   S    
C21   C22   A    
Cu2   O4    S    
C23   O6    A    
C10   H20   S    
C8    C38   S    
C28   H13   S    
C1    O2    A    
N4    H24   S    
C7    C12   S    
C12   O3    A    
C4    C34   S    
N3    H21   S    
C6    H18   S    
C19   Cl1   S    
C24   C25   A    
Cu1   O3    S    
N5    H26   S    
C3    C8    A    
C17   H7    S    
C39   C40   A    
N5    H25   S    
Cu1   O1    S    
C29   N3    S    
C25   C26   A    
C30   H14   S    
C25   H9    S    
C37   C38   A    
C31   C32   A    
C2    H1    S    
C33   N1    A    
Cu2   O8    S    
C17   C18   A    
C11   H2    S    
C22   C24   A    
C3    C4    A    
C34   O8    A    
C18   H8    S    
Cu1   O5    S    
C2    C36   A    
C36   C37   A    
C27   C32   A    
C24   H5    S    
C31   N2    A    
C32   N1    A    
C4    C5    A    
C6    C7    A    
C35   H15   S    
C9    C15   A    
C13   H3    S    
C11   C13   A    
C30   C31   A    
C5    C6    A    
C20   C26   A    
C34   O7    A    
C33   C35   A    
C5    C15   S    
C10   C11   A    
C2    C40   A    
C20   C21   A    
C27   C28   A    
Cu2   O2    S    
C14   C15   A    
Cu1   N2    S    
C13   C14   A    
Cu2   N1    S    
C3    H17   S    
