data_mof_unit_9686.cif
_audit_creation_date              2012-12-10T18:16:26-0500
_audit_creation_method            fapswitch 2.2
_symmetry_space_group_name_H-M    P1
_symmetry_Int_Tables_number       1
_space_group_crystal_system       triclinic
_cell_length_a                    12.589972
_cell_length_b                    13.100796
_cell_length_c                    27.738907
_cell_angle_alpha                 90.71045
_cell_angle_beta                  103.160692
_cell_angle_gamma                 82.059342
_cell_volume                      4411.47367385

loop_
_atom_site_label
_atom_site_type_symbol
_atom_type_description
_atom_site_fract_x
_atom_site_fract_y
_atom_site_fract_z
_atom_type_partial_charge
C1    C     C_R   0.438455 0.691297 0.491830 0.860945
C2    C     C_R   0.417161 0.475917 0.714343 -0.106270
C3    C     C_R   0.512609 0.495249 0.748156 0.327536
C4    C     C_R   0.514930 0.491219 0.899630 -0.090482
C5    C     C_R   0.507500 0.585240 0.873942 -0.008044
C6    C     C_R   0.497674 0.678564 0.898399 -0.136780
C7    C     C_R   0.525217 0.396560 0.874472 -0.042799
C8    C     C_R   0.504854 0.499431 0.646969 -0.043865
C9    C     C_R   0.496468 0.498621 0.353181 -0.039081
C10   C     C_R   0.508235 0.588306 0.026776 0.043930
C11   C     C_R   0.499976 0.401292 0.025081 0.056483
C12   C     C_R   0.501306 0.500182 0.593907 0.873617
C13   C     C_R   0.501605 0.495379 0.050900 0.075095
C14   C     C_R   0.517577 0.678624 0.055047 -0.217116
C15   C     C_R   0.515001 0.678447 0.104751 -0.135142
C16   C     C_R   0.503567 0.588303 0.128174 -0.021615
C17   C     C_R   0.496734 0.496501 0.101416 -0.054340
C18   C     C_R   0.485373 0.405755 0.125308 -0.021486
C19   C     C_R   0.482512 0.408211 0.175437 0.504604
C20   C     C_R   0.500270 0.587354 0.178219 0.503960
C21   C     C_R   0.397088 0.485777 0.268169 -0.098505
C22   C     C_R   0.399013 0.486037 0.318475 -0.210983
C23   C     C_R   0.561417 0.308442 0.505277 0.905024
C24   C     C_R   0.591934 0.510406 0.336892 -0.220950
C25   C     C_R   0.589750 0.509949 0.286630 -0.101050
C26   C     C_R   0.492380 0.497894 0.252267 0.315948
C27   C     C_R   0.505849 0.587913 0.975471 0.057964
C28   C     C_R   0.511435 0.492631 0.950395 0.070052
C29   C     C_R   0.513048 0.399092 0.975629 -0.001197
C30   C     C_R   0.496694 0.680110 0.948130 -0.218458
C31   C     C_R   0.535474 0.302625 0.901274 0.194631
C32   C     C_R   0.483694 0.312580 0.049575 -0.218107
C33   C     C_R   0.477108 0.314868 0.098815 -0.135831
C34   C     C_R   0.498849 0.499577 0.406117 0.855119
C35   C     C_R   0.529699 0.305671 0.950967 -0.207379
C36   C     C_R   0.713188 0.058809 0.473641 0.504647
C37   C     C_R   0.597776 0.199004 0.502116 -0.126929
C38   C     C_R   0.295679 0.840229 0.493099 -0.186969
C39   C     C_R   0.265637 0.945923 0.495018 -0.146012
C40   C     C_R   0.340990 0.012394 0.491846 -0.184202
C41   C     C_R   0.446371 0.973648 0.483834 0.119913
C42   C     C_R   0.468060 0.868808 0.473067 0.086721
C43   C     C_R   0.531215 0.035111 0.486413 0.025771
C44   C     C_R   0.628534 0.996552 0.470491 0.037559
C45   C     C_R   0.508102 0.584413 0.823771 0.499696
C46   C     C_R   0.638385 0.897590 0.451227 -0.221411
C47   C     C_R   0.559387 0.834357 0.452618 -0.198886
C48   C     C_R   0.522592 0.133301 0.505757 -0.260295
C49   C     C_R   0.694665 0.161727 0.487214 -0.290100
C50   C     C_R   0.398464 0.801032 0.483840 -0.116250
C51   C     C_R   0.088737 0.342696 0.433279 -0.303039
C52   C     C_R   0.798920 0.633094 0.557028 0.016577
C53   C     C_R   0.902598 0.664346 0.567667 -0.260069
C54   C     C_R   0.984190 0.614402 0.545866 -0.200368
C55   C     C_R   0.962144 0.532332 0.513146 0.018400
C56   C     C_R   0.525389 0.400699 0.823511 0.509551
C57   C     C_R   0.854734 0.503931 0.503301 0.237485
C58   C     C_R   0.041631 0.477936 0.489665 -0.013253
C59   C     C_R   0.011864 0.397224 0.456746 0.190979
C60   C     C_R   0.905794 0.371416 0.447608 -0.291092
C61   C     C_R   0.828602 0.424061 0.470576 -0.225944
C62   C     C_R   0.150366 0.499580 0.497599 -0.053251
C63   C     C_R   0.194630 0.368018 0.442704 0.006247
C64   C     C_R   0.604083 0.517047 0.731643 -0.102286
C65   C     C_R   0.600380 0.519129 0.681212 -0.214074
C66   C     C_R   0.413107 0.478032 0.663902 -0.217734
H1    H     H_    0.338441 0.462672 0.638308 0.164040
H2    H     H_    0.677885 0.532081 0.757944 0.139067
H3    H     H_    0.472618 0.240442 0.031331 0.142843
H4    H     H_    0.668281 0.519795 0.362866 0.169230
H5    H     H_    0.465527 0.244720 0.116051 0.190990
H6    H     H_    0.663639 0.518852 0.274265 0.142345
H7    H     H_    0.541941 0.232749 0.970352 0.143933
H8    H     H_    0.754286 0.212478 0.484782 0.169005
H9    H     H_    0.708354 0.867670 0.436147 0.182831
H10   H     H_    0.346269 0.459422 0.727270 0.137351
H11   H     H_    0.454800 0.162415 0.522182 0.164912
H12   H     H_    0.239830 0.789255 0.500132 0.150152
H13   H     H_    0.313709 0.093613 0.494531 0.134381
H14   H     H_    0.185593 0.976370 0.501142 0.153021
H15   H     H_    0.570245 0.758362 0.437221 0.176742
H16   H     H_    0.255554 0.326293 0.425188 0.140242
H17   H     H_    0.882248 0.309976 0.422582 0.170525
H18   H     H_    0.067246 0.280946 0.408130 0.153849
H19   H     H_    0.180990 0.558436 0.522213 0.123754
H20   H     H_    0.734974 0.672043 0.573623 0.142509
H21   H     H_    0.490091 0.751530 0.879077 0.189251
H22   H     H_    0.062966 0.641978 0.555156 0.136930
H23   H     H_    0.919585 0.727369 0.592572 0.151868
H24   H     H_    0.748785 0.400548 0.461888 0.214230
H25   H     H_    0.324331 0.476823 0.330094 0.165383
H26   H     H_    0.321682 0.476570 0.241500 0.143913
H27   H     H_    0.522439 0.749567 0.124813 0.191211
H28   H     H_    0.529937 0.750543 0.040242 0.143256
H29   H     H_    0.485356 0.755470 0.963683 0.141951
H30   H     H_    0.672203 0.535915 0.669137 0.163776
N1    N     N_R   0.516173 0.493360 0.799867 -0.356613
N2    N     N_R   0.490667 0.497994 0.200707 -0.356889
N3    N     N_R   0.222180 0.444690 0.474320 -0.102463
N4    N     N_R   0.776980 0.554780 0.525420 -0.130872
O1    O     O_R   0.366730 0.627160 0.487740 -0.613330
O2    O     O_2   0.506368 0.674904 0.204288 -0.556167
O3    O     O_2   0.534270 0.313956 0.797244 -0.565882
O4    O     O_2   0.473248 0.321449 0.199000 -0.556769
O5    O     O_R   0.544830 0.662520 0.504140 -0.620556
O6    O     O_R   0.410970 0.482310 0.563040 -0.621693
O7    O     O_R   0.589070 0.517670 0.579450 -0.618944
O8    O     O_R   0.455170 0.337480 0.495860 -0.615334
O9    O     O_R   0.633270 0.372840 0.512260 -0.635360
O10   O     O_R   0.410930 0.482330 0.420550 -0.615908
O11   O     O_R   0.589030 0.517690 0.436960 -0.646443
O12   O     O_2   0.499468 0.674010 0.798687 -0.562412
Zn1   Zn    Zn3+2 0.381080 0.476390 0.489050 0.944092
Zn2   Zn    Zn3+2 0.618920 0.523610 0.510950 0.928668
C67   C     C_3   0.553096 0.197364 0.878958 -0.772480
H31   H     H_    0.562247 0.133712 0.906317 0.201442
H32   H     H_    0.481069 0.186880 0.848656 0.267112
H33   H     H_    0.629827 0.188387 0.865066 0.265188
O13   O     O_3   0.809854 0.023352 0.459243 -0.649379
C68   C     C_3   0.882182 0.960490 0.497519 0.060750
H34   H     H_    0.935173 0.903911 0.479945 0.171539
H35   H     H_    0.838924 0.914271 0.518527 0.130898
C69   C     C_3   0.956192 0.025366 0.533162 -0.358458
H36   H     H_    0.002696 0.067251 0.512167 0.227480
H37   H     H_    0.904874 0.083087 0.550960 0.224874
C70   C     C_3   0.037090 0.957803 0.573531 -0.952168
H38   H     H_    0.991744 0.919842 0.596568 0.265371
H39   H     H_    0.092259 0.006165 0.597714 0.274726
H40   H     H_    0.088223 0.897641 0.556925 0.255676

loop_
_geom_bond_atom_site_label_1
_geom_bond_atom_site_label_2
_ccdc_geom_bond_type
C10   C27   A    
C58   C62   A    
C12   O6    A    
C21   C26   A    
C8    C66   A    
C70   H38   S    
O1    Zn1   S    
C41   C42   A    
C45   O12   S    
C24   H4    S    
C69   H36   S    
C53   C54   A    
C61   H24   S    
C64   H2    S    
C28   C29   A    
C38   C39   A    
C60   H17   S    
C9    C22   A    
C69   H37   S    
C20   O2    S    
C67   H31   S    
C18   C19   A    
C36   O13   S    
C63   N3    A    
C54   C55   A    
C65   H30   S    
C44   C46   A    
C16   C17   A    
C67   H32   S    
C22   H25   S    
C43   C48   A    
C68   C69   S    
C16   C20   A    
C66   H1    S    
C59   C60   A    
C21   C22   A    
C27   C30   A    
C34   O11   A    
C41   C43   A    
C56   N1    A    
C4    C7    A    
C31   C67   S    
C46   H9    S    
C4    C28   A    
C19   N2    A    
C68   H35   S    
C23   O9    A    
C62   H19   S    
C7    C31   A    
O6    Zn1   S    
O5    Zn2   S    
N4    Zn2   S    
C24   C25   A    
C10   C14   A    
C39   C40   A    
C69   C70   S    
C38   H12   S    
C70   H40   S    
C58   C59   A    
C23   C37   S    
C57   N4    A    
C5    C45   A    
C52   N4    A    
C6    H21   S    
C60   C61   A    
C48   H11   S    
C43   C44   A    
C36   C49   A    
O7    Zn2   S    
C15   H27   S    
C30   H29   S    
C37   C49   A    
C19   O4    S    
C3    N1    S    
C14   C15   A    
C8    C12   S    
C67   H33   S    
C17   C18   A    
C40   H13   S    
C51   C63   A    
C25   H6    S    
C37   C48   A    
O10   Zn1   S    
O9    Zn2   S    
C42   C50   A    
C40   C41   A    
C6    C30   A    
C26   N2    S    
C11   C32   A    
C55   C57   A    
C53   H23   S    
C9    C34   S    
C34   O10   A    
C31   C35   A    
C36   C44   A    
C51   C59   A    
C1    O1    A    
C2    H10   S    
C52   C53   A    
C1    C50   S    
C46   C47   A    
C35   H7    S    
C70   H39   S    
C49   H8    S    
C56   O3    S    
C4    C5    A    
C2    C66   A    
C10   C13   A    
N3    Zn1   S    
C12   O7    A    
O13   C68   S    
C9    C24   A    
C57   C61   A    
C32   H3    S    
C38   C50   A    
O8    Zn1   S    
C29   C35   A    
C13   C17   A    
C39   H14   S    
C52   H20   S    
C2    C3    A    
C25   C26   A    
C45   N1    A    
C32   C33   A    
C54   H22   S    
C11   C13   A    
C5    C6    A    
C23   O8    A    
C64   C65   A    
O11   Zn2   S    
C7    C56   A    
C42   C47   A    
C47   H15   S    
C3    C64   A    
C18   C33   A    
C33   H5    S    
C62   N3    A    
C8    C65   A    
C20   N2    A    
C11   C29   A    
C55   C58   A    
C27   C28   A    
C68   H34   S    
C51   H18   S    
C14   H28   S    
C63   H16   S    
C15   C16   A    
C1    O5    A    
C21   H26   S    
