data_mof_unit_31626.cif
_audit_creation_date              2012-12-10T19:11:04-0500
_audit_creation_method            fapswitch 2.2
_symmetry_space_group_name_H-M    P1
_symmetry_Int_Tables_number       1
_space_group_crystal_system       triclinic
_cell_length_a                    10.80001
_cell_length_b                    9.089983
_cell_length_c                    7.792988
_cell_angle_alpha                 90.009922
_cell_angle_beta                  90.242129
_cell_angle_gamma                 90.004228
_cell_volume                      765.045650541

loop_
_atom_site_label
_atom_site_type_symbol
_atom_type_description
_atom_site_fract_x
_atom_site_fract_y
_atom_site_fract_z
_atom_type_partial_charge
C1    C     C_R   0.499986 0.220069 0.499996 0.821379
C2    C     C_R   0.259372 0.502775 0.499422 0.856233
C3    C     C_R   0.740528 0.499895 0.500206 0.940148
C4    C     C_R   0.499997 0.779932 0.500012 0.862688
C5    C     C_1   0.499982 0.065383 0.500004 -0.146182
C6    C     C_3   0.072300 0.368735 0.600294 0.041865
C7    C     C_3   0.069820 0.487669 0.310400 0.184608
C8    C     C_3   0.929059 0.359192 0.585443 0.044682
C9    C     C_3   0.927196 0.503864 0.311287 0.111528
C10   C     C_1   0.499984 0.934605 0.500027 -0.129865
C11   C     C_3   0.071164 0.658355 0.572411 0.617711
C12   C     C_3   0.926534 0.644911 0.598027 0.746604
C13   C     C_3   0.121598 0.506305 0.498454 -0.221206
C14   C     C_3   0.878138 0.503123 0.500861 -0.170489
Cu1   Cu    Cu3+1 0.500000 0.500010 0.669080 1.076164
Cu2   Cu    Cu3+1 0.500000 0.500010 0.330920 1.049128
H1    H     H_    0.111597 0.268201 0.538132 0.104378
H2    H     H_    0.093301 0.374143 0.265754 0.065369
H3    H     H_    0.905533 0.265684 0.497925 0.085170
H4    H     H_    0.888373 0.406062 0.242157 0.077380
N1    N     N_1   0.500000 0.499970 0.076820 -0.030864
N2    N     N_1   0.500000 0.499970 0.923180 -0.024971
O1    O     O_R   0.500000 0.288400 0.642760 -0.577259
O2    O     O_R   0.500000 0.288400 0.357240 -0.589995
O3    O     O_R   0.317700 0.499990 0.642790 -0.554468
O4    O     O_R   0.317700 0.499990 0.357210 -0.560350
O5    O     O_R   0.682300 0.499990 0.642790 -0.515174
O6    O     O_R   0.682300 0.499990 0.357210 -0.601324
O7    O     O_R   0.500000 0.711620 0.642810 -0.572415
O8    O     O_R   0.500000 0.711620 0.357190 -0.570309
O9    O     O_3   0.110919 0.369986 0.772928 -0.723126
H5    H     H_    0.111986 0.266373 0.813260 0.353021
O10   O     O_3   0.123101 0.588665 0.195298 -0.598735
H6    H     H_    0.108181 0.549122 0.078483 0.350293
O11   O     O_3   0.873832 0.330958 0.745494 -0.671684
H7    H     H_    0.885810 0.224698 0.770016 0.341341
O12   O     O_3   0.890898 0.634250 0.226696 -0.569664
H8    H     H_    0.850723 0.605843 0.116886 0.363582
O13   O     O_3   0.129258 0.704440 0.726411 -0.726452
H9    H     H_    0.146023 0.619310 0.800702 0.364368
O14   O     O_3   0.093851 0.770180 0.450957 -0.611615
H10   H     H_    0.184472 0.788845 0.449370 0.338990
O15   O     O_3   0.893805 0.639556 0.773503 -0.702343
H11   H     H_    0.946650 0.567340 0.833706 0.364651
O16   O     O_3   0.867075 0.769310 0.527455 -0.647568
H12   H     H_    0.889355 0.855268 0.600059 0.354776

loop_
_geom_bond_atom_site_label_1
_geom_bond_atom_site_label_2
_ccdc_geom_bond_type
Cu2   O6    S    
C6    C8    S    
O15   H11   S    
Cu1   O7    S    
Cu2   N1    S    
C12   O15   S    
C11   C13   S    
O14   H10   S    
C9    H4    S    
Cu1   O5    S    
C4    O7    A    
C9    C14   S    
C7    H2    S    
C1    O1    A    
C9    O12   S    
C6    O9    S    
C5    C10   T    
C2    O4    A    
N1    N2    T    
C6    C13   S    
C11   O13   S    
C7    O10   S    
O12   H8    S    
C3    C14   S    
C1    C5    S    
Cu1   O1    S    
C3    O6    A    
C12   C14   S    
C11   O14   S    
C2    O3    A    
C3    O5    A    
Cu2   O4    S    
Cu1   O3    S    
C8    H3    S    
C4    C10   S    
Cu1   Cu2   S    
C6    H1    S    
C7    C13   S    
O10   H6    S    
C1    O2    A    
Cu2   O2    S    
O13   H9    S    
C7    C9    S    
C2    C13   S    
C8    C14   S    
O16   H12   S    
Cu2   O8    S    
C8    O11   S    
Cu1   N2    S    
C4    O8    A    
O9    H5    S    
C11   C12   S    
C12   O16   S    
O11   H7    S    
