data_mof_unit_19948.cif
_audit_creation_date              2012-12-10T18:58:48-0500
_audit_creation_method            fapswitch 2.2
_symmetry_space_group_name_H-M    P1
_symmetry_Int_Tables_number       1
_space_group_crystal_system       triclinic
_cell_length_a                    13.035672
_cell_length_b                    10.801402
_cell_length_c                    9.565857
_cell_angle_alpha                 89.365766
_cell_angle_beta                  96.009503
_cell_angle_gamma                 90.616469
_cell_volume                      1339.36011937

loop_
_atom_site_label
_atom_site_type_symbol
_atom_type_description
_atom_site_fract_x
_atom_site_fract_y
_atom_site_fract_z
_atom_type_partial_charge
C1    C     C_R   0.502995 0.262673 0.501305 0.883369
C2    C     C_R   0.026218 0.536160 0.561448 -0.121400
C3    C     C_R   0.972676 0.475085 0.443945 -0.321925
C4    C     C_R   0.865648 0.460406 0.435634 0.679813
C5    C     C_R   0.862425 0.569995 0.654710 -0.333434
C6    C     C_R   0.969534 0.586845 0.665740 0.520800
C7    C     C_R   0.461752 0.062268 0.603096 0.006810
C8    C     C_R   0.513765 0.129777 0.506771 -0.282357
C9    C     C_R   0.578939 0.066007 0.422335 0.330947
C10   C     C_R   0.574988 0.936394 0.420108 0.591753
C11   C     C_R   0.509160 0.870864 0.502560 -0.250869
C12   C     C_R   0.300629 0.500876 0.474096 0.957789
C13   C     C_R   0.459318 0.934895 0.600615 -0.004073
C14   C     C_3   0.349749 0.925681 0.632893 -0.458352
C15   C     C_3   0.351729 0.066911 0.635965 0.757447
C16   C     C_R   0.579795 0.553218 0.084102 0.039158
C17   C     C_R   0.429461 0.432742 0.065086 0.645011
C18   C     C_R   0.429064 0.433303 0.916415 0.623796
C19   C     C_R   0.578461 0.555350 0.936875 -0.012999
C20   C     C_3   0.611671 0.687966 0.935611 0.451412
C21   C     C_3   0.616772 0.684342 0.094830 0.197047
C22   C     C_R   0.501731 0.737526 0.499817 0.854717
C23   C     C_R   0.699024 0.500610 0.526026 0.821506
C24   C     C_R   0.811019 0.507908 0.540602 -0.219294
C25   C     C_R   0.187699 0.499173 0.460589 -0.354478
C26   C     C_R   0.026861 0.430606 0.335726 0.639231
C27   C     C_R   0.132985 0.443503 0.343649 0.492188
C28   C     C_R   0.134885 0.545583 0.569895 0.352959
Cu1   Cu    Cu3+1 0.499990 0.499980 0.640670 1.082030
Cu2   Cu    Cu3+1 0.500010 0.500020 0.359330 1.082836
H1    H     H_    0.343052 0.881054 0.736865 0.244921
H2    H     H_    0.686865 0.703033 0.892638 0.117732
H3    H     H_    0.562794 0.748614 0.139058 0.205960
H4    H     H_    0.818486 0.609277 0.733227 0.172314
H5    H     H_    0.297857 0.886142 0.544447 0.196699
N1    N     N_R   0.500660 0.500930 0.148010 -0.301226
N2    N     N_R   0.500660 0.500890 0.852110 -0.258777
O1    O     O_R   0.500000 0.319640 0.618810 -0.545890
O2    O     O_R   0.500010 0.319680 0.381230 -0.529673
O3    O     O_R   0.348990 0.499960 0.599490 -0.500651
O4    O     O_R   0.349000 0.500000 0.361910 -0.507841
O5    O     O_R   0.499990 0.680320 0.618770 -0.521384
O6    O     O_R   0.500000 0.680360 0.381190 -0.599968
O7    O     O_R   0.651000 0.500000 0.638090 -0.600827
O8    O     O_R   0.651010 0.500040 0.400510 -0.549605
F1    F     F_    0.814057 0.398501 0.326310 -0.578108
O9    O     O_3   0.286364 0.121947 0.527529 -0.674447
H6    H     H_    0.215054 0.108644 0.552478 0.358598
O10   O     O_3   0.339815 0.117385 0.768344 -0.613587
H7    H     H_    0.392738 0.080751 0.838593 0.340574
F2    F     F_    0.358349 0.363552 0.124748 -0.524922
F3    F     F_    0.355488 0.367759 0.837870 -0.567167
F4    F     F_    0.534005 0.765242 0.878193 -0.655938
O11   O     O_3   0.719035 0.692515 0.156289 -0.655923
H8    H     H_    0.716517 0.681664 0.258828 0.388742
F5    F     F_    0.977730 0.373762 0.221233 -0.519099
O12   O     O_3   0.018437 0.655989 0.774367 -0.667565
H9    H     H_    0.967194 0.683902 0.836656 0.345559
F6    F     F_    0.182457 0.395852 0.238890 -0.518076
O13   O     O_3   0.190927 0.599994 0.683379 -0.631873
H10   H     H_    0.177435 0.549510 0.766901 0.396312
O14   O     O_3   0.646124 0.125309 0.340738 -0.603320
H11   H     H_    0.662137 0.208950 0.378708 0.347717
F7    F     F_    0.637319 0.875384 0.340196 -0.640701

loop_
_geom_bond_atom_site_label_1
_geom_bond_atom_site_label_2
_ccdc_geom_bond_type
Cu1   O1    S    
C12   O3    A    
C23   C24   S    
Cu2   O4    S    
C12   O4    A    
C23   O8    A    
C17   N1    A    
C15   O9    S    
Cu1   O5    S    
C25   C27   A    
C1    C8    S    
C9    C10   A    
C14   H1    S    
C11   C22   S    
C19   C20   S    
Cu2   N1    S    
C12   C25   S    
C5    H4    S    
C17   F2    S    
O14   H11   S    
C7    C15   S    
C17   C18   A    
O12   H9    S    
Cu2   O8    S    
C18   F3    S    
C7    C8    A    
C27   F6    S    
C13   C14   S    
C16   N1    A    
C25   C28   A    
C4    F1    S    
C11   C13   A    
C6    O12   S    
C26   C27   A    
C22   O5    A    
C5    C24   A    
C1    O1    A    
C16   C19   A    
C5    C6    A    
Cu1   O3    S    
C18   N2    A    
Cu2   O2    S    
C2    C3    A    
C28   O13   S    
Cu1   O7    S    
C21   O11   S    
C4    C24   A    
Cu2   O6    S    
C21   H3    S    
C10   C11   A    
C1    O2    A    
Cu1   Cu2   S    
C9    O14   S    
O9    H6    S    
C7    C13   A    
C20   C21   S    
C8    C9    A    
O10   H7    S    
C20   H2    S    
Cu1   N2    S    
C14   H5    S    
O11   H8    S    
O13   H10   S    
C2    C28   A    
C19   N2    A    
C14   C15   S    
C16   C21   S    
C3    C26   A    
C10   F7    S    
C3    C4    A    
C2    C6    A    
C15   O10   S    
C20   F4    S    
C23   O7    A    
C22   O6    A    
C26   F5    S    
