data_mof_unit_66832.cif
_audit_creation_date              2012-12-11T14:31:13-0500
_audit_creation_method            fapswitch 2.2
_symmetry_space_group_name_H-M    P1
_symmetry_Int_Tables_number       1
_space_group_crystal_system       triclinic
_cell_length_a                    8.364748
_cell_length_b                    15.183327
_cell_length_c                    15.109056
_cell_angle_alpha                 97.972508
_cell_angle_beta                  99.637851
_cell_angle_gamma                 98.425606
_cell_volume                      1845.01944096

loop_
_atom_site_label
_atom_site_type_symbol
_atom_type_description
_atom_site_fract_x
_atom_site_fract_y
_atom_site_fract_z
_atom_type_partial_charge
Ba1   Ba    Ba6+2 0.154730 0.543770 0.458180 1.632656
Ba2   Ba    Ba6+2 0.655430 0.456220 0.541750 1.642004
C1    C     C_3   0.359083 0.902463 0.186093 -0.019214
C2    C     C_R   0.098752 0.081312 0.558293 -0.037887
C3    C     C_R   0.957867 0.894375 0.545952 -0.025402
C4    C     C_3   0.820201 0.773108 0.203241 0.332483
C5    C     C_R   0.122200 0.928113 0.586963 -0.073985
C6    C     C_R   0.191783 0.018701 0.591825 -0.105239
C7    C     C_R   0.888021 0.800488 0.538726 -0.023518
C8    C     C_R   0.719609 0.773696 0.501538 -0.275971
C9    C     C_R   0.908755 0.205470 0.482362 0.075666
C10   C     C_R   0.836949 0.111715 0.476836 -0.034737
C11   C     C_R   0.930990 0.050583 0.517295 0.002050
C12   C     C_3   0.302429 0.817106 0.224903 0.562921
C13   C     C_R   0.674967 0.076023 0.431254 -0.045856
C14   C     C_R   0.602185 0.987088 0.432490 -0.093128
C15   C     C_R   0.691846 0.926081 0.472093 -0.036862
C16   C     C_3   0.875862 0.862138 0.167399 -0.006839
C17   C     C_R   0.859810 0.957026 0.512438 0.022101
C18   C     C_R   0.621210 0.833641 0.467129 0.018951
C19   C     C_R   0.071563 0.234037 0.529926 -0.233137
C20   C     C_R   0.233287 0.467079 0.763286 -0.259053
C21   C     C_R   0.133275 0.440594 0.823125 -0.022373
C22   C     C_R   0.196429 0.458040 0.916642 -0.161486
C23   C     C_3   0.489995 0.738544 0.703089 0.298173
C24   C     C_R   0.367699 0.486570 0.950817 0.013308
C25   C     C_R   0.465631 0.513236 0.888060 -0.137546
C26   C     C_R   0.395569 0.509059 0.796796 0.043017
C27   C     C_R   0.595087 0.550528 0.088201 -0.158006
C28   C     C_3   0.664814 0.300383 0.250488 0.271280
C29   C     C_R   0.657522 0.566677 0.181419 -0.003581
C30   C     C_R   0.413427 0.476495 0.207990 0.042044
C31   C     C_R   0.360166 0.448794 0.112201 -0.017668
C32   C     C_R   0.440940 0.494775 0.051106 0.021804
C33   C     C_R   0.559992 0.537453 0.241467 -0.261288
C34   C     C_3   0.509365 0.838146 0.745793 -0.239346
C35   C     C_3   0.591629 0.242544 0.156139 0.013994
C36   C     C_3   0.948313 0.744507 0.747433 0.496970
C37   C     C_3   0.968984 0.846601 0.770235 -0.387782
C38   C     C_3   0.116471 0.262678 0.277237 0.496619
C39   C     C_3   0.020317 0.212171 0.183279 -0.018352
C40   C     C_3   0.440005 0.099950 0.073023 -0.251323
C41   C     C_3   0.054882 0.638280 0.843577 -0.136961
C42   C     C_3   0.284764 0.171768 0.367011 -0.183585
C43   C     C_3   0.032298 0.109375 0.048193 -0.254421
C44   C     C_3   0.295951 0.663377 0.138359 -0.070635
C45   C     C_3   0.989127 0.234947 0.791430 0.367127
C46   C     C_3   0.420692 0.855614 0.032882 -0.241294
C47   C     C_3   0.539475 0.901250 0.677720 -0.492745
C48   C     C_3   0.082210 0.086582 0.791443 -0.495913
C49   C     C_3   0.799505 0.100248 0.824173 -0.355376
C50   C     C_3   0.786355 0.787032 0.300237 -0.254323
C51   C     C_3   0.232517 0.364787 0.077481 -0.418889
C52   C     C_3   0.038702 0.966497 0.304458 -0.252845
C53   C     C_3   0.769508 0.384151 0.233362 -0.340606
C54   C     C_3   0.932112 0.132375 0.771248 -0.015555
C55   C     C_3   0.448920 0.276133 0.785621 0.382220
C56   C     C_3   0.492099 0.257380 0.882302 -0.397772
C57   C     C_R   0.168922 0.173610 0.564585 -0.021217
H1    H     H_    0.207306 0.831913 0.263436 0.046169
H2    H     H_    0.900727 0.175083 0.191411 0.081795
H3    H     H_    0.992960 0.261019 0.137586 0.032520
H4    H     H_    0.555763 0.730883 0.645124 -0.001471
H5    H     H_    0.358209 0.712417 0.679435 0.104587
H6    H     H_    0.613471 0.856033 0.804892 0.125442
H7    H     H_    0.395979 0.849434 0.771773 0.104938
H8    H     H_    0.413386 0.957809 0.244171 0.017971
H9    H     H_    0.784902 0.866476 0.106374 0.059505
H10   H     H_    0.051422 0.251546 0.734671 -0.061157
H11   H     H_    0.078620 0.254258 0.857132 -0.016515
H12   H     H_    0.509985 0.279764 0.115922 0.054716
H13   H     H_    0.877974 0.112604 0.697408 0.108904
H14   H     H_    0.323381 0.292587 0.775099 -0.084340
H15   H     H_    0.537009 0.335305 0.778339 0.114857
H16   H     H_    0.480462 0.316237 0.931669 0.078671
H17   H     H_    0.620620 0.245189 0.896919 0.143662
H18   H     H_    0.407645 0.197294 0.891282 0.098453
H19   H     H_    0.197030 0.884994 0.618434 0.091708
H20   H     H_    0.319503 0.039464 0.624061 0.105558
H21   H     H_    0.474039 0.966547 0.400857 0.071811
H22   H     H_    0.600530 0.116631 0.395116 0.091483
H23   H     H_    0.691320 0.232371 0.117541 0.054057
H24   H     H_    0.665752 0.703222 0.494647 0.071009
H25   H     H_    0.127707 0.303761 0.534245 0.070871
H26   H     H_    0.671038 0.582488 0.046805 0.063960
H27   H     H_    0.109445 0.449886 0.961220 0.085897
H28   H     H_    0.703530 0.739613 0.156596 0.005768
H29   H     H_    0.595008 0.540369 0.908030 0.088336
H30   H     H_    0.607501 0.553535 0.314048 0.066289
H31   H     H_    0.181447 0.461196 0.691675 0.072673
H32   H     H_    0.991028 0.859549 0.141464 0.082913
H33   H     H_    0.565433 0.318762 0.285023 0.085201
H34   H     H_    0.822994 0.716072 0.707772 0.019933
H35   H     H_    0.559580 0.121267 0.207482 0.208739
H36   H     H_    0.544030 0.078057 0.043753 0.091317
H37   H     H_    0.371230 0.137342 0.025873 0.123524
H38   H     H_    0.354963 0.039873 0.079959 0.122059
H39   H     H_    0.861268 0.706948 0.861836 0.190563
H40   H     H_    0.187932 0.661678 0.845826 0.092047
H41   H     H_    0.040846 0.613375 0.908048 0.075183
H42   H     H_    0.005393 0.583398 0.784915 0.127410
H43   H     H_    0.024691 0.150978 0.333317 0.157611
H44   H     H_    0.270786 0.114231 0.404379 0.070739
H45   H     H_    0.101329 0.876014 0.794871 0.114626
H46   H     H_    0.361444 0.229604 0.414058 0.186395
H47   H     H_    0.342467 0.152703 0.307881 0.124846
H48   H     H_    0.130251 0.097429 0.179674 0.223197
H49   H     H_    0.087488 0.050730 0.023800 0.097446
H50   H     H_    0.053739 0.161764 0.005107 0.117117
H51   H     H_    0.898062 0.085305 0.041777 0.102231
H52   H     H_    0.156824 0.759335 0.093270 0.168912
H53   H     H_    0.217538 0.614372 0.080563 0.081135
H54   H     H_    0.301079 0.632695 0.200836 0.148789
H55   H     H_    0.420753 0.680314 0.123658 0.075178
H56   H     H_    0.900283 0.867082 0.824247 0.087358
H57   H     H_    0.567826 0.948028 0.137949 0.192725
H58   H     H_    0.316748 0.887728 0.004643 0.096887
H59   H     H_    0.381800 0.781516 0.020982 0.123650
H60   H     H_    0.521122 0.869798 0.994426 0.093245
H61   H     H_    0.667775 0.906682 0.666865 0.131650
H62   H     H_    0.456320 0.876115 0.611034 0.141252
H63   H     H_    0.518936 0.969503 0.704563 0.141595
H64   H     H_    0.124936 0.090876 0.865723 0.123887
H65   H     H_    0.050935 0.015591 0.758747 0.142963
H66   H     H_    0.184999 0.118117 0.762381 0.136997
H67   H     H_    0.919966 0.874011 0.709931 0.047472
H68   H     H_    0.678457 0.112521 0.790612 0.172078
H69   H     H_    0.789319 0.026721 0.825585 0.105935
H70   H     H_    0.826107 0.137343 0.894767 0.106815
H71   H     H_    0.698461 0.728491 0.309319 0.050730
H72   H     H_    0.899665 0.791193 0.351417 0.110008
H73   H     H_    0.731255 0.847571 0.313726 0.108455
H74   H     H_    0.108827 0.379830 0.084000 0.120967
H75   H     H_    0.234640 0.334226 0.006958 0.101423
H76   H     H_    0.260760 0.310727 0.115409 0.156530
H77   H     H_    0.789712 0.964573 0.248869 0.198410
H78   H     H_    0.045457 0.310804 0.305752 0.048668
H79   H     H_    0.018581 0.017073 0.358821 0.107172
H80   H     H_    0.148363 0.992214 0.277788 0.091118
H81   H     H_    0.061136 0.908579 0.337635 0.141400
H82   H     H_    0.806231 0.436107 0.295535 0.135629
H83   H     H_    0.877641 0.366834 0.207486 0.114163
H84   H     H_    0.701875 0.409822 0.176539 0.030158
H85   H     H_    0.251571 0.924872 0.147852 0.018400
N1    N     N_2   0.500198 0.155601 0.161413 -0.399755
N2    N     N_2   0.966016 0.711696 0.833910 -0.433461
N3    N     N_2   0.128471 0.198353 0.339098 -0.481801
N4    N     N_2   0.107317 0.146958 0.141617 -0.392071
N5    N     N_2   0.225567 0.743909 0.150571 -0.401132
N6    N     N_2   0.481057 0.890358 0.129137 -0.407044
N7    N     N_2   0.895200 0.945001 0.232260 -0.443903
O1    O     O_2   0.174080 0.723060 0.553930 -0.481456
O2    O     O_2   0.796844 0.445216 0.818065 -0.504898
O3    O     O_3   0.856036 0.280623 0.796963 -0.590565
O4    O     O_3   0.901570 0.609580 0.550840 -0.468700
O5    O     O_3   0.408220 0.452130 0.390170 -0.466670
O6    O     O_2   0.675490 0.547140 0.721820 -0.445094
O7    O     O_3   0.550838 0.689982 0.769188 -0.674283
O8    O     O_2   0.504915 0.174509 0.556589 -0.483733
O9    O     O_3   0.458554 0.200162 0.723334 -0.607121
O10   O     O_3   0.370350 0.665080 0.388270 -0.457164
O11   O     O_2   0.270359 0.823810 0.417915 -0.532897
O12   O     O_3   0.274191 0.305998 0.270616 -0.645191
O13   O     O_3   0.070696 0.720473 0.698975 -0.638069
O14   O     O_3   0.438995 0.794377 0.279825 -0.643427
O15   O     O_2   0.134790 0.452800 0.278150 -0.491547
O16   O     O_3   0.937650 0.618620 0.340860 -0.461551
O17   O     O_2   0.983956 0.550191 0.177765 -0.480290
O18   O     O_3   0.940913 0.717960 0.196887 -0.602529
O19   O     O_2   0.636200 0.276890 0.446040 -0.482809
O20   O     O_3   0.908720 0.390410 0.449080 -0.490069
O21   O     O_3   0.439930 0.334910 0.611650 -0.478675
O22   O     O_3   0.764407 0.251734 0.301502 -0.679189
O23   O     O_3   0.402060 0.547860 0.609750 -0.481750
O24   O     O_3   0.872630 0.381370 0.659060 -0.454825
P1    P     P_3+3 0.004200 0.709230 0.580350 0.970206
P2    P     P_3+3 0.305000 0.425570 0.290900 0.960831
P3    P     P_3+3 0.877592 0.611282 0.223241 0.962754
P4    P     P_3+3 0.806080 0.290760 0.419570 0.960096
P5    P     P_3+3 0.915964 0.390031 0.777135 0.956654
P6    P     P_3+3 0.418282 0.781713 0.392589 0.929549
P7    P     P_3+3 0.502320 0.574395 0.724944 0.934218
P8    P     P_3+3 0.391132 0.219539 0.612645 0.940706

loop_
_geom_bond_atom_site_label_1
_geom_bond_atom_site_label_2
_ccdc_geom_bond_type
O4    P1    S    
Ba1   P1    S    
Ba2   O4    S    
C53   H82   S    
C44   H53   S    
C43   N4    S    
C51   H76   S    
C39   H2    S    
C2    C6    A    
O23   P7    S    
H57   N6    S    
C49   H70   S    
C56   H17   S    
C37   H45   S    
C13   H22   S    
C42   H46   S    
C24   C25   A    
C7    P1    S    
C40   H37   S    
C16   H32   S    
C41   H40   S    
Ba1   Ba2   S    
H48   N4    S    
C46   N6    S    
C36   C37   S    
H43   N3    S    
C43   H50   S    
C47   H61   S    
C48   H64   S    
Ba1   O16   S    
C16   H9    S    
C13   C14   A    
C4    C50   S    
C8    H24   S    
C42   N3    S    
C36   H34   S    
Ba1   O1    S    
C12   N5    S    
C49   C54   S    
C23   H4    S    
C55   H14   S    
C2    C11   A    
Ba1   O4    S    
C26   P7    S    
C36   N2    S    
C56   H18   S    
Ba1   P2    S    
C24   C32   S    
C52   H81   S    
C8    C18   A    
C14   C15   A    
C54   H13   S    
O12   P2    S    
C6    H20   S    
C21   C22   A    
C10   C13   A    
C7    C8    A    
C28   O22   S    
C27   H26   S    
C38   N3    S    
C43   H49   S    
Ba2   O20   S    
H35   N1    S    
C36   O13   S    
O2    P5    D    
Ba1   O10   S    
C37   H67   S    
C20   C26   A    
O20   P4    S    
C39   H3    S    
H52   N5    S    
O24   P5    S    
C42   H44   S    
C56   H16   S    
C46   H60   S    
C31   C51   S    
C4    C16   S    
Ba1   O23   S    
C53   H84   S    
C44   H55   S    
C29   P3    S    
C40   H36   S    
C50   H73   S    
C30   C33   A    
C5    C6    A    
C51   H74   S    
C41   H41   S    
O11   P6    D    
C28   H33   S    
C40   H38   S    
C48   H66   S    
C11   C17   A    
C34   H6    S    
C46   H59   S    
H39   N2    S    
O3    P5    S    
C27   C32   A    
C9    C19   A    
C48   C54   S    
C4    H28   S    
C28   C35   S    
C14   H21   S    
C23   H5    S    
C55   H15   S    
C1    H85   S    
Ba1   O5    S    
C41   H42   S    
C45   H11   S    
C3    C7    A    
Ba2   O24   S    
O5    P2    S    
C52   H80   S    
C19   H25   S    
C47   H62   S    
C38   H78   S    
O16   P3    S    
C31   C32   A    
C20   H31   S    
C48   H65   S    
O15   P2    D    
C12   O14   S    
C57   P8    S    
O7    P7    S    
C21   P5    S    
C46   H58   S    
C1    C12   S    
C38   O12   S    
C5    H19   S    
C33   H30   S    
C38   C39   S    
C55   O9    S    
Ba2   O19   S    
C37   H56   S    
C35   H12   S    
C35   N1    S    
C29   C33   A    
C30   P2    S    
C9    P4    S    
Ba2   P4    S    
C49   H69   S    
C16   N7    S    
O18   P3    S    
C23   O7    S    
H77   N7    S    
C3    C5    A    
C1    N6    S    
Ba2   O5    S    
O9    P8    S    
C44   H54   S    
C43   H51   S    
C50   H72   S    
C15   C18   A    
C1    H8    S    
C51   H75   S    
C22   C24   A    
C9    C10   A    
C19   C57   A    
C52   N7    S    
C3    C17   A    
C45   O3    S    
C42   H47   S    
C12   H1    S    
C28   C53   S    
C45   H10   S    
O19   P4    D    
O14   P6    S    
C30   C31   A    
C49   H68   S    
C27   C29   A    
C41   N2    S    
Ba2   O23   S    
C50   H71   S    
O21   P8    S    
C55   C56   S    
C52   H79   S    
C39   N4    S    
Ba1   O15   S    
Ba2   O6    S    
O17   P3    D    
C47   H63   S    
C2    C57   A    
C15   C17   A    
Ba1   O20   S    
O13   P1    S    
C34   H7    S    
O10   P6    S    
C25   H29   S    
C35   H23   S    
C23   C34   S    
O1    P1    D    
C44   N5    S    
C10   C11   A    
O6    P7    D    
C25   C26   A    
C53   H83   S    
O22   P4    S    
C20   C21   A    
C18   P6    S    
O8    P8    D    
C40   N1    S    
C22   H27   S    
C34   C47   S    
Ba2   O21   S    
C45   C54   S    
C4    O18   S    
