data_mof_unit_31169.cif
_audit_creation_date              2012-12-11T17:02:23-0500
_audit_creation_method            fapswitch 2.2
_symmetry_space_group_name_H-M    P1
_symmetry_Int_Tables_number       1
_space_group_crystal_system       triclinic
_cell_length_a                    21.67009
_cell_length_b                    7.066485
_cell_length_c                    14.931338
_cell_angle_alpha                 89.960399
_cell_angle_beta                  106.719683
_cell_angle_gamma                 89.897894
_cell_volume                      2189.78811522

loop_
_atom_site_label
_atom_site_type_symbol
_atom_type_description
_atom_site_fract_x
_atom_site_fract_y
_atom_site_fract_z
_atom_type_partial_charge
O1    O     O_R   0.585850 0.505770 0.002130 -0.538149
O2    O     O_R   0.414150 0.005770 0.997870 -0.524424
O3    O     O_R   0.467530 0.173560 0.861970 -0.527965
O4    O     O_R   0.532470 0.673560 0.138030 -0.533180
C1    C     C_R   0.454436 0.344693 0.825326 0.730394
C2    C     C_R   0.545566 0.844215 0.174758 0.723763
O5    O     O_R   0.588690 0.175900 0.993250 -0.537754
O6    O     O_R   0.411310 0.675900 0.006750 -0.549698
O7    O     O_R   0.536170 0.007950 0.130090 -0.527983
O8    O     O_R   0.463830 0.507950 0.869910 -0.537560
C3    C     C_R   0.614927 0.344772 0.996917 0.689209
C4    C     C_R   0.385058 0.845110 0.003022 0.699241
O9    O     O_3   0.482630 0.339970 0.044740 -0.372592
O10   O     O_3   0.517370 0.839970 0.955260 -0.373752
V1    V     V_3+5 0.503220 0.064200 0.991700 1.506662
V2    V     V_3+5 0.496780 0.564200 0.008300 1.487815
C5    C     C_R   0.278247 0.014658 0.966252 0.185166
C6    C     C_R   0.721999 0.511110 0.036220 0.125437
C7    C     C_R   0.316056 0.854692 0.000611 -0.121843
C8    C     C_R   0.683998 0.353440 0.999709 -0.118252
C9    C     C_R   0.285242 0.700424 0.029173 -0.181669
C10   C     C_R   0.714892 0.200022 0.970321 -0.180764
H1    H     H_    0.312613 0.575535 0.057738 0.151582
H2    H     H_    0.687703 0.075259 0.941551 0.149697
C11   C     C_R   0.219893 0.710738 0.027196 -0.169437
C12   C     C_R   0.780238 0.210920 0.972214 -0.162423
H3    H     H_    0.198904 0.592636 0.053956 0.131814
H4    H     H_    0.801322 0.093465 0.944982 0.128994
C13   C     C_R   0.183301 0.876220 0.996970 -0.089648
C14   C     C_R   0.816703 0.376076 0.003169 -0.085900
C15   C     C_R   0.213484 0.024802 0.964112 0.121347
C16   C     C_R   0.786638 0.522212 0.038110 0.132249
C17   C     C_3   0.219107 0.226380 0.994020 -0.453693
C18   C     C_3   0.780841 0.726118 0.011794 -0.435846
C19   C     C_3   0.289638 0.215208 0.997652 -0.389952
C20   C     C_3   0.710452 0.713651 0.009140 -0.409208
H5    H     H_    0.211373 0.246739 0.063869 0.169081
H6    H     H_    0.787966 0.751861 0.941952 0.168149
H7    H     H_    0.190507 0.321335 0.937877 0.196256
H8    H     H_    0.809730 0.817569 0.069113 0.195230
H9    H     H_    0.322821 0.227249 0.069724 0.170453
H10   H     H_    0.676683 0.731657 0.937800 0.185248
H11   H     H_    0.301740 0.307742 0.945075 0.213205
H12   H     H_    0.698680 0.797995 0.064512 0.212739
C21   C     C_R   0.929637 0.882655 0.723090 -0.139265
C22   C     C_R   0.069720 0.382744 0.277306 -0.137870
C23   C     C_R   0.572189 0.848775 0.277371 -0.206480
C24   C     C_R   0.426904 0.358243 0.723128 -0.209043
C25   C     C_R   0.940319 0.879430 0.565048 0.338885
C26   C     C_R   0.057571 0.377359 0.434776 0.340598
C27   C     C_R   0.969366 0.888115 0.663072 -0.098139
C28   C     C_R   0.029232 0.382211 0.336400 -0.101878
C29   C     C_R   0.862834 0.872619 0.686905 -0.237004
C30   C     C_R   0.136529 0.384387 0.314965 -0.241274
C31   C     C_R   0.832621 0.865978 0.589916 0.050157
C32   C     C_R   0.165697 0.392560 0.412183 0.049155
C33   C     C_R   0.872380 0.872779 0.529138 0.083818
C34   C     C_R   0.125380 0.385269 0.472012 0.085693
C35   C     C_R   0.764093 0.852280 0.551493 0.010302
C36   C     C_R   0.233925 0.407076 0.451663 0.011550
C37   C     C_R   0.736073 0.865469 0.453036 0.090817
C38   C     C_R   0.261541 0.385060 0.549700 0.100623
C39   C     C_R   0.777419 0.859380 0.395428 -0.160636
C40   C     C_R   0.219969 0.387128 0.606990 -0.171359
C41   C     C_R   0.843799 0.865473 0.432472 -0.118713
C42   C     C_R   0.153480 0.387448 0.569020 -0.125045
C43   C     C_R   0.722951 0.817421 0.607780 -0.174795
C44   C     C_R   0.274807 0.457258 0.397252 -0.179588
C45   C     C_R   0.656893 0.792722 0.569623 0.368664
C46   C     C_R   0.340147 0.490364 0.437660 0.358544
C47   C     C_R   0.629092 0.806150 0.471832 -0.047904
C48   C     C_R   0.368884 0.447646 0.533127 -0.050836
C49   C     C_R   0.667474 0.864172 0.414302 0.001622
C50   C     C_R   0.330112 0.380024 0.588423 -0.005033
C51   C     C_R   0.564502 0.755778 0.430078 -0.136762
C52   C     C_R   0.435624 0.467877 0.573619 -0.139102
C53   C     C_R   0.536576 0.769350 0.333913 0.359842
C54   C     C_R   0.464296 0.434170 0.668270 0.349201
C55   C     C_R   0.635810 0.912825 0.319429 -0.090192
C56   C     C_R   0.361355 0.312155 0.680431 -0.090144
H13   H     H_    0.872715 0.862922 0.384172 0.197254
H14   H     H_    0.124124 0.389842 0.616723 0.194682
H15   H     H_    0.835688 0.876399 0.737073 0.104827
H16   H     H_    0.164756 0.377461 0.266113 0.107410
H17   H     H_    0.759384 0.839662 0.320790 0.136584
H18   H     H_    0.238196 0.398377 0.682140 0.130862
H19   H     H_    0.740733 0.799712 0.682430 0.140791
H20   H     H_    0.256326 0.491317 0.323960 0.142022
H21   H     H_    0.535363 0.697066 0.470940 0.137628
H22   H     H_    0.466748 0.512443 0.532690 0.149068
O11   O     O_R   0.036080 0.231270 0.130120 -0.530605
O12   O     O_R   0.963920 0.731270 0.869880 -0.531807
O13   O     O_R   0.911300 0.558970 0.006750 -0.547330
O14   O     O_R   0.088700 0.058970 0.993250 -0.546141
C57   C     C_R   0.884705 0.389905 0.001167 0.729264
C58   C     C_R   0.115290 0.889737 0.998899 0.734103
O15   O     O_R   0.032450 0.561140 0.138040 -0.545759
O16   O     O_R   0.967550 0.061140 0.861960 -0.545674
O17   O     O_R   0.085870 0.728910 0.002130 -0.539038
O18   O     O_R   0.914130 0.228910 0.997870 -0.537173
C59   C     C_R   0.043943 0.392111 0.175145 0.761155
C60   C     C_R   0.956059 0.892348 0.824961 0.763805
O19   O     O_3   0.017320 0.394650 0.955270 -0.375318
O20   O     O_3   0.982680 0.894650 0.044730 -0.374641
V3    V     V_3+5 0.996780 0.670490 0.008300 1.470323
V4    V     V_3+5 0.003220 0.170490 0.991700 1.473795
O21   O     O_3   0.621498 0.755676 0.631128 -0.621772
H23   H     H_    0.578596 0.815660 0.606977 0.299304
O22   O     O_3   0.374151 0.564433 0.380823 -0.618915
H24   H     H_    0.403474 0.662511 0.416947 0.308841
O23   O     O_3   0.976643 0.873826 0.502492 -0.624640
H25   H     H_    0.019393 0.818162 0.533522 0.327362
O24   O     O_3   0.020735 0.363133 0.496383 -0.619894
H26   H     H_    0.979313 0.301050 0.464740 0.332843
C61   C     C_2   0.040341 0.910202 0.702209 0.728109
O25   O     O_2   0.069939 0.816475 0.769868 -0.573755
O26   O     O_R   0.073281 0.038986 0.661618 -0.643723
H27   H     H_    0.121281 0.041205 0.694314 0.295865
C62   C     C_2   0.958046 0.393748 0.295963 0.732033
O27   O     O_2   0.930729 0.296568 0.228527 -0.569417
O28   O     O_R   0.922285 0.516674 0.335104 -0.647860
H28   H     H_    0.874442 0.512293 0.301520 0.297499
C63   C     C_2   0.665315 0.051939 0.269427 0.754111
O29   O     O_2   0.688091 0.198555 0.308661 -0.546228
O30   O     O_R   0.669414 0.013020 0.179755 -0.680419
H29   H     H_    0.694093 0.113967 0.156340 0.285920
C64   C     C_2   0.329370 0.168412 0.724906 0.734359
O31   O     O_2   0.333940 0.176367 0.808197 -0.585674
O32   O     O_R   0.293331 0.023819 0.670262 -0.652178
H30   H     H_    0.273525 0.935226 0.707757 0.292850
O33   O     O_3   0.473717 0.707835 0.298948 -0.626494
H31   H     H_    0.454590 0.758264 0.235143 0.278976
O34   O     O_3   0.529447 0.472116 0.702878 -0.623325
H32   H     H_    0.546493 0.421146 0.766977 0.275688

loop_
_geom_bond_atom_site_label_1
_geom_bond_atom_site_label_2
_ccdc_geom_bond_type
C14   C16   A    
C39   C41   A    
C31   C35   A    
C20   H10   S    
O23   H25   S    
O1    C3    A    
C23   C55   A    
C48   C52   A    
O2    C4    A    
C2    O7    A    
O20   V4    S    
C45   O21   S    
C63   O29   D    
O5    C3    A    
C17   H7    S    
C18   H8    S    
C7    C9    A    
C52   C54   A    
O24   H26   S    
C17   C19   S    
C63   O30   S    
C21   C27   A    
C61   O25   D    
C58   O17   A    
C22   C28   A    
C25   C33   A    
C36   C38   A    
C53   O33   S    
C24   C54   A    
C45   C47   A    
C38   C40   A    
O13   V3    S    
C34   C42   A    
C25   C27   A    
C26   C28   A    
O21   H23   S    
C15   C17   S    
C19   H11   S    
C18   C20   S    
O12   C60   A    
C25   O23   S    
C35   C43   A    
C29   C31   A    
C21   C29   A    
O13   C57   A    
C50   C56   A    
C39   H17   S    
O11   V4    S    
O11   C59   A    
C40   H18   S    
O20   V3    S    
C1    C24   S    
C62   O28   S    
C11   C13   A    
O17   V3    S    
C22   C59   S    
C30   C32   A    
C3    C8    S    
C35   C37   A    
C2    C23   S    
C26   C34   A    
C48   C50   A    
C47   C49   A    
C57   O18   A    
C61   O26   S    
O16   C60   A    
C55   C63   S    
C17   H5    S    
C32   C36   A    
C43   H19   S    
C43   C45   A    
C40   C42   A    
O4    V2    S    
C64   O32   S    
C14   C57   S    
C46   O22   S    
C42   H14   S    
C41   H13   S    
O6    C4    A    
C22   C30   A    
C37   C39   A    
C49   C55   A    
O19   V3    S    
O1    V2    S    
O14   C58   A    
O2    V1    S    
C51   C53   A    
O28   H28   S    
O4    C2    A    
C8    C10   A    
C12   C14   A    
C9    H1    S    
O34   H32   S    
C5    C15   A    
C10   H2    S    
C20   H12   S    
C6    C16   A    
C23   C53   A    
O33   H31   S    
O3    V1    S    
O32   H30   S    
C9    C11   A    
O14   V4    S    
C18   H6    S    
O18   V4    S    
C33   C41   A    
O3    C1    A    
C13   C58   S    
C62   O27   D    
C56   C64   S    
C11   H3    S    
C12   H4    S    
O16   V4    S    
C29   H15   S    
C26   O24   S    
C37   C49   A    
C24   C56   A    
C31   C33   A    
O7    V1    S    
O15   V3    S    
C1    O8    A    
C13   C15   A    
O8    V2    S    
O22   H24   S    
C47   C51   A    
O30   H29   S    
C44   H20   S    
C4    C7    S    
O5    V1    S    
C5    C7    A    
C32   C34   A    
O19   V4    S    
C6    C8    A    
C30   H16   S    
C19   H9    S    
C54   O34   S    
C27   C61   S    
C21   C60   S    
C51   H21   S    
C28   C62   S    
O12   V3    S    
C36   C44   A    
O6    V2    S    
C10   C12   A    
O9    V2    S    
C52   H22   S    
C44   C46   A    
O10   V1    S    
C38   C50   A    
C46   C48   A    
C5    C19   S    
O26   H27   S    
C6    C20   S    
O15   C59   A    
C64   O31   D    
C16   C18   S    
