data_mof_unit_10232.cif
_audit_creation_date              2012-12-10T17:50:44-0500
_audit_creation_method            fapswitch 2.2
_symmetry_space_group_name_H-M    P1
_symmetry_Int_Tables_number       1
_space_group_crystal_system       triclinic
_cell_length_a                    14.722355
_cell_length_b                    14.67145
_cell_length_c                    15.848261
_cell_angle_alpha                 76.829282
_cell_angle_beta                  102.791492
_cell_angle_gamma                 114.808273
_cell_volume                      2994.75414743

loop_
_atom_site_label
_atom_site_type_symbol
_atom_type_description
_atom_site_fract_x
_atom_site_fract_y
_atom_site_fract_z
_atom_type_partial_charge
C1    C     C_R   0.880336 0.312169 0.515411 0.800532
C2    C     C_R   0.119624 0.687848 0.486838 0.793796
C3    C     C_R   0.782723 0.027695 0.582851 -0.199926
C4    C     C_R   0.216459 0.973960 0.457940 -0.204125
C5    C     C_R   0.849685 0.128325 0.565547 -0.165620
C6    C     C_R   0.149900 0.872672 0.459688 -0.173529
C7    C     C_R   0.708033 0.179122 0.512049 -0.253767
C8    C     C_R   0.291143 0.820758 0.508689 -0.254167
C9    C     C_R   0.638941 0.079086 0.532410 0.089821
C10   C     C_R   0.359934 0.922091 0.508091 0.087413
C11   C     C_R   0.677960 0.002550 0.566530 0.166855
C12   C     C_R   0.320956 0.999247 0.480646 0.168079
C13   C     C_R   0.532518 0.052979 0.518167 0.054102
C14   C     C_R   0.466246 0.948764 0.530935 0.057739
C15   C     C_R   0.508513 0.874948 0.566410 -0.223668
C16   C     C_R   0.490214 0.127610 0.493327 -0.235959
C17   C     C_R   0.612260 0.901726 0.584166 -0.231386
C18   C     C_R   0.386479 0.100882 0.475542 -0.225817
C19   C     C_R   0.702871 0.644638 0.337477 -0.338762
C20   C     C_R   0.294257 0.347205 0.655767 -0.327858
C21   C     C_R   0.791703 0.629528 0.370598 0.772208
C22   C     C_R   0.208041 0.368345 0.627649 0.774043
C23   C     C_R   0.999665 0.500153 0.659994 0.830359
C24   C     C_R   0.000745 0.500739 0.339904 0.825148
C25   C     C_R   0.716190 0.512307 0.489833 -0.042792
C26   C     C_R   0.282050 0.486404 0.508208 -0.017766
C27   C     C_R   0.627026 0.533197 0.464523 -0.055013
C28   C     C_R   0.369747 0.462837 0.529274 -0.041502
C29   C     C_R   0.618354 0.592451 0.381859 -0.087951
C30   C     C_R   0.376840 0.396352 0.608712 -0.096510
C31   C     C_R   0.544761 0.492366 0.514722 -0.137266
C32   C     C_R   0.451206 0.504422 0.477136 -0.118946
C33   C     C_R   0.441722 0.554333 0.388649 0.363104
C34   C     C_R   0.553940 0.443290 0.602754 0.338343
C35   C     C_R   0.524298 0.593353 0.341086 0.371650
C36   C     C_R   0.467575 0.383629 0.643238 0.378123
C37   C     C_3   0.954723 0.408303 0.038605 -0.285619
C38   C     C_3   0.045827 0.601949 0.959163 -0.321503
C39   C     C_3   0.906208 0.465830 0.961253 0.548890
C40   C     C_3   0.094844 0.544463 0.036772 0.567576
C41   C     C_1   0.999223 0.501439 0.749353 -0.150066
C42   C     C_1   0.002150 0.502658 0.250061 -0.157826
C43   C     C_3   0.050403 0.448038 0.993132 -0.273328
C44   C     C_3   0.950247 0.562103 0.005046 -0.309896
C45   C     C_3   0.999920 0.504699 0.916055 0.064745
C46   C     C_3   0.000835 0.505207 0.081980 0.064518
C47   C     C_1   0.999037 0.502903 0.824577 -0.000957
C48   C     C_1   0.002156 0.504345 0.174127 0.007412
C49   C     C_R   0.812461 0.204571 0.530165 -0.056103
C50   C     C_R   0.187211 0.795596 0.484251 -0.059526
Cu1   Cu    Cu3+1 0.081740 0.475690 0.522610 0.994477
Cu2   Cu    Cu3+1 0.918260 0.524310 0.477390 0.988994
H1    H     H_    0.274720 0.545380 0.456897 0.197907
H2    H     H_    0.722356 0.453674 0.542771 0.212235
H3    H     H_    0.699709 0.694973 0.276163 0.204119
H4    H     H_    0.296704 0.294301 0.715422 0.199671
H5    H     H_    0.916501 0.329882 0.071997 0.150775
H6    H     H_    0.080836 0.680091 0.923959 0.148265
H7    H     H_    0.908027 0.607055 0.011321 0.157006
H8    H     H_    0.092165 0.402609 0.986947 0.158046
H9    H     H_    0.641260 0.842701 0.611286 0.147980
H10   H     H_    0.357413 0.160503 0.456627 0.143169
H11   H     H_    0.316795 0.759539 0.525726 0.152493
H12   H     H_    0.682384 0.238896 0.480579 0.153682
H13   H     H_    0.069624 0.854824 0.441283 0.178908
H14   H     H_    0.930243 0.146413 0.580171 0.181361
H15   H     H_    0.812834 0.969493 0.609619 0.136414
H16   H     H_    0.186331 0.032725 0.437811 0.139961
H17   H     H_    0.463751 0.795451 0.583510 0.140540
H18   H     H_    0.534971 0.207915 0.489444 0.142828
N1    N     N_R   0.795440 0.560790 0.443380 -0.245611
N2    N     N_R   0.204560 0.439210 0.556620 -0.244847
O1    O     O_R   0.977900 0.338120 0.529810 -0.539739
O2    O     O_R   0.022100 0.661880 0.470190 -0.539011
O3    O     O_R   0.839850 0.379180 0.491620 -0.606259
O4    O     O_R   0.160150 0.620820 0.508380 -0.612212
O5    O     O_R   0.069010 0.479460 0.640020 -0.524315
O6    O     O_R   0.930990 0.520540 0.359980 -0.525146
O7    O     O_R   0.930960 0.520530 0.601820 -0.591349
O8    O     O_R   0.069040 0.479470 0.398180 -0.583484
O9    O     O_3   0.807935 0.424713 0.915295 -0.622360
C51   C     C_3   0.733966 0.399416 0.969841 0.030789
H19   H     H_    0.680455 0.435853 0.935322 0.164169
H20   H     H_    0.764166 0.426672 0.034598 0.129937
C52   C     C_3   0.676062 0.284250 0.984592 -0.316773
H21   H     H_    0.645701 0.256717 0.920376 0.228006
H22   H     H_    0.728325 0.247269 0.021416 0.209981
C53   C     C_3   0.588688 0.253963 0.035800 -0.915905
H23   H     H_    0.617443 0.279720 0.100833 0.256208
H24   H     H_    0.548667 0.170009 0.045826 0.258024
H25   H     H_    0.534090 0.288104 0.998998 0.265262
O10   O     O_3   0.192755 0.580222 0.085147 -0.621700
C54   C     C_3   0.265553 0.647609 0.030782 0.034027
H26   H     H_    0.335636 0.685430 0.074596 0.168316
H27   H     H_    0.243790 0.709957 0.990653 0.131445
C55   C     C_3   0.289378 0.591588 0.973062 -0.379057
H28   H     H_    0.296836 0.521374 0.012388 0.224940
H29   H     H_    0.226764 0.569699 0.918209 0.218242
C56   C     C_3   0.386931 0.658280 0.934593 -0.905201
H30   H     H_    0.380889 0.728880 0.894732 0.258246
H31   H     H_    0.400765 0.616310 0.891954 0.259411
H32   H     H_    0.452072 0.678469 0.987732 0.258594
F1    F     F_    0.128917 0.320497 0.673582 -0.665069
F2    F     F_    0.872389 0.679012 0.326638 -0.664235
O11   O     O_3   0.347672 0.551312 0.345185 -0.628118
C57   C     C_3   0.346528 0.648426 0.305185 0.102966
H33   H     H_    0.266141 0.639428 0.293329 0.176180
H34   H     H_    0.369853 0.670256 0.239262 0.193944
C58   C     C_3   0.407110 0.735243 0.360349 -0.431883
H35   H     H_    0.387212 0.711170 0.427659 0.205894
H36   H     H_    0.489488 0.755579 0.364795 0.227903
C59   C     C_3   0.385745 0.830176 0.318972 -0.856766
H37   H     H_    0.403373 0.854650 0.250765 0.252093
H38   H     H_    0.433768 0.892877 0.357181 0.266494
H39   H     H_    0.305111 0.814932 0.318616 0.258431
O12   O     O_3   0.647242 0.453476 0.651531 -0.633233
C60   C     C_3   0.676887 0.526783 0.707621 0.111864
H40   H     H_    0.724406 0.504774 0.766638 0.211759
H41   H     H_    0.612199 0.529399 0.731401 0.136923
C61   C     C_3   0.740358 0.632331 0.663154 -0.379454
H42   H     H_    0.804831 0.628771 0.640389 0.245219
H43   H     H_    0.693249 0.657585 0.605495 0.216127
C62   C     C_3   0.781413 0.710146 0.725845 -0.930290
H44   H     H_    0.718179 0.716161 0.748467 0.253792
H45   H     H_    0.826731 0.785715 0.691694 0.255629
H46   H     H_    0.830662 0.687877 0.783415 0.267879
O13   O     O_3   0.512152 0.629054 0.252225 -0.634312
C63   C     C_3   0.466744 0.546304 0.204224 0.079689
H47   H     H_    0.413537 0.565006 0.148782 0.179703
H48   H     H_    0.420887 0.473035 0.242115 0.151436
C64   C     C_3   0.547015 0.532162 0.167363 -0.370703
H49   H     H_    0.594216 0.605929 0.131839 0.233350
H50   H     H_    0.596586 0.505986 0.221953 0.222741
C65   C     C_3   0.499151 0.453869 0.104820 -0.921169
H51   H     H_    0.451924 0.379207 0.138995 0.261164
H52   H     H_    0.559557 0.444607 0.080589 0.257347
H53   H     H_    0.451657 0.479361 0.047743 0.263267
O14   O     O_3   0.476734 0.327385 0.725557 -0.615165
C66   C     C_3   0.493131 0.240761 0.719402 0.099100
H54   H     H_    0.534238 0.219616 0.783322 0.169789
H55   H     H_    0.541756 0.254782 0.669102 0.149578
C67   C     C_3   0.392247 0.151345 0.702156 -0.393458
H56   H     H_    0.341259 0.142769 0.748255 0.233076
H57   H     H_    0.355597 0.166622 0.634214 0.214885
C68   C     C_3   0.407271 0.052092 0.714248 -0.881394
H58   H     H_    0.463358 0.060171 0.673616 0.267969
H59   H     H_    0.334350 0.990557 0.694388 0.260936
H60   H     H_    0.434422 0.030449 0.784007 0.249361

loop_
_geom_bond_atom_site_label_1
_geom_bond_atom_site_label_2
_ccdc_geom_bond_type
C26   H1    S    
C54   H26   S    
C27   C29   A    
C26   N2    A    
C20   H4    S    
Cu2   O3    S    
C63   H47   S    
C65   H53   S    
C59   H38   S    
O9    C51   S    
C62   H44   S    
C20   C30   A    
C52   H21   S    
C40   C46   S    
C21   N1    A    
C19   C21   A    
Cu2   O2    S    
C60   H41   S    
C66   C67   S    
C62   H45   S    
C57   H33   S    
C44   H7    S    
C34   O12   S    
C55   C56   S    
C24   C42   S    
O12   C60   S    
C15   C17   A    
C1    C49   S    
C9    C13   A    
Cu1   O8    S    
C38   C45   S    
C2    C50   S    
C17   H9    S    
C38   H6    S    
C21   F2    S    
C24   O8    A    
C6    H13   S    
C56   H30   S    
C44   C46   S    
C55   H29   S    
C25   N1    A    
C4    C12   A    
Cu2   O7    S    
C2    O2    A    
C61   C62   S    
C39   C45   S    
C64   C65   S    
C45   C47   S    
C54   H27   S    
C13   C14   A    
C67   C68   S    
C5    C49   A    
Cu2   O6    S    
C22   N2    A    
C59   H37   S    
C68   H59   S    
C61   H43   S    
C68   H58   S    
C52   H22   S    
C15   H17   S    
C46   C48   S    
C27   C31   A    
Cu1   Cu2   S    
C1    O3    A    
C28   C32   A    
C16   H18   S    
C25   H2    S    
C39   O9    S    
C4    C6    A    
C10   C14   A    
C58   C59   S    
C4    H16   S    
C18   H10   S    
C62   H46   S    
C65   H52   S    
C3    C5    A    
C23   O5    A    
C22   F1    S    
C37   C43   S    
Cu1   O5    S    
C38   C44   S    
C43   C45   S    
C31   C32   A    
C53   H25   S    
C55   H28   S    
C40   C43   S    
C41   C47   T    
C31   C34   A    
C33   O11   S    
C16   C18   A    
C42   C48   T    
C6    C50   A    
C35   O13   S    
C9    C11   A    
C7    C49   A    
C39   C44   S    
C10   C12   A    
C43   H8    S    
C24   O6    A    
C56   H31   S    
C53   H24   S    
C54   C55   S    
C51   H20   S    
C67   H57   S    
C60   C61   S    
Cu1   N2    S    
O13   C63   S    
C19   C29   A    
C63   C64   S    
C8    C50   A    
C68   H60   S    
C2    O4    A    
C61   H42   S    
C52   C53   S    
C19   H3    S    
C7    C9    A    
C11   C17   A    
C14   C15   A    
C3    H15   S    
Cu1   O1    S    
C20   C22   A    
C5    H14   S    
C64   H50   S    
C63   H48   S    
C66   H54   S    
C65   H51   S    
C25   C27   A    
C51   C52   S    
O11   C57   S    
C29   C35   A    
C26   C28   A    
C23   C41   S    
C30   C36   A    
C1    O1    A    
C32   C33   A    
C58   H36   S    
C37   C39   S    
Cu2   N1    S    
C58   H35   S    
C38   C40   S    
C66   H55   S    
C57   H34   S    
C28   C30   A    
O10   C54   S    
C33   C35   A    
C34   C36   A    
C7    H12   S    
C40   O10   S    
C3    C11   A    
O14   C66   S    
C8    H11   S    
C56   H32   S    
C53   H23   S    
C8    C10   A    
C51   H19   S    
C13   C16   A    
C12   C18   A    
Cu1   O4    S    
C67   H56   S    
C23   O7    A    
C37   C46   S    
C60   H40   S    
C36   O14   S    
C59   H39   S    
C37   H5    S    
C64   H49   S    
C57   C58   S    
