data_mof_unit_67186.cif
_audit_creation_date              2013-03-05T15:59:00-0500
_audit_creation_method            fapswitch 2.2
_symmetry_space_group_name_H-M    P1
_symmetry_Int_Tables_number       1
_space_group_crystal_system       triclinic
_cell_length_a                    8.284321
_cell_length_b                    13.022952
_cell_length_c                    15.066256
_cell_angle_alpha                 95.1514
_cell_angle_beta                  98.892251
_cell_angle_gamma                 98.248085
_cell_volume                      1578.84087269

loop_
_atom_site_label
_atom_site_type_symbol
_atom_site_description
_atom_site_fract_x
_atom_site_fract_y
_atom_site_fract_z
_atom_type_partial_charge
P1    P     P_3+3 0.998730 0.403530 0.291970 0.489100
O1    O     O_2   0.827880 0.435260 0.277750 -0.391159
O2    O     O_3   0.100280 0.438960 0.391170 -0.409162
O3    O     O_3   0.625580 0.634130 0.333250 -0.352678
O4    O     O_2   0.686963 0.545307 0.180256 -0.392403
O5    O     O_3   0.949835 0.267647 0.274855 -0.491712
O6    O     O_3   0.647891 0.735598 0.178693 -0.505665
H1    H     H_    0.533476 0.830886 0.257461 0.082582
C1    C     C_3   0.595000 0.898851 0.139177 0.152938
H2    H     H_    0.726702 0.924530 0.165958 0.216965
P2    P     P_3+3 0.687380 0.751030 0.571310 0.546528
P3    P     P_3+3 0.098972 0.822044 0.373338 0.520444
O7    O     O_2   0.857130 0.766340 0.543890 -0.289336
O8    O     O_3   0.056550 0.691050 0.379010 -0.375599
O9    O     O_2   0.996847 0.871399 0.438382 -0.322846
O10   O     O_3   0.734559 0.791701 0.686392 -0.544049
O11   O     O_3   0.998912 0.843808 0.266323 -0.455200
C2    C     C_3   0.086660 0.811598 0.198833 0.285124
H3    H     H_    0.089408 0.726353 0.197009 0.048435
H4    H     H_    0.215125 0.854118 0.211881 0.042584
C3    C     C_3   0.999003 0.833412 0.106358 0.092345
H5    H     H_    0.869212 0.793939 0.093953 0.154734
C4    C     C_3   0.263693 0.769247 0.641633 0.508787
H6    H     H_    0.377649 0.744878 0.622783 0.028879
H7    H     H_    0.157341 0.741787 0.586234 0.111291
C5    C     C_3   0.284786 0.887178 0.656341 -0.833893
H8    H     H_    0.381592 0.914280 0.716333 0.273983
H9    H     H_    0.318083 0.923531 0.596136 0.208738
H10   H     H_    0.166857 0.910432 0.670973 0.316626
Ba1   Ba    Ba6+2 0.843750 0.550210 0.455600 1.648352
C6    C     C_3   0.913113 0.230813 0.355011 0.297371
H11   H     H_    0.829654 0.277234 0.385675 0.058218
H12   H     H_    0.029064 0.236023 0.404265 0.103936
C7    C     C_3   0.829551 0.117107 0.334550 0.384999
H13   H     H_    0.694117 0.110964 0.324857 0.066120
H14   H     H_    0.869656 0.071785 0.390471 0.022478
C8    C     C_3   0.763499 0.709952 0.736674 0.940446
H15   H     H_    0.690574 0.632838 0.706774 -0.040453
C9    C     C_3   0.716713 0.738569 0.826925 0.430293
H16   H     H_    0.810235 0.803007 0.865775 0.099904
H17   H     H_    0.707970 0.670257 0.866005 0.048971
P4    P     P_3+3 0.190990 0.596560 0.708040 0.640804
O12   O     O_2   0.361830 0.564780 0.722310 -0.325775
O13   O     O_3   0.089430 0.561130 0.608830 -0.414963
O14   O     O_3   0.564130 0.365960 0.666760 -0.318149
O15   O     O_3   0.236858 0.732341 0.723502 -0.404298
P5    P     P_3+3 0.079961 0.170438 0.615032 0.575826
O16   O     O_3   0.601940 0.368240 0.453770 -0.331626
O17   O     O_3   0.133170 0.309040 0.621000 -0.295023
O18   O     O_2   0.161590 0.126394 0.538182 -0.353702
O19   O     O_3   0.190972 0.121895 0.706737 -0.480782
Ba2   Ba    Ba6+2 0.346090 0.449880 0.544410 1.703791
P6    P     P_3+3 0.574974 0.618192 0.216193 0.463552
C10   C     C_3   0.534667 0.805161 0.185103 0.125568
H18   H     H_    0.408396 0.769997 0.150109 0.077081
O20   O     O_3   0.587780 0.631850 0.546230 -0.444773
C11   C     C_3   0.423516 0.308618 0.271191 0.231530
H19   H     H_    0.305672 0.321898 0.292800 0.094129
H20   H     H_    0.518686 0.378933 0.293797 0.050985
C12   C     C_3   0.398672 0.292008 0.168202 0.481050
H21   H     H_    0.386414 0.365838 0.139448 -0.023866
H22   H     H_    0.507296 0.263664 0.145635 0.083713
P7    P     P_3+3 0.506321 0.238324 0.424548 0.521934
O21   O     O_2   0.332590 0.233690 0.456160 -0.344539
O22   O     O_3   0.474888 0.219898 0.305973 -0.558380
C13   C     C_3   0.106148 0.125163 0.780511 0.605266
H23   H     H_    0.971212 0.100340 0.758972 0.010251
C14   C     C_3   0.168584 0.052061 0.847724 -0.746231
H24   H     H_    0.303640 0.076449 0.872932 0.268073
H25   H     H_    0.103393 0.056644 0.906542 0.249993
H26   H     H_    0.145117 0.968678 0.816857 0.261711
P8    P     P_3+3 0.609503 0.380959 0.784219 0.509056
C15   C     C_3   0.690300 0.199526 0.795376 0.331682
H27   H     H_    0.795307 0.213702 0.853811 0.089855
O23   O     O_2   0.479731 0.439492 0.820336 -0.356925
O24   O     O_3   0.564920 0.255747 0.815525 -0.472154
H28   H     H_    0.737234 0.219479 0.731777 0.078990
H29   H     H_    0.712551 0.035425 0.767507 0.229639
C16   C     C_3   0.617563 0.084264 0.779882 -0.862713
H30   H     H_    0.519533 0.072688 0.718708 0.264183
H31   H     H_    0.565270 0.059931 0.840114 0.286413
C17   C     C_R   0.822801 0.445057 0.830993 0.085504
C18   C     C_R   0.890398 0.449784 0.923692 0.045594
C19   C     C_R   0.031120 0.457240 0.110323 0.019217
C20   C     C_R   0.869943 0.405410 0.076444 -0.042135
C21   C     C_R   0.799417 0.404598 0.986003 -0.196930
C22   C     C_R   0.101414 0.466841 0.204156 0.255790
H32   H     H_    0.794603 0.365878 0.119270 0.156580
H33   H     H_    0.672664 0.366573 0.965826 0.182067
C23   C     C_R   0.260029 0.523625 0.233288 -0.546326
C24   C     C_R   0.083740 0.534811 0.797751 0.399193
C25   C     C_R   0.153523 0.540688 0.891779 -0.249438
C26   C     C_R   0.056298 0.497401 0.954319 -0.002024
C27   C     C_R   0.317370 0.586958 0.926747 0.883122
C28   C     C_R   0.386059 0.587299 0.016435 -0.313963
C29   C     C_R   0.291242 0.550005 0.079017 -0.096076
C30   C     C_R   0.125689 0.502049 0.048060 0.053741
C31   C     C_R   0.357055 0.561793 0.171977 0.177703
C32   C     C_R   0.920322 0.484645 0.769877 -0.430211
H34   H     H_    0.514166 0.622360 0.036145 0.212754
H35   H     H_    0.313412 0.532226 0.304320 0.171328
H36   H     H_    0.866093 0.478739 0.699187 0.193863
C33   C     C_R   0.753838 0.178710 0.540116 0.320905
C34   C     C_R   0.424724 0.810196 0.456332 -0.536315
C35   C     C_R   0.383837 0.981848 0.416312 0.239111
C36   C     C_R   0.323535 0.875343 0.414936 0.071350
C37   C     C_R   0.580776 0.849075 0.508278 0.358414
C38   C     C_R   0.640903 0.960150 0.517383 -0.257226
C39   C     C_R   0.541682 0.028015 0.470347 -0.267915
C40   C     C_R   0.604384 0.138690 0.482782 0.060031
C41   C     C_R   0.856587 0.113790 0.577035 -0.157121
C42   C     C_R   0.798565 0.006210 0.569750 0.638769
H37   H     H_    0.375993 0.728036 0.453082 0.163825
F1    F     F_    0.867206 0.072103 0.256119 -0.604479
F2    F     F_    0.929394 0.706361 0.749574 -0.750293
F3    F     F_    0.567554 0.775074 0.810876 -0.606619
I1    I     I_    0.469945 0.025591 0.154847 -0.215523
F4    F     F_    0.256762 0.221371 0.134487 -0.600338
I2    I     I_    0.563078 0.865316 0.997910 -0.212071
I3    I     I_    0.105377 0.774256 0.998948 -0.402653
I4    I     I_    0.160992 0.278209 0.851597 -0.336524
F5    F     F_    0.412836 0.640203 0.877691 -0.631865
I5    I     I_    0.215803 0.053292 0.327977 -0.092228
F6    F     F_    0.899494 0.949387 0.615209 -0.664675
F7    F     F_    0.807794 0.283193 0.554960 -0.670640
I6    I     I_    0.008526 0.994709 0.086653 -0.083462

loop_
_geom_bond_atom_site_label_1
_geom_bond_atom_site_label_2
_geom_bond_distance
_ccdc_geom_bond_type
P1    C22   1.869863 S    
C13   C14   1.533539 S    
P7    O22   1.754473 S    
O3    P6    1.734902 S    
C2    C3    1.538403 S    
C1    I1    2.085551 S    
C17   C32   1.400741 A    
C41   C42   1.403127 A    
C19   C22   1.430451 A    
P8    O24   1.742697 S    
C34   C36   1.396039 A    
P5    O17   1.786264 S    
C20   C21   1.395595 A    
C5    H8    1.105489 S    
C33   C40   1.397903 A    
C19   C30   1.424301 A    
Ba1   O16   2.870315 S    
C2    H3    1.111600 S    
C3    I3    2.097771 S    
P4    O15   1.741066 S    
O12   Ba2   2.925017 S    
C11   H20   1.109032 S    
C18   C26   1.412217 A    
C38   C39   1.449058 A    
C35   I5    2.143803 S    
C12   H22   1.108601 S    
C7    H13   1.099120 S    
C15   H27   1.119776 S    
C4    C5    1.512701 S    
C25   C26   1.433207 A    
Ba1   Ba2   4.579148 S    
C28   C29   1.394141 A    
P2    Ba1   3.522554 S    
C14   H24   1.114428 S    
C29   C31   1.408428 A    
P3    O11   1.761616 S    
C4    H6    1.106920 S    
C6    H12   1.108990 S    
C12   F4    1.381140 S    
C1    H2    1.095464 S    
C2    H4    1.106608 S    
O10   C8    1.388047 S    
O13   Ba2   2.971754 S    
C13   H23   1.106683 S    
C4    O15   1.400856 S    
C3    H5    1.103326 S    
O14   P8    1.738495 S    
Ba1   O13   2.810278 S    
P4    O13   1.590896 S    
O8    Ba1   2.807975 S    
P8    O23   1.540927 D    
P5    O18   1.536550 D    
C34   H37   1.082013 S    
C13   I4    2.128946 S    
P1    O5    1.744168 S    
O7    Ba1   2.982706 S    
C19   C20   1.402799 A    
C9    H17   1.109997 S    
Ba2   O21   2.983028 S    
H1    C10   1.113320 S    
C9    H16   1.110021 S    
C16   H31   1.115980 S    
C28   H34   1.078041 S    
C11   C12   1.524800 S    
P5    O19   1.756471 S    
O14   Ba2   2.784587 S    
Ba1   O20   2.961902 S    
C38   C42   1.435232 A    
C12   H21   1.100745 S    
P1    O2    1.590742 S    
O19   C13   1.404486 S    
O2    Ba1   2.970913 S    
C23   H35   1.082298 S    
C8    H15   1.112198 S    
P2    O10   1.733702 S    
C6    H11   1.107002 S    
P3    O9    1.545468 D    
C37   C38   1.447711 A    
O17   Ba2   2.808568 S    
C29   C30   1.411646 A    
C32   H36   1.081432 S    
C25   C27   1.403683 A    
O11   C2    1.406323 S    
C15   C16   1.518154 S    
C6    C7    1.524772 S    
C27   F5    1.329627 S    
P3    O8    1.704246 S    
C17   C18   1.414507 A    
P2    C37   1.895811 S    
C1    I2    2.101552 S    
C15   O24   1.408145 S    
P4    O12   1.520046 D    
O6    P6    1.737099 S    
C26   C30   1.432641 A    
C24   C25   1.435834 A    
C20   H32   1.078369 S    
O4    P6    1.539640 D    
C35   C39   1.446237 A    
C10   H18   1.109340 S    
H29   C16   1.107336 S    
C11   O22   1.404114 S    
P7    O21   1.579253 D    
O16   P7    1.748621 S    
C21   H33   1.079511 S    
O2    Ba2   2.811020 S    
C42   F6    1.344362 S    
C8    F2    1.366103 S    
C33   C41   1.375958 A    
P6    C31   1.844527 S    
C7    F1    1.370822 S    
C35   C36   1.402361 A    
C5    H9    1.113541 S    
O1    Ba1   2.924457 S    
P7    C40   1.843867 S    
C8    C9    1.500461 S    
C39   C40   1.445310 A    
P3    C36   1.877874 S    
P2    O7    1.517215 D    
C11   H19   1.107058 S    
C14   H26   1.119834 S    
P5    C41   1.871179 S    
P1    O1    1.519835 D    
P1    Ba1   3.494495 S    
O5    C6    1.398860 S    
C7    H14   1.107984 S    
C4    H7    1.108806 S    
C27   C28   1.382115 A    
C33   F7    1.356909 S    
P8    C17   1.844447 S    
C16   H30   1.113656 S    
Ba2   O20   2.869767 S    
O16   Ba2   2.961150 S    
C18   C21   1.409393 A    
C5    H10   1.110966 S    
C14   H25   1.108253 S    
C9    F3    1.381377 S    
C22   C23   1.396692 A    
C15   H28   1.125941 S    
C1    C10   1.516846 S    
O6    C10   1.402119 S    
C24   C32   1.398991 A    
C3    I6    2.139710 S    
C23   C31   1.394201 A    
C34   C37   1.402998 A    
O3    Ba1   2.785236 S    
P2    O20   1.631990 S    
P4    C24   1.903779 S    
P4    Ba2   3.495047 S    
