data_mof_unit_50575.cif
_audit_creation_date              2012-12-11T15:29:37-0500
_audit_creation_method            fapswitch 2.2
_symmetry_space_group_name_H-M    P1
_symmetry_Int_Tables_number       1
_space_group_crystal_system       triclinic
_cell_length_a                    21.740393
_cell_length_b                    7.31511
_cell_length_c                    14.692478
_cell_angle_alpha                 89.999984
_cell_angle_beta                  73.95083
_cell_angle_gamma                 90.000024
_cell_volume                      2245.5249977

loop_
_atom_site_label
_atom_site_type_symbol
_atom_type_description
_atom_site_fract_x
_atom_site_fract_y
_atom_site_fract_z
_atom_type_partial_charge
O1    O     O_R   0.464160 0.506670 0.130070 -0.544978
O2    O     O_R   0.535840 0.006670 0.869930 -0.544979
O3    O     O_R   0.589710 0.179080 0.006710 -0.502151
O4    O     O_R   0.410290 0.679080 0.993290 -0.502150
C1    C     C_R   0.615739 0.343668 0.002437 0.768626
C2    C     C_R   0.384261 0.843668 0.997562 0.768625
O5    O     O_R   0.467940 0.177220 0.138010 -0.533051
O6    O     O_R   0.532060 0.677220 0.861990 -0.533051
O7    O     O_R   0.413200 0.002810 0.002170 -0.558161
O8    O     O_R   0.586800 0.502810 0.997830 -0.558161
C3    C     C_R   0.456082 0.344869 0.174715 0.754147
C4    C     C_R   0.543918 0.844869 0.825285 0.754146
O9    O     O_3   0.482180 0.337850 0.955280 -0.380598
O10   O     O_3   0.517820 0.837850 0.044720 -0.380598
V1    V     V_3+5 0.503310 0.064600 0.008300 1.462722
V2    V     V_3+5 0.496690 0.564600 0.991700 1.462722
C5    C     C_R   0.573052 0.845363 0.722032 -0.174694
C6    C     C_R   0.426948 0.345363 0.277968 -0.174690
C7    C     C_R   0.928541 0.869915 0.278837 -0.098297
C8    C     C_R   0.071459 0.369915 0.721163 -0.098298
C9    C     C_R   0.567321 0.755017 0.566067 -0.276578
C10   C     C_R   0.432679 0.255018 0.433933 -0.276582
C11   C     C_R   0.536364 0.789390 0.661952 0.443608
C12   C     C_R   0.463636 0.289390 0.338048 0.443608
C13   C     C_R   0.639501 0.876125 0.685580 0.050133
C14   C     C_R   0.360500 0.376125 0.314420 0.050133
C15   C     C_R   0.671821 0.821731 0.591121 0.102183
C16   C     C_R   0.328180 0.321732 0.408879 0.102182
C17   C     C_R   0.633854 0.771424 0.530741 0.036449
C18   C     C_R   0.366146 0.271425 0.469259 0.036454
C19   C     C_R   0.740137 0.819732 0.553327 0.022669
C20   C     C_R   0.259863 0.319733 0.446673 0.022669
C21   C     C_R   0.768436 0.797996 0.454161 0.047098
C22   C     C_R   0.231564 0.297997 0.545839 0.047097
C23   C     C_R   0.727909 0.758845 0.396296 -0.168538
C24   C     C_R   0.272091 0.258848 0.603704 -0.168539
C25   C     C_R   0.662327 0.740023 0.434612 -0.164119
C26   C     C_R   0.337673 0.240026 0.565389 -0.164113
C27   C     C_R   0.781332 0.825405 0.611932 -0.107795
C28   C     C_R   0.218667 0.325406 0.388068 -0.107795
C29   C     C_R   0.846369 0.860687 0.576138 0.160996
C30   C     C_R   0.153631 0.360687 0.423862 0.160996
C31   C     C_R   0.873250 0.881922 0.477012 0.040309
C32   C     C_R   0.126750 0.381923 0.522988 0.040309
C33   C     C_R   0.835965 0.823631 0.416028 0.021591
C34   C     C_R   0.164035 0.323631 0.583972 0.021592
C35   C     C_R   0.934900 0.959296 0.435195 0.218731
C36   C     C_R   0.065100 0.459297 0.564805 0.218731
C37   C     C_R   0.959484 0.960819 0.336979 -0.162960
C38   C     C_R   0.040517 0.460820 0.663021 -0.162960
C39   C     C_R   0.867241 0.800223 0.318460 -0.218378
C40   C     C_R   0.132759 0.300223 0.681540 -0.218378
H1    H     H_    0.633318 0.706443 0.387637 0.118217
H2    H     H_    0.366682 0.206448 0.612363 0.118215
H3    H     H_    0.844046 0.736973 0.270624 0.099677
H4    H     H_    0.155953 0.236972 0.729376 0.099676
H5    H     H_    0.003340 0.034703 0.306151 0.128947
H6    H     H_    0.996660 0.534704 0.693849 0.128947
H7    H     H_    0.539786 0.709827 0.519115 0.126835
H8    H     H_    0.460214 0.209828 0.480886 0.126832
H9    H     H_    0.745153 0.742708 0.320644 0.116289
H10   H     H_    0.254847 0.242712 0.679356 0.116289
H11   H     H_    0.764189 0.796793 0.686718 0.196680
H12   H     H_    0.235811 0.296792 0.313282 0.196680
C41   C     C_3   0.220513 0.657769 0.956687 0.485775
C42   C     C_3   0.779487 0.157769 0.043312 0.485775
C43   C     C_3   0.291596 0.650519 0.970183 0.370275
C44   C     C_3   0.708404 0.150519 0.029817 0.370275
H13   H     H_    0.274511 0.789214 0.146160 0.172053
H14   H     H_    0.725489 0.289214 0.853840 0.172053
C45   C     C_3   0.197689 0.909638 0.095774 0.580694
C46   C     C_3   0.802311 0.409639 0.904226 0.580694
C47   C     C_3   0.233775 0.988413 0.914747 -0.033985
C48   C     C_3   0.766225 0.488412 0.085253 -0.033986
C49   C     C_3   0.189745 0.856925 0.992327 -0.110687
C50   C     C_3   0.810254 0.356925 0.007673 -0.110687
H15   H     H_    0.237848 0.937692 0.842217 0.162636
H16   H     H_    0.762151 0.437690 0.157783 0.162636
C51   C     C_3   0.313765 0.846905 0.996880 -0.100149
C52   C     C_3   0.686235 0.346905 0.003120 -0.100150
C53   C     C_3   0.270067 0.899837 0.096807 -0.052140
C54   C     C_3   0.729933 0.399838 0.903193 -0.052141
C55   C     C_3   0.303594 0.990146 0.923695 -0.418466
C56   C     C_3   0.696406 0.490146 0.076305 -0.418467
H17   H     H_    0.337736 0.966244 0.853157 0.138168
H18   H     H_    0.662263 0.466243 0.146843 0.138172
H19   H     H_    0.316566 0.128095 0.942168 0.178206
H20   H     H_    0.683434 0.628095 0.057831 0.178206
O11   O     O_R   0.913210 0.208550 0.002110 -0.550955
O12   O     O_R   0.086790 0.708550 0.997890 -0.550955
O13   O     O_R   0.032060 0.539960 0.861980 -0.543110
O14   O     O_R   0.967940 0.039960 0.138020 -0.543111
C57   C     C_R   0.043976 0.373045 0.824853 0.650235
C58   C     C_R   0.956024 0.873045 0.175147 0.650234
O15   O     O_R   0.910290 0.538020 0.993280 -0.515651
O16   O     O_R   0.089710 0.038020 0.006720 -0.515651
O17   O     O_R   0.964160 0.712340 0.130090 -0.536205
O18   O     O_R   0.035840 0.212340 0.869910 -0.536206
C59   C     C_R   0.882970 0.369514 0.003048 0.706294
C60   C     C_R   0.117030 0.869514 0.996952 0.706293
O19   O     O_3   0.017820 0.379210 0.044690 -0.379686
O20   O     O_3   0.982180 0.879210 0.955310 -0.379686
V3    V     V_3+5 0.996690 0.652500 0.991710 1.393309
V4    V     V_3+5 0.003310 0.152500 0.008290 1.393309
N1    N     N_3   0.970727 0.058043 0.487571 -0.712178
H21   H     H_    0.989561 0.968626 0.528216 0.244689
H22   H     H_    0.941789 0.158254 0.528995 0.234231
N2    N     N_3   0.029273 0.558044 0.512428 -0.712178
H23   H     H_    0.010440 0.468626 0.471784 0.244689
H24   H     H_    0.058211 0.658255 0.471005 0.234231
N3    N     N_3   0.182879 0.502635 0.008937 -0.663666
H25   H     H_    0.149258 0.449577 0.978052 0.282842
H26   H     H_    0.158013 0.531591 0.078322 0.262923
N4    N     N_3   0.817121 0.002635 0.991062 -0.663667
H27   H     H_    0.850741 0.949576 0.021947 0.282841
H28   H     H_    0.841988 0.031593 0.921677 0.262923
O21   O     O_3   0.231104 0.628551 0.856443 -0.583924
C61   C     C_3   0.178665 0.631909 0.818001 -0.228875
H29   H     H_    0.197826 0.618426 0.740102 0.159648
H30   H     H_    0.152349 0.762758 0.828872 0.118355
H31   H     H_    0.148189 0.512111 0.840516 0.149080
O22   O     O_3   0.768896 0.128548 0.143557 -0.583923
C62   C     C_3   0.821336 0.131913 0.181999 -0.228881
H32   H     H_    0.802175 0.118420 0.259896 0.159649
H33   H     H_    0.847648 0.262767 0.171131 0.118351
H34   H     H_    0.851815 0.012124 0.159480 0.149087
N5    N     N_3   0.339082 0.587860 0.882127 -0.583574
H35   H     H_    0.327802 0.457160 0.862896 0.239330
H36   H     H_    0.341883 0.674472 0.824803 0.255042
N6    N     N_3   0.660918 0.087860 0.117874 -0.583575
H37   H     H_    0.672198 0.957160 0.137104 0.239330
H38   H     H_    0.658117 0.174472 0.175197 0.255041
N7    N     N_3   0.295034 0.517573 0.044285 -0.667969
H39   H     H_    0.256700 0.527199 0.105097 0.242223
H40   H     H_    0.291367 0.387681 0.017982 0.239156
N8    N     N_3   0.704966 0.017573 0.955715 -0.667968
H41   H     H_    0.743300 0.027199 0.894902 0.242223
H42   H     H_    0.708632 0.887681 0.982018 0.239155
O23   O     O_3   0.166139 0.776730 0.164326 -0.586492
C63   C     C_3   0.103187 0.818701 0.217352 -0.248062
H43   H     H_    0.077381 0.905892 0.178856 0.151442
H44   H     H_    0.104364 0.884955 0.284826 0.162685
H45   H     H_    0.075728 0.689653 0.234644 0.151241
O24   O     O_3   0.833860 0.276732 0.835674 -0.586492
C64   C     C_3   0.896813 0.318703 0.782647 -0.248062
H46   H     H_    0.922619 0.405894 0.821144 0.151442
H47   H     H_    0.895635 0.384960 0.715174 0.162686
H48   H     H_    0.924272 0.189657 0.765355 0.151241
N9    N     N_3   0.208956 0.173252 0.914689 -0.640260
H49   H     H_    0.171905 0.170422 0.882115 0.222289
H50   H     H_    0.243979 0.252925 0.868646 0.247516
N10   N     N_3   0.791043 0.673252 0.085311 -0.640261
H51   H     H_    0.828095 0.670421 0.117886 0.222290
H52   H     H_    0.756021 0.752924 0.131355 0.247517
N11   N     N_3   0.172184 0.095711 0.123280 -0.623271
H53   H     H_    0.202246 0.193808 0.082810 0.283086
H54   H     H_    0.171553 0.122021 0.193522 0.265659
N12   N     N_3   0.827816 0.595712 0.876720 -0.623271
H55   H     H_    0.797753 0.693809 0.917191 0.283086
H56   H     H_    0.828446 0.622023 0.806478 0.265659
N13   N     N_3   0.291015 0.062476 0.139613 -0.700923
H57   H     H_    0.323828 0.023985 0.176542 0.229018
H58   H     H_    0.314732 0.155420 0.088921 0.244949
N14   N     N_3   0.708985 0.562476 0.860387 -0.700923
H59   H     H_    0.676172 0.523985 0.823458 0.229018
H60   H     H_    0.685268 0.655420 0.911079 0.244948
N15   N     N_3   0.883675 0.855091 0.642618 -0.687253
H61   H     H_    0.922258 0.765894 0.618330 0.251986
H62   H     H_    0.898634 0.986080 0.654244 0.244228
N16   N     N_3   0.116325 0.355092 0.357382 -0.687252
H63   H     H_    0.077742 0.265894 0.381670 0.251986
H64   H     H_    0.101366 0.486080 0.345756 0.244228
O25   O     O_3   0.471018 0.760701 0.700523 -0.553280
C65   C     C_3   0.435312 0.838800 0.643248 -0.266095
H65   H     H_    0.432255 0.742514 0.586217 0.155953
H66   H     H_    0.454832 0.973338 0.613019 0.124870
H67   H     H_    0.385755 0.863441 0.687416 0.150321
O26   O     O_3   0.528983 0.260702 0.299474 -0.553283
C66   C     C_3   0.564690 0.338761 0.356759 -0.266093
H68   H     H_    0.567748 0.242441 0.413775 0.155955
H69   H     H_    0.545171 0.473285 0.387007 0.124873
H70   H     H_    0.614246 0.363416 0.312592 0.150322
N17   N     N_3   0.672452 0.975352 0.742119 -0.674514
H71   H     H_    0.667692 0.904202 0.805267 0.240999
H72   H     H_    0.650873 0.103469 0.758256 0.244358
N18   N     N_3   0.327548 0.475352 0.257881 -0.674514
H73   H     H_    0.332308 0.404202 0.194733 0.240999
H74   H     H_    0.349127 0.603469 0.241743 0.244358

loop_
_geom_bond_atom_site_label_1
_geom_bond_atom_site_label_2
_ccdc_geom_bond_type
C44   C52   S    
C42   C44   S    
C8    C57   S    
C3    C6    S    
N11   H54   S    
C21   C33   A    
C55   H19   S    
N3    H25   S    
O1    C3    A    
C63   H45   S    
C46   C50   S    
O2    C4    A    
C2    O7    A    
N4    H27   S    
C2    C51   S    
C46   N12   S    
C62   H32   S    
N15   H62   S    
C36   N2    S    
O25   C65   S    
C50   C59   S    
O5    C3    A    
N1    H22   S    
N14   H60   S    
C5    C11   A    
C48   C50   S    
O11   C59   A    
C6    C12   A    
N14   H59   S    
C43   N7    S    
C56   H18   S    
C9    H7    S    
N9    H50   S    
C10   H8    S    
O15   C59   A    
C62   H33   S    
C15   C17   A    
N16   H63   S    
C33   C39   A    
C34   C40   A    
C37   H5    S    
N2    H23   S    
C18   C26   A    
C61   H29   S    
C41   N3    S    
C8    C38   A    
C30   N16   S    
C64   H47   S    
C65   H65   S    
C32   C34   A    
C16   C18   A    
C41   C43   S    
C6    C14   A    
C4    C5    S    
C42   O22   S    
C22   C34   A    
C42   N4    S    
C22   C24   A    
C52   C56   S    
C66   H70   S    
C25   H1    S    
C36   C38   A    
C45   N11   S    
O6    V2    S    
N12   H56   S    
C29   C31   A    
C48   N10   S    
C30   C32   A    
C24   H10   S    
O12   C60   A    
N13   H58   S    
O15   V3    S    
O26   C66   S    
C61   H30   S    
C45   C49   S    
C15   C19   A    
C38   H6    S    
C16   C20   A    
C43   C51   S    
C63   H43   S    
N8    H42   S    
O13   V3    S    
N15   H61   S    
C51   C53   S    
N8    H41   S    
C62   H34   S    
C45   O23   S    
C58   O17   A    
C35   N1    S    
C9    C17   A    
C61   H31   S    
C20   C22   A    
O4    V2    S    
N6    H38   S    
N17   H71   S    
N5    H36   S    
C43   N5    S    
O13   C57   A    
C7    C37   A    
C28   C30   A    
C26   H2    S    
C44   N8    S    
O6    C4    A    
C42   C50   S    
C19   C21   A    
N3    H26   S    
O1    V2    S    
C1    C52   S    
C44   N6    S    
O2    V1    S    
C31   C33   A    
C65   H67   S    
O17   V3    S    
C7    C58   S    
C11   O25   S    
C52   C54   S    
C55   H17   S    
N10   H52   S    
O19   V4    S    
C9    C11   A    
O11   V4    S    
C12   O26   S    
N12   H55   S    
C10   C12   A    
O4    C2    A    
C13   C15   A    
C47   C49   S    
N18   H74   S    
C24   C26   A    
C64   H46   S    
C64   H48   S    
O3    V1    S    
C23   C25   A    
N7    H40   S    
C46   O24   S    
O16   V4    S    
C47   H15   S    
C10   C18   A    
C47   N9    S    
C53   N13   S    
C56   H20   S    
C48   C56   S    
O24   C64   S    
O3    C1    A    
C41   C49   S    
N4    H28   S    
O23   C63   S    
O22   C62   S    
N5    H35   S    
C63   H44   S    
C35   C37   A    
C27   H11   S    
N1    H21   S    
O16   C60   A    
C14   C16   A    
C28   H12   S    
C5    C13   A    
N17   H72   S    
N6    H37   S    
O7    V1    S    
C1    O8    A    
C8    C40   A    
C32   C36   A    
N13   H57   S    
O21   C61   S    
C51   C55   S    
C14   N18   S    
O14   C58   A    
N7    H39   S    
N16   H64   S    
C23   H9    S    
C7    C39   A    
O18   V4    S    
C29   N15   S    
O5    V1    S    
C49   C60   S    
C21   C23   A    
N2    H24   S    
C39   H3    S    
C20   C28   A    
O20   V3    S    
H14   C54   S    
C65   H66   S    
O12   V3    S    
H13   C53   S    
O14   V4    S    
C66   H68   S    
C54   N14   S    
C13   N17   S    
N10   H51   S    
C27   C29   A    
C48   H16   S    
O9    V2    S    
C17   C25   A    
N11   H53   S    
C19   C27   A    
C41   O21   S    
O10   V1    S    
O8    V2    S    
C66   H69   S    
N18   H73   S    
N9    H49   S    
C31   C35   A    
C57   O18   A    
C47   C55   S    
C46   C54   S    
C40   H4    S    
C45   C53   S    
