data_mof_unit_26580.cif
_audit_creation_date              2012-12-11T14:52:48-0500
_audit_creation_method            fapswitch 2.2
_symmetry_space_group_name_H-M    P1
_symmetry_Int_Tables_number       1
_space_group_crystal_system       triclinic
_cell_length_a                    8.247115
_cell_length_b                    15.062073
_cell_length_c                    27.032852
_cell_angle_alpha                 96.997245
_cell_angle_beta                  92.735849
_cell_angle_gamma                 80.6552
_cell_volume                      3287.40280686

loop_
_atom_site_label
_atom_site_type_symbol
_atom_type_description
_atom_site_fract_x
_atom_site_fract_y
_atom_site_fract_z
_atom_type_partial_charge
Ba1   Ba    Ba6+2 0.860900 0.457020 0.523210 1.653418
Ba2   Ba    Ba6+2 0.328940 0.542910 0.476780 1.640618
C1    C     C_3   0.828816 0.151274 0.693015 -0.174331
C2    C     C_R   0.908393 0.584971 0.178479 0.574422
C3    C     C_2   0.753460 0.560493 0.272917 -0.087410
C4    C     C_3   0.252089 0.229300 0.652185 0.364409
C5    C     C_3   0.731029 0.590078 0.327784 -0.048016
C6    C     C_1   0.984272 0.485779 0.343268 0.035002
C7    C     C_2   0.024855 0.480112 0.295495 -0.101145
C8    C     C_2   0.901468 0.516538 0.256782 0.202774
C9    C     C_R   0.009564 0.496412 0.101081 -0.092849
C10   C     C_R   0.042107 0.417540 0.126312 -0.054720
C11   C     C_R   0.102416 0.332891 0.097891 0.043300
C12   C     C_3   0.728826 0.229777 0.668331 0.357059
C13   C     C_R   0.942812 0.579799 0.127610 -0.020478
C14   C     C_2   0.845207 0.533219 0.360811 -0.289717
C15   C     C_2   0.344998 0.468751 0.638950 -0.255539
C16   C     C_3   0.298957 0.172381 0.694971 -0.361005
C17   C     C_R   0.162841 0.409000 0.971889 -0.040607
C18   C     C_R   0.024834 0.566076 0.971598 0.019790
C19   C     C_R   0.110125 0.486069 0.945965 -0.002678
C20   C     C_R   0.267698 0.334669 0.946448 0.372444
C21   C     C_R   0.292494 0.330919 0.895503 -0.103052
C22   C     C_R   0.232562 0.404246 0.869014 -0.083534
C23   C     C_3   0.489317 0.669035 0.627912 0.299829
C24   C     C_R   0.145601 0.483599 0.894328 -0.101197
C25   C     C_R   0.094441 0.559895 0.868006 -0.024856
C26   C     C_R   0.148157 0.556346 0.818058 0.577650
C27   C     C_R   0.263734 0.400028 0.817891 0.597276
C28   C     C_3   0.226013 0.265324 0.414177 0.314596
C29   C     C_2   0.424880 0.430246 0.725463 -0.099741
C30   C     C_3   0.454439 0.406436 0.670221 -0.086077
C31   C     C_1   0.202997 0.512531 0.655941 0.035106
C32   C     C_2   0.156413 0.512995 0.702541 -0.088671
C33   C     C_2   0.274868 0.472740 0.741041 0.211633
C34   C     C_3   0.483237 0.689748 0.684340 -0.358528
C35   C     C_R   0.115242 0.410595 0.022548 0.001599
C36   C     C_R   0.042973 0.492761 0.049181 0.043265
C37   C     C_R   0.002023 0.571511 0.024071 0.028435
C38   C     C_R   0.131391 0.331644 0.046705 -0.079373
C39   C     C_R   0.911747 0.657772 0.102956 -0.062344
C40   C     C_3   0.251885 0.163414 0.399176 -0.385924
C41   C     C_R   0.961292 0.637961 0.943728 -0.101367
C42   C     C_R   0.992558 0.636365 0.892936 0.068993
C43   C     C_R   0.941074 0.653942 0.052585 -0.110657
C44   C     C_R   0.752886 0.766282 0.481571 -0.285695
C45   C     C_3   0.030153 0.737533 0.342439 0.334872
C46   C     C_R   0.839968 0.826220 0.463284 0.012818
C47   C     C_R   0.778916 0.919324 0.468721 -0.129223
C48   C     C_R   0.632755 0.954059 0.495268 0.013457
C49   C     C_R   0.555971 0.891261 0.516926 -0.113607
C50   C     C_R   0.615004 0.798924 0.509752 0.038205
C51   C     C_R   0.411006 0.086061 0.525589 -0.137213
C52   C     C_3   0.971838 0.734376 0.584716 0.313093
C53   C     C_R   0.349525 0.178413 0.533069 -0.001010
C54   C     C_R   0.581440 0.211683 0.492293 0.076327
C55   C     C_R   0.646142 0.119339 0.485115 -0.112440
C56   C     C_3   0.042773 0.762924 0.290181 -0.313445
C57   C     C_R   0.564045 0.054017 0.502516 0.007932
C58   C     C_R   0.437816 0.241063 0.518204 -0.283521
C59   C     C_3   0.949068 0.836495 0.598748 -0.384901
C60   C     C_3   0.696305 0.345992 0.374513 0.300178
C61   C     C_3   0.701593 0.323483 0.318162 -0.364352
C62   C     C_3   0.867322 0.175428 0.748846 -0.208350
C63   C     C_3   0.715093 0.189874 0.780655 -0.392570
C64   C     C_3   0.133659 0.244067 0.121744 -0.170872
C65   C     C_3   0.189736 0.156371 0.087762 -0.480805
C66   C     C_3   0.509493 0.295823 0.988028 0.269867
C67   C     C_3   0.483632 0.785377 0.364423 0.356832
C68   C     C_3   0.585103 0.239109 0.028807 -0.169124
C69   C     C_3   0.754203 0.261131 0.045633 -0.502633
C70   C     C_3   0.905151 0.715879 0.866982 -0.166775
C71   C     C_3   0.768382 0.687956 0.831085 -0.367546
C72   C     C_3   0.426669 0.877699 0.346667 -0.369175
C73   C     C_R   0.007668 0.426453 0.178586 0.586507
H1    H     H_    0.714402 0.207619 0.627753 0.003112
H2    H     H_    0.815218 0.365043 0.388626 0.011463
H3    H     H_    0.596262 0.403827 0.383291 0.079021
H4    H     H_    0.945789 0.128826 0.673371 0.132986
H5    H     H_    0.806284 0.268865 0.308091 0.134459
H6    H     H_    0.716804 0.384180 0.300543 0.071917
H7    H     H_    0.585055 0.300765 0.303588 0.128768
H8    H     H_    0.606223 0.244037 0.685013 -0.051961
H9    H     H_    0.760606 0.092739 0.688022 0.053349
H10   H     H_    0.368154 0.652895 0.613559 0.012899
H11   H     H_    0.585641 0.609370 0.618833 0.082107
H12   H     H_    0.331401 0.145778 0.366263 0.127740
H13   H     H_    0.385589 0.748236 0.694646 0.128041
H14   H     H_    0.455914 0.630044 0.700857 0.077608
H15   H     H_    0.603631 0.706020 0.699743 0.127563
H16   H     H_    0.388795 0.202607 0.720694 0.125770
H17   H     H_    0.120614 0.675413 0.346611 0.095185
H18   H     H_    0.904000 0.723766 0.346795 -0.049199
H19   H     H_    0.151241 0.796867 0.287633 0.143830
H20   H     H_    0.057896 0.700654 0.263375 0.125726
H21   H     H_    0.930324 0.809235 0.280072 0.119532
H22   H     H_    0.620288 0.772852 0.364175 -0.062104
H23   H     H_    0.311787 0.127261 0.430055 0.062021
H24   H     H_    0.442754 0.787920 0.403240 0.075651
H25   H     H_    0.485095 0.929827 0.370526 0.070118
H26   H     H_    0.291338 0.896326 0.349127 0.150420
H27   H     H_    0.196055 0.298750 0.667445 0.060426
H28   H     H_    0.462253 0.876663 0.307470 0.120762
H29   H     H_    0.148103 0.449877 0.284297 0.126410
H30   H     H_    0.517196 0.402929 0.751856 0.092634
H31   H     H_    0.368705 0.271498 0.877402 0.131716
H32   H     H_    0.157660 0.267209 0.024690 0.148824
H33   H     H_    0.658473 0.585817 0.246676 0.114064
H34   H     H_    0.131616 0.140470 0.389742 0.128038
H35   H     H_    0.864162 0.723123 0.122709 0.121204
H36   H     H_    0.879327 0.695598 0.960588 0.062353
H37   H     H_    0.367387 0.232416 0.633169 -0.105661
H38   H     H_    0.031530 0.541475 0.712880 0.124433
H39   H     H_    0.918933 0.717814 0.037309 0.066873
H40   H     H_    0.826514 0.546860 0.400649 0.082690
H41   H     H_    0.373289 0.464722 0.599866 0.075726
H42   H     H_    0.333551 0.041540 0.536807 0.075785
H43   H     H_    0.849940 0.962416 0.453030 0.074559
H44   H     H_    0.758019 0.100709 0.464804 0.077823
H45   H     H_    0.851476 0.713721 0.574145 -0.000919
H46   H     H_    0.453297 0.911654 0.541064 0.066513
H47   H     H_    0.388203 0.312507 0.523431 0.065838
H48   H     H_    0.189474 0.169360 0.716396 0.124602
H49   H     H_    0.799836 0.694467 0.477296 0.065177
H50   H     H_    0.354799 0.102598 0.680254 0.097913
H51   H     H_    0.346563 0.287166 0.423035 0.004180
H52   H     H_    0.147557 0.281315 0.447352 0.055234
H53   H     H_    0.631610 0.252115 0.772604 0.165223
H54   H     H_    0.648858 0.130789 0.773521 0.135637
H55   H     H_    0.752668 0.198169 0.820733 0.124474
H56   H     H_    0.054869 0.716538 0.552704 0.069533
H57   H     H_    0.955909 0.118666 0.761907 0.110500
H58   H     H_    0.927105 0.237054 0.754823 0.159303
H59   H     H_    0.095123 0.144015 0.058229 0.139225
H60   H     H_    0.308528 0.158485 0.070759 0.147386
H61   H     H_    0.207831 0.098385 0.110259 0.139486
H62   H     H_    0.230211 0.249463 0.151582 0.156802
H63   H     H_    0.018432 0.234669 0.138662 0.155494
H64   H     H_    0.493572 0.368596 0.004043 0.029871
H65   H     H_    0.594511 0.285207 0.956310 0.046874
H66   H     H_    0.503906 0.253417 0.061387 0.117597
H67   H     H_    0.860253 0.856678 0.629263 0.124121
H68   H     H_    0.596136 0.165928 0.014785 0.128261
H69   H     H_    0.839449 0.245239 0.014048 0.134945
H70   H     H_    0.803429 0.219523 0.075714 0.144669
H71   H     H_    0.745960 0.333871 0.060293 0.142041
H72   H     H_    0.816991 0.633820 0.801525 0.158806
H73   H     H_    0.675128 0.663051 0.851874 0.120545
H74   H     H_    0.707235 0.747429 0.812975 0.121520
H75   H     H_    0.846588 0.771307 0.894517 0.078073
H76   H     H_    0.992817 0.747832 0.847972 0.163393
H77   H     H_    0.901774 0.872008 0.566233 0.066992
H78   H     H_    0.068751 0.857567 0.611333 0.126719
N1    N     N_R   0.940866 0.509072 0.203787 -0.416892
N2    N     N_R   0.228326 0.476534 0.793166 -0.415616
O1    O     O_2   0.905540 0.548000 0.618290 -0.450625
O2    O     O_2   0.177872 0.822325 0.468830 -0.479894
O3    O     O_3   0.064156 0.809244 0.377447 -0.604652
O4    O     O_3   0.137550 0.547930 0.558110 -0.497847
O5    O     O_3   0.574690 0.391440 0.474610 -0.494405
O6    O     O_2   0.341330 0.720570 0.525000 -0.456387
O7    O     O_3   0.525386 0.744779 0.607630 -0.643652
O8    O     O_2   0.408186 0.542999 0.322639 -0.498089
O9    O     O_3   0.415616 0.718237 0.332987 -0.595898
O10   O     O_2   0.034713 0.360685 0.201653 -0.621247
O11   O     O_2   0.321964 0.327563 0.795281 -0.639357
O12   O     O_3   0.668254 0.269512 0.395449 -0.636703
O13   O     O_2   0.849366 0.657999 0.200400 -0.623933
O14   O     O_2   0.128385 0.624787 0.797202 -0.618535
O15   O     O_3   0.688580 0.383890 0.587540 -0.465536
O16   O     O_2   0.741679 0.482849 0.674226 -0.491878
O17   O     O_3   0.037951 0.692513 0.626129 -0.628573
O18   O     O_3   0.807293 0.306910 0.675526 -0.576691
O19   O     O_2   0.848360 0.279400 0.474970 -0.459240
O20   O     O_3   0.104690 0.337720 0.562900 -0.478767
O21   O     O_2   0.010970 0.177802 0.530377 -0.476551
O22   O     O_3   0.358776 0.267817 0.971391 -0.671848
O23   O     O_3   0.136583 0.189931 0.620498 -0.589429
O24   O     O_2   0.284150 0.451970 0.381680 -0.463768
O25   O     O_3   0.052160 0.451990 0.441880 -0.495881
O26   O     O_3   0.501140 0.616030 0.412450 -0.475758
O27   O     O_3   0.150784 0.307441 0.373924 -0.625183
O28   O     O_3   0.615020 0.608480 0.525380 -0.482081
O29   O     O_3   0.085020 0.662210 0.437090 -0.494808
P1    P     P_3+3 0.070480 0.574800 0.610950 0.991818
P2    P     P_3+3 0.668430 0.292880 0.460530 0.985612
P3    P     P_3+3 0.149146 0.219958 0.560580 0.977482
P4    P     P_3+3 0.119230 0.425130 0.389040 0.991281
P5    P     P_3+3 0.042160 0.780348 0.437201 0.945407
P6    P     P_3+3 0.673283 0.396184 0.652605 0.963351
P7    P     P_3+3 0.525465 0.720704 0.542632 0.947492
P8    P     P_3+3 0.513722 0.612680 0.348087 0.941936

loop_
_geom_bond_atom_site_label_1
_geom_bond_atom_site_label_2
_ccdc_geom_bond_type
C34   H14   S    
C2    N1    Am   
C19   C24   A    
C28   H51   S    
C37   C43   A    
C52   H45   S    
C9    C36   A    
C29   H30   S    
C45   H17   S    
O18   P6    S    
C60   H2    S    
C67   O9    S    
O5    P2    S    
O6    P7    D    
C1    H4    S    
C8    N1    S    
C63   H55   S    
C51   C57   A    
Ba1   P2    S    
C34   H13   S    
C32   H38   S    
C52   H56   S    
C68   H68   S    
C60   C61   S    
Ba2   O25   S    
C71   H72   S    
C48   C57   S    
C17   C19   A    
C40   H34   S    
C33   N2    S    
C32   C33   S    
C35   C38   A    
C40   H23   S    
C16   H50   S    
C36   C37   A    
O26   P8    S    
C51   H42   S    
C55   C57   A    
C44   C50   A    
Ba1   O15   S    
C54   C55   A    
Ba2   O29   S    
Ba1   Ba2   S    
C56   H21   S    
C66   O22   S    
C11   C38   A    
C17   C35   A    
C22   C27   A    
C9    C13   A    
C25   C42   A    
C29   C30   S    
Ba2   O4    S    
C26   N2    Am   
C21   C22   A    
C68   C69   S    
C53   P3    S    
O25   P4    S    
C7    C8    S    
O17   P1    S    
C16   H48   S    
C11   C64   S    
C4    H27   S    
C60   O12   S    
C6    C14   D    
C53   C58   A    
C4    O23   S    
C28   O27   S    
C44   H49   S    
C15   C31   D    
C12   H8    S    
C20   O22   S    
C27   N2    Am   
C43   H39   S    
Ba2   O6    S    
O7    P7    S    
C48   C49   A    
Ba2   P4    S    
C61   H5    S    
C51   C53   A    
Ba1   O28   S    
C4    C16   S    
C44   C46   A    
Ba1   O19   S    
C61   H7    S    
C49   C50   A    
C63   H53   S    
C52   O17   S    
Ba1   O4    S    
C17   C20   A    
C64   C65   S    
C13   C39   A    
O3    P5    S    
C3    C5    S    
C18   C37   A    
C6    C7    D    
C72   H25   S    
O24   P4    D    
C71   H73   S    
O1    P1    D    
C21   H31   S    
C6    P4    S    
C2    O13   D    
O16   P6    D    
C59   H78   S    
C50   P7    S    
C12   H1    S    
C27   O11   D    
Ba1   O1    S    
C65   H60   S    
C41   C42   A    
C35   C36   A    
C72   H28   S    
C26   O14   D    
C47   H43   S    
C64   H63   S    
C23   O7    S    
C70   H76   S    
C65   H59   S    
C23   H10   S    
C31   C32   D    
C45   H18   S    
C30   P6    S    
C67   C72   S    
C73   O10   D    
O27   P4    S    
C18   C19   A    
C58   H47   S    
C46   P5    S    
O8    P8    D    
C1    C12   S    
C38   H32   S    
O23   P3    S    
C67   H24   S    
C66   C68   S    
C46   C47   A    
C69   H70   S    
C61   H6    S    
C70   H75   S    
C39   H35   S    
C72   H26   S    
C24   C25   A    
C49   H46   S    
C29   C33   D    
C5    P8    S    
C66   H65   S    
Ba2   O24   S    
C16   H16   S    
C14   H40   S    
C25   C26   A    
C18   C41   A    
O21   P3    D    
C62   H58   S    
C34   H15   S    
C28   H52   S    
Ba1   O20   S    
C68   H66   S    
C71   H74   S    
O29   P5    S    
C4    H37   S    
C60   H3    S    
Ba1   O5    S    
C5    C14   S    
C22   C24   A    
C54   P2    S    
C70   C71   S    
O28   P7    S    
C63   H54   S    
C9    C10   A    
C52   C59   S    
Ba1   P1    S    
C12   O18   S    
O15   P6    S    
C62   H57   S    
C55   H44   S    
C62   C63   S    
O4    P1    S    
C2    C13   A    
C65   H61   S    
C56   H19   S    
C3    C8    D    
O19   P2    D    
C45   C56   S    
O12   P2    S    
C73   N1    Am   
C64   H62   S    
C7    H29   S    
C3    H33   S    
C23   H11   S    
Ba1   O25   S    
C42   C70   S    
Ba2   O28   S    
C56   H20   S    
C1    C62   S    
C59   H77   S    
O2    P5    D    
C23   C34   S    
O20   P3    S    
C41   H36   S    
C54   C58   A    
C59   H67   S    
C69   H71   S    
C10   C11   A    
Ba2   O5    S    
C47   C48   A    
C10   C73   A    
C1    H9    S    
C15   C30   S    
C39   C43   A    
C20   C21   A    
C28   C40   S    
C66   H64   S    
C31   P1    S    
C40   H12   S    
O9    P8    S    
Ba2   O26   S    
C15   H41   S    
C69   H69   S    
C45   O3    S    
C67   H22   S    
