data_mof_unit_10485.cif
_audit_creation_date              2012-12-10T16:39:36-0500
_audit_creation_method            fapswitch 2.2
_symmetry_space_group_name_H-M    P1
_symmetry_Int_Tables_number       1
_space_group_crystal_system       triclinic
_cell_length_a                    16.862516
_cell_length_b                    16.898755
_cell_length_c                    16.629089
_cell_angle_alpha                 65.689075
_cell_angle_beta                  65.379689
_cell_angle_gamma                 66.000075
_cell_volume                      3764.21082631

loop_
_atom_site_label
_atom_site_type_symbol
_atom_type_description
_atom_site_fract_x
_atom_site_fract_y
_atom_site_fract_z
_atom_type_partial_charge
C1    C     C_R   0.316720 0.997789 0.431606 0.023089
C2    C     C_R   0.321152 0.432901 0.991966 0.013031
C3    C     C_R   0.561522 0.423320 0.946375 0.028114
C4    C     C_R   0.035996 0.450924 0.578048 0.031585
C5    C     C_R   0.992834 0.546760 0.410936 0.029202
C6    C     C_3   0.298423 0.853624 0.314184 -0.371113
C7    C     C_3   0.374268 0.764619 0.307051 -0.380707
C8    C     C_3   0.337367 0.692289 0.314267 -0.887534
C9    C     C_3   0.702023 0.141500 0.692268 -0.360913
C10   C     C_3   0.722134 0.222130 0.607023 -0.341977
C11   C     C_3   0.755174 0.281763 0.627248 -0.863736
C12   C     C_3   0.858361 0.299384 0.309050 -0.361781
C13   C     C_R   0.059010 0.675293 0.536775 0.020261
C14   C     C_3   0.771137 0.375575 0.295438 -0.366117
C15   C     C_3   0.708625 0.342854 0.279002 -0.851591
C16   C     C_3   0.140583 0.704612 0.703176 -0.356347
C17   C     C_3   0.226053 0.728129 0.626817 -0.356316
C18   C     C_3   0.272820 0.764733 0.659453 -0.847121
C19   C     C_3   0.300137 0.304996 0.858203 -0.366943
C20   C     C_3   0.289507 0.386311 0.772083 -0.364319
C21   C     C_3   0.298413 0.356870 0.692488 -0.888928
C22   C     C_3   0.772850 0.767697 0.937546 -0.366182
C23   C     C_3   0.756261 0.858393 0.863774 -0.340838
C24   C     C_R   0.985062 0.317457 0.444710 0.033679
C25   C     C_3   0.843635 0.874419 0.787435 -0.858586
C26   C     C_R   0.457045 0.986570 0.451874 -0.043301
C27   C     C_R   0.545445 0.009181 0.549640 -0.042562
C28   C     C_R   0.993634 0.455585 0.451935 -0.045706
C29   C     C_R   0.037066 0.541399 0.536152 -0.047480
C30   C     C_R   0.465727 0.449742 0.976081 -0.043255
C31   C     C_R   0.562051 0.546973 0.987347 -0.043908
C32   C     C_R   0.972070 0.178669 0.433512 0.909327
C33   C     C_R   0.685175 0.998457 0.570345 0.006736
C34   C     C_R   0.038912 0.820580 0.561813 0.904279
C35   C     C_R   0.178392 0.432044 0.974515 0.906432
C36   C     C_R   0.837119 0.574469 0.994888 0.916364
C37   C     C_R   0.439901 0.957855 0.179828 0.919920
C38   C     C_R   0.560110 0.042080 0.820202 0.869272
C39   C     C_R   0.568483 0.822018 0.024680 0.890636
C40   C     C_R   0.439346 0.179275 0.959498 0.890033
C41   C     C_R   0.041067 0.561309 0.819842 0.858210
C42   C     C_R   0.961475 0.438323 0.180111 0.930418
C43   C     C_R   0.822500 0.022978 0.569300 0.921438
C44   C     C_R   0.949578 0.460189 0.326725 0.026101
C45   C     C_R   0.177972 0.975930 0.431203 0.895954
C46   C     C_R   0.412355 0.973152 0.404943 0.061654
C47   C     C_R   0.589698 0.023329 0.596391 0.064583
C48   C     C_R   0.973784 0.411545 0.409097 0.059230
C49   C     C_R   0.055391 0.585262 0.580127 0.061600
C50   C     C_R   0.417288 0.403818 0.966784 0.065119
C51   C     C_R   0.609979 0.597758 0.989943 0.069249
C52   C     C_R   0.274809 0.965546 0.396147 -0.146674
C53   C     C_R   0.726402 0.031916 0.605415 -0.143224
C54   C     C_R   0.937405 0.411907 0.281273 -0.152476
C55   C     C_R   0.066930 0.539734 0.668733 0.035278
C56   C     C_R   0.071778 0.588771 0.717770 -0.160607
C57   C     C_R   0.413156 0.278824 0.932999 -0.171625
C58   C     C_R   0.613546 0.732646 0.010137 -0.133239
C59   C     C_R   0.586735 0.069007 0.718855 -0.171548
C60   C     C_R   0.413856 0.930470 0.281208 -0.160221
C61   C     C_R   0.751135 0.618472 0.972164 -0.174039
C62   C     C_R   0.276100 0.396361 0.963907 -0.141354
C63   C     C_R   0.067231 0.721308 0.587516 -0.154277
C64   C     C_R   0.958912 0.275877 0.402740 -0.149083
C65   C     C_R   0.443085 0.087915 0.695259 -0.236508
C66   C     C_R   0.464608 0.326293 0.935696 0.045485
C67   C     C_R   0.558764 0.909841 0.304966 -0.234460
C68   C     C_R   0.054999 0.715144 0.443999 -0.243980
C69   C     C_R   0.019697 0.270205 0.522254 -0.252152
C70   C     C_R   0.752664 0.495187 0.925899 -0.227965
C71   C     C_R   0.275424 0.498498 0.041326 -0.237653
C72   C     C_R   0.267757 0.049525 0.495389 -0.234495
C73   C     C_R   0.734632 0.945443 0.507406 -0.235031
C74   C     C_R   0.560864 0.299814 0.906818 -0.236587
C75   C     C_R   0.467100 0.691549 0.064532 -0.245845
C76   C     C_R   0.940682 0.554525 0.291668 -0.237120
C77   C     C_R   0.562766 0.674695 0.022983 0.012169
C78   C     C_R   0.074960 0.446071 0.704726 -0.245772
C79   C     C_R   0.328109 0.919289 0.329572 0.007086
C80   C     C_R   0.672780 0.078856 0.671720 0.011419
C81   C     C_R   0.919949 0.328883 0.330994 -0.011782
C82   C     C_R   0.090654 0.672098 0.669720 0.006866
C83   C     C_R   0.327569 0.325791 0.922597 0.019888
C84   C     C_R   0.709276 0.708143 0.971017 0.021232
C85   C     C_R   0.691461 0.933674 0.458511 0.107332
C86   C     C_R   0.311276 0.060304 0.544343 0.104287
C87   C     C_R   0.057461 0.402430 0.661633 0.112839
C88   C     C_R   0.538898 0.059966 0.671390 0.046242
C89   C     C_R   0.968099 0.596017 0.329245 0.112357
C90   C     C_R   0.419086 0.641793 0.061580 0.117921
C91   C     C_R   0.609259 0.348594 0.910633 0.112274
C92   C     C_R   0.603510 0.916695 0.356152 0.112895
C93   C     C_R   0.398803 0.079178 0.645225 0.113547
C94   C     C_R   0.322989 0.544669 0.050314 0.105622
C95   C     C_R   0.705427 0.446634 0.920187 0.105113
C96   C     C_R   0.025994 0.315145 0.571734 0.105873
C97   C     C_R   0.026193 0.676369 0.405247 0.112224
C98   C     C_R   0.741924 0.890435 0.388580 -0.202590
C99   C     C_R   0.462694 0.938095 0.328906 0.037017
C100  C     C_R   0.260830 0.101518 0.615440 -0.200223
C101  C     C_R   0.060127 0.310944 0.701567 -0.220972
C102  C     C_R   0.973196 0.685493 0.285388 -0.223099
C103  C     C_R   0.323817 0.662813 0.097786 -0.208127
C104  C     C_R   0.704783 0.324096 0.879088 -0.214258
C105  C     C_R   0.698504 0.883153 0.337048 -0.209179
C106  C     C_R   0.303843 0.110661 0.665822 -0.202605
C107  C     C_R   0.276329 0.614399 0.092787 -0.202884
C108  C     C_R   0.752385 0.372779 0.883577 -0.201386
C109  C     C_R   0.043773 0.267773 0.657111 -0.226854
C110  C     C_R   0.705579 0.569814 0.962491 0.039863
C111  C     C_R   0.005033 0.724310 0.321475 -0.230812
C112  C     C_R   0.552358 0.957072 0.428589 0.026224
C113  C     C_R   0.450192 0.038505 0.572958 0.025153
C114  C     C_R   0.017350 0.407574 0.534426 0.037338
C115  C     C_R   0.017926 0.588464 0.451184 0.032969
C116  C     C_R   0.418421 0.522095 0.015087 0.029098
C117  C     C_R   0.609664 0.472169 0.951585 0.027062
C118  C     C_R   0.596471 0.967261 0.478431 0.029930
C119  C     C_R   0.406199 0.027822 0.523484 0.030014
C120  C     C_R   0.466550 0.570590 0.020892 0.027631
H1    H     H_    0.262826 0.142147 0.720902 0.134714
H2    H     H_    0.285619 0.717913 0.128450 0.133663
H3    H     H_    0.955234 0.724411 0.221818 0.131801
H4    H     H_    0.074746 0.272925 0.766939 0.128289
H5    H     H_    0.402963 0.120458 0.749629 0.151351
H6    H     H_    0.598635 0.878199 0.249900 0.153580
H7    H     H_    0.076401 0.774923 0.398622 0.176126
H8    H     H_    0.046974 0.198404 0.546432 0.178361
H9    H     H_    0.826158 0.476554 0.898283 0.169518
H10   H     H_    0.203076 0.514178 0.074942 0.183173
H11   H     H_    0.195817 0.082797 0.508072 0.167128
H12   H     H_    0.739254 0.850921 0.282520 0.137116
H13   H     H_    0.806724 0.912536 0.495068 0.178735
H14   H     H_    0.598609 0.243961 0.877125 0.151503
H15   H     H_    0.428421 0.742373 0.100527 0.174650
H16   H     H_    0.911623 0.597366 0.235667 0.170973
H17   H     H_    0.098367 0.404583 0.764532 0.182840
H18   H     H_    0.290089 0.672116 0.384575 0.262528
H19   H     H_    0.300401 0.718504 0.262696 0.255884
H20   H     H_    0.394508 0.631612 0.301111 0.259729
H21   H     H_    0.428290 0.776732 0.239890 0.210429
H22   H     H_    0.405190 0.738649 0.363784 0.231505
H23   H     H_    0.010459 0.792724 0.285411 0.132039
H24   H     H_    0.240520 0.834060 0.373733 0.207665
H25   H     H_    0.275946 0.886079 0.251123 0.218378
H26   H     H_    0.702661 0.309048 0.684666 0.254591
H27   H     H_    0.819149 0.242204 0.646289 0.269509
H28   H     H_    0.768858 0.339380 0.564602 0.255727
H29   H     H_    0.774917 0.198804 0.547552 0.221564
H30   H     H_    0.659192 0.263539 0.586341 0.216792
H31   H     H_    0.646238 0.170896 0.746926 0.182370
H32   H     H_    0.760414 0.103802 0.720557 0.218477
H33   H     H_    0.743860 0.319569 0.216054 0.267948
H34   H     H_    0.043769 0.197586 0.690050 0.124075
H35   H     H_    0.687687 0.286370 0.339445 0.256782
H36   H     H_    0.646687 0.399353 0.268929 0.252469
H37   H     H_    0.734074 0.399506 0.358042 0.221465
H38   H     H_    0.787774 0.433852 0.235092 0.233015
H39   H     H_    0.896167 0.274422 0.247305 0.229976
H40   H     H_    0.834973 0.243086 0.367581 0.205243
H41   H     H_    0.226102 0.827788 0.677875 0.266229
H42   H     H_    0.293971 0.713606 0.720544 0.256133
H43   H     H_    0.334185 0.780701 0.602996 0.253328
H44   H     H_    0.274619 0.666336 0.606693 0.217985
H45   H     H_    0.826076 0.352365 0.858719 0.145771
H46   H     H_    0.208798 0.780018 0.564229 0.221417
H47   H     H_    0.094173 0.762772 0.730443 0.226043
H48   H     H_    0.164958 0.650146 0.761029 0.203980
H49   H     H_    0.369409 0.316402 0.666400 0.260123
H50   H     H_    0.252125 0.314993 0.715660 0.256532
H51   H     H_    0.281132 0.417561 0.634953 0.263746
H52   H     H_    0.222231 0.436194 0.789194 0.216973
H53   H     H_    0.342875 0.420496 0.748217 0.228075
H54   H     H_    0.354317 0.248053 0.832876 0.196003
H55   H     H_    0.238168 0.281556 0.894387 0.217292
H56   H     H_    0.202798 0.632820 0.120541 0.146925
H57   H     H_    0.904713 0.839506 0.812100 0.244188
H58   H     H_    0.854164 0.852371 0.728495 0.267898
H59   H     H_    0.837343 0.947098 0.765895 0.265087
H60   H     H_    0.704570 0.866856 0.833622 0.238592
H61   H     H_    0.734150 0.910101 0.898822 0.271234
H62   H     H_    0.776221 0.777243 0.998286 0.203536
H63   H     H_    0.842275 0.730702 0.903764 0.227532
H64   H     H_    0.187854 0.124192 0.633515 0.136741
H65   H     H_    0.815279 0.863972 0.372327 0.149010
H66   H     H_    0.742770 0.267227 0.850856 0.139431
O1    O     O_R   0.982940 0.138950 0.510160 -0.647788
O2    O     O_R   0.982940 0.510160 0.138950 -0.637788
O3    O     O_R   0.861050 0.017060 0.489840 -0.637156
O4    O     O_R   0.138950 0.982940 0.510160 -0.639757
O5    O     O_R   0.867700 0.025880 0.612340 -0.635462
O6    O     O_R   0.132300 0.974120 0.387660 -0.635296
O7    O     O_R   0.025880 0.612340 0.867700 -0.648126
O8    O     O_R   0.974120 0.387660 0.132300 -0.612726
O9    O     O_R   0.612340 0.867700 0.025880 -0.648746
O10   O     O_R   0.387660 0.132300 0.974120 -0.625195
O11   O     O_R   0.387660 0.974120 0.132300 -0.614709
O12   O     O_R   0.017060 0.861050 0.489840 -0.650439
O13   O     O_R   0.612340 0.025880 0.867700 -0.661458
O14   O     O_R   0.132300 0.387660 0.974120 -0.629589
O15   O     O_R   0.867700 0.612340 0.025880 -0.649060
O16   O     O_R   0.974120 0.132300 0.387660 -0.625986
O17   O     O_R   0.025880 0.867700 0.612340 -0.621923
O18   O     O_R   0.138950 0.510160 0.982940 -0.640839
O19   O     O_R   0.861050 0.489840 0.017060 -0.625550
O20   O     O_R   0.510160 0.982940 0.138950 -0.617127
O21   O     O_R   0.489840 0.017060 0.861050 -0.619294
O22   O     O_R   0.489840 0.861050 0.017060 -0.630445
O23   O     O_R   0.510160 0.138950 0.982940 -0.618259
O24   O     O_R   0.017060 0.489840 0.861050 -0.652754
Zn1   Zn    Zn3+2 0.004880 0.004880 0.583590 0.886600
Zn2   Zn    Zn3+2 0.995120 0.995120 0.416410 0.909783
Zn3   Zn    Zn3+2 0.004880 0.583590 0.004880 0.885872
Zn4   Zn    Zn3+2 0.995120 0.416410 0.995120 0.907782
Zn5   Zn    Zn3+2 0.583590 0.004880 0.004880 0.896743
Zn6   Zn    Zn3+2 0.416410 0.995120 0.995120 0.929417

loop_
_geom_bond_atom_site_label_1
_geom_bond_atom_site_label_2
_ccdc_geom_bond_type
O20   Zn5   S    
C78   C87   A    
C44   C48   A    
C62   C83   A    
C9    H32   S    
C89   C102  A    
C37   O20   A    
C19   C20   S    
C7    H21   S    
C57   C66   A    
C46   C99   A    
C60   C99   A    
O17   Zn1   S    
C2    C50   A    
C76   H16   S    
C7    C8    S    
C60   C79   A    
C71   C94   A    
C30   C116  A    
C95   C117  A    
C21   H49   S    
O23   Zn5   S    
C98   C105  A    
C54   C81   A    
C14   H38   S    
C8    H19   S    
O13   Zn5   S    
O22   Zn6   S    
C4    C114  A    
C45   O4    A    
C23   H61   S    
C98   H65   S    
C17   H46   S    
C10   H29   S    
O10   Zn6   S    
C18   H41   S    
C25   H57   S    
C1    C46   A    
C35   O18   A    
C107  H56   S    
C16   H47   S    
C101  C109  A    
C21   H50   S    
C66   C74   A    
C74   H14   S    
C3    C91   A    
C31   C120  A    
C42   O8    A    
C59   C88   A    
C31   C117  A    
C41   O7    A    
C85   C98   A    
C70   C110  A    
C58   C77   A    
C87   C101  A    
C43   C53   S    
O6    Zn2   S    
C42   C54   S    
C69   H8    S    
O24   Zn4   S    
C16   C17   S    
C24   C69   A    
O14   Zn4   S    
C57   C83   A    
C86   C119  A    
C37   O11   A    
C97   C115  A    
C52   C79   A    
C86   C100  A    
C9    C10   S    
C91   C104  A    
C15   H35   S    
C4    C29   A    
C75   C90   A    
C67   C99   A    
C76   C89   A    
C69   C96   A    
C65   C93   A    
C29   C115  A    
C43   O5    A    
C24   C64   A    
C113  C119  A    
C5    C115  A    
C32   O16   A    
C96   C114  A    
C102  C111  A    
C19   C83   S    
C61   C110  A    
C35   O14   A    
C105  H12   S    
C11   H28   S    
C33   C53   A    
C64   C81   A    
C34   C63   S    
C94   C107  A    
C1    C72   A    
C38   O21   A    
C63   C82   A    
C101  H4    S    
C53   C80   A    
C26   C119  A    
C32   C64   S    
C10   C11   S    
C67   H6    S    
C31   C51   A    
C4    C87   A    
C6    H25   S    
C94   C116  A    
C25   H58   S    
C92   C112  A    
C8    H18   S    
C29   C49   A    
C14   H37   S    
C45   C52   S    
C49   C55   A    
C39   C58   S    
C39   O9    A    
C40   O23   A    
O3    Zn2   S    
C70   H9    S    
C116  C120  A    
C9    C80   S    
C24   C48   A    
C74   C91   A    
C3    C30   A    
O4    Zn1   S    
C51   C77   A    
C41   C56   S    
C22   H63   S    
C17   H44   S    
C58   C84   A    
C93   C106  A    
C5    C28   A    
C75   C77   A    
C18   H43   S    
C34   O12   A    
C45   O6    A    
C20   H53   S    
C13   C63   A    
C34   O17   A    
C73   C85   A    
C39   O22   A    
C55   C56   A    
C16   C82   S    
C17   C18   S    
C15   H36   S    
C68   C97   A    
C93   C113  A    
C12   H40   S    
C56   C82   A    
C109  H34   S    
C50   C66   A    
C68   H7    S    
O15   Zn3   S    
C23   H60   S    
O11   Zn6   S    
C28   C114  A    
C3    C117  A    
C13   C49   A    
C41   O24   A    
C27   C113  A    
C33   C73   A    
C20   H52   S    
C73   H13   S    
O19   Zn4   S    
C51   C110  A    
C33   C47   A    
C36   O15   A    
C6    H24   S    
C102  H3    S    
C78   H17   S    
C26   C112  A    
C104  C108  A    
O12   Zn2   S    
C72   H11   S    
C40   O10   A    
C27   C118  A    
C42   O2    A    
C55   C78   A    
C90   C120  A    
C28   C48   A    
C40   C57   S    
C32   O1    A    
C38   O13   A    
C67   C92   A    
O9    Zn5   S    
C22   C23   S    
O16   Zn2   S    
C61   C84   A    
C59   C80   A    
O8    Zn4   S    
C72   C86   A    
O2    Zn3   S    
C25   H59   S    
C11   H26   S    
O7    Zn3   S    
C6    C7    S    
C111  H23   S    
C104  H66   S    
C96   C109  A    
C100  C106  A    
C27   C47   A    
C8    H20   S    
C47   C88   A    
C70   C95   A    
C12   C14   S    
C19   H54   S    
C22   H62   S    
C21   H51   S    
C10   H30   S    
C71   H10   S    
C112  C118  A    
C18   H42   S    
C108  H45   S    
C11   H27   S    
C6    C79   S    
C65   C88   A    
C16   H48   S    
C97   C111  A    
O18   Zn3   S    
C106  H1    S    
O21   Zn6   S    
C12   C81   S    
C35   C62   S    
C75   H15   S    
C36   O19   A    
C23   C25   S    
C12   H39   S    
C30   C50   A    
C85   C118  A    
C100  H64   S    
C1    C52   A    
C19   H55   S    
C90   C103  A    
C15   H33   S    
C37   C60   S    
C95   C108  A    
C26   C46   A    
C38   C59   S    
C44   C54   A    
C92   C105  A    
O1    Zn1   S    
C20   C21   S    
C43   O3    A    
C9    H31   S    
O5    Zn1   S    
C22   C84   S    
C14   C15   S    
C103  C107  A    
C44   C76   A    
C103  H2    S    
C2    C62   A    
C7    H22   S    
C5    C89   A    
C2    C71   A    
C65   H5    S    
C36   C61   S    
C13   C68   A    
