data_mof_unit_59762.cif
_audit_creation_date              2012-12-11T15:17:39-0500
_audit_creation_method            fapswitch 2.2
_symmetry_space_group_name_H-M    P1
_symmetry_Int_Tables_number       1
_space_group_crystal_system       triclinic
_cell_length_a                    15.766479
_cell_length_b                    15.684278
_cell_length_c                    34.531061
_cell_angle_alpha                 90.167021
_cell_angle_beta                  90.068546
_cell_angle_gamma                 120.053604
_cell_volume                      7390.96379357

loop_
_atom_site_label
_atom_site_type_symbol
_atom_type_description
_atom_site_fract_x
_atom_site_fract_y
_atom_site_fract_z
_atom_type_partial_charge
C1    C     C_R   0.578533 0.441609 0.554913 0.555208
C2    C     C_R   0.498668 0.983133 0.212160 0.298038
C3    C     C_3   0.308203 0.042421 0.411713 -0.272449
C4    C     C_3   0.734642 0.693826 0.413453 -0.271174
C5    C     C_3   0.072154 0.396865 0.439691 -0.296591
C6    C     C_2   0.010119 0.360109 0.670975 0.261706
C7    C     C_2   0.636346 0.665701 0.666493 0.242700
C8    C     C_2   0.336910 0.978795 0.666740 0.217086
C9    C     C_2   0.357332 0.015978 0.168943 0.261591
C10   C     C_2   0.666159 0.637200 0.165708 0.214620
C11   C     C_2   0.986373 0.341461 0.168848 0.229609
C12   C     C_3   0.031347 0.760866 0.626876 -0.259915
C13   C     C_R   0.492687 0.503763 0.211257 0.296489
C14   C     C_3   0.386961 0.233930 0.677001 -0.252552
C15   C     C_3   0.692343 0.952090 0.653534 -0.241511
C16   C     C_3   0.601812 0.829356 0.177373 -0.256776
C17   C     C_3   0.236379 0.408077 0.180546 -0.252313
C18   C     C_3   0.963643 0.700908 0.155426 -0.238557
C19   C     C_2   0.074362 0.399724 0.811585 0.237470
C20   C     C_2   0.663008 0.596557 0.837004 0.241451
C21   C     C_2   0.360887 0.022780 0.832210 0.232782
C22   C     C_2   0.330998 0.920633 0.339752 0.235190
C23   C     C_2   0.595821 0.670511 0.339913 0.237177
C24   C     C_R   0.009005 0.514272 0.210647 0.298157
C25   C     C_2   0.035581 0.370499 0.334305 0.235823
C26   C     C_R   0.114979 0.492306 0.834819 0.022615
C27   C     C_R   0.563084 0.559518 0.853085 0.015897
C28   C     C_R   0.419323 0.983457 0.850708 0.014981
C29   C     C_R   0.431692 0.985253 0.355294 0.017659
C30   C     C_R   0.558692 0.569167 0.355053 0.018693
C31   C     C_R   0.993348 0.426939 0.352413 0.018875
C32   C     C_R   0.127769 0.489212 0.875359 0.093236
C33   C     C_R   0.558544 0.136861 0.554869 0.552517
C34   C     C_R   0.552217 0.576749 0.892660 0.096777
C35   C     C_R   0.408242 0.962780 0.890871 0.101257
C36   C     C_R   0.444320 0.018663 0.394257 0.095248
C37   C     C_R   0.576527 0.556083 0.394279 0.095849
C38   C     C_R   0.968433 0.412685 0.392213 0.106650
C39   C     C_R   0.184232 0.664803 0.879632 -0.169207
C40   C     C_R   0.374936 0.489325 0.884298 -0.177550
C41   C     C_R   0.521660 0.900441 0.886301 -0.169213
C42   C     C_R   0.621531 0.104914 0.385633 -0.166950
C43   C     C_R   0.487625 0.378155 0.384628 -0.168694
C44   C     C_R   0.862864 0.421736 0.555187 0.550256
C45   C     C_R   0.906270 0.526481 0.387367 -0.169872
C46   C     C_R   0.170527 0.667640 0.839940 -0.146961
C47   C     C_R   0.385204 0.475024 0.845473 -0.159457
C48   C     C_R   0.534586 0.922818 0.847197 -0.152115
C49   C     C_R   0.609505 0.075005 0.347389 -0.152686
C50   C     C_R   0.472599 0.390664 0.346120 -0.154515
C51   C     C_R   0.932473 0.542304 0.348663 -0.151263
C52   C     C_R   0.137196 0.582776 0.817309 0.028077
C53   C     C_R   0.478126 0.511730 0.829353 0.025118
C54   C     C_R   0.482181 0.961440 0.828798 0.019627
C55   C     C_R   0.441218 0.578488 0.055004 0.553999
C56   C     C_R   0.515885 0.018623 0.331618 0.020916
C57   C     C_R   0.510150 0.484969 0.330746 0.021475
C58   C     C_R   0.972673 0.490903 0.330463 0.020402
C59   C     C_R   0.163232 0.576574 0.897968 0.026841
C60   C     C_R   0.457424 0.543665 0.907779 0.042679
C61   C     C_R   0.455355 0.915540 0.908039 0.033355
C62   C     C_R   0.539955 0.081596 0.408792 0.037404
C63   C     C_R   0.543256 0.459897 0.408508 0.040625
C64   C     C_R   0.918980 0.458150 0.408898 0.034380
C65   C     C_R   0.577849 0.442526 0.445636 0.579847
C66   C     C_R   0.137008 0.558647 0.054964 0.560578
C67   C     C_R   0.557547 0.135278 0.445630 0.577166
C68   C     C_R   0.864704 0.422330 0.445592 0.566450
C69   C     C_R   0.442032 0.577653 0.945489 0.573725
C70   C     C_R   0.186119 0.580212 0.940006 0.566234
C71   C     C_R   0.421796 0.864140 0.945434 0.555605
C72   C     C_R   0.926721 0.461814 0.589677 -0.039306
C73   C     C_R   0.543575 0.461962 0.591258 -0.040664
C74   C     C_R   0.536743 0.079317 0.590733 -0.041092
C75   C     C_R   0.454972 0.914651 0.092227 -0.041842
C76   C     C_R   0.460486 0.544912 0.091885 -0.042496
C77   C     C_R   0.421475 0.862714 0.055042 0.550007
C78   C     C_R   0.081970 0.538423 0.091374 -0.041970
C79   C     C_R   0.949918 0.401172 0.611414 -0.101631
C80   C     C_R   0.596195 0.554363 0.609182 -0.101841
C81   C     C_R   0.446710 0.046246 0.609324 -0.114585
C82   C     C_R   0.401738 0.952600 0.110579 -0.100420
C83   C     C_R   0.553558 0.595763 0.109009 -0.113335
C84   C     C_R   0.049983 0.448828 0.110497 -0.114456
C85   C     C_R   0.998663 0.432634 0.647074 -0.012737
C86   C     C_R   0.575989 0.568033 0.647508 -0.003877
C87   C     C_R   0.432704 0.011649 0.647440 -0.015780
C88   C     C_R   0.068519 0.559806 0.700092 0.309103
C89   C     C_R   0.418897 0.981194 0.149607 -0.009599
C90   C     C_R   0.567437 0.578664 0.147719 -0.015758
C91   C     C_R   0.018674 0.437016 0.149060 -0.023114
C92   C     C_R   0.028554 0.529420 0.660526 0.010197
C93   C     C_R   0.501863 0.486634 0.667900 0.012382
C94   C     C_R   0.511114 0.010809 0.667057 0.011474
C95   C     C_R   0.490806 0.970704 0.170229 0.011185
C96   C     C_R   0.485522 0.509672 0.169338 0.010251
C97   C     C_R   0.020392 0.517311 0.168593 0.011463
C98   C     C_R   0.010921 0.593829 0.637529 0.147621
C99   C     C_R   0.493865 0.491934 0.709806 0.299836
C100  C     C_R   0.444422 0.395222 0.649030 0.135891
C101  C     C_R   0.598289 0.034273 0.647044 0.133269
C102  C     C_R   0.548641 0.938140 0.151133 0.136595
C103  C     C_R   0.393025 0.453816 0.151384 0.136938
C104  C     C_R   0.042947 0.604121 0.148187 0.133682
C105  C     C_R   0.958583 0.558101 0.602461 -0.099652
C106  C     C_R   0.464780 0.384503 0.610632 -0.090663
C107  C     C_R   0.610054 0.068250 0.608977 -0.093252
C108  C     C_R   0.531312 0.912353 0.112086 -0.088875
C109  C     C_R   0.381976 0.470881 0.112614 -0.088655
C110  C     C_R   0.506597 0.998198 0.709049 0.297714
C111  C     C_R   0.073362 0.613584 0.109687 -0.091481
C112  C     C_R   0.122646 0.588585 0.775593 0.381012
C113  C     C_R   0.482842 0.503046 0.787383 0.379289
C114  C     C_R   0.493859 0.976116 0.786718 0.375355
C115  C     C_R   0.510075 0.004826 0.289732 0.384309
C116  C     C_R   0.502932 0.491654 0.288809 0.383194
C117  C     C_R   0.987885 0.503007 0.288386 0.378230
C118  C     C_3   0.998446 0.340392 0.904048 -0.261413
C119  C     C_3   0.691100 0.734424 0.911858 -0.269112
C120  C     C_3   0.394693 0.071790 0.936716 -0.290195
Cr1   Cr    Cr6+3 0.522350 0.263930 0.500020 1.022997
Cr2   Cr    Cr6+3 0.736070 0.258420 0.500020 1.034559
Cr3   Cr    Cr6+3 0.741580 0.477650 0.500020 1.018836
Cr4   Cr    Cr6+3 0.263930 0.522350 0.000020 1.029592
Cr5   Cr    Cr6+3 0.258420 0.736070 0.000020 1.032979
Cr6   Cr    Cr6+3 0.477650 0.741580 0.000020 1.016777
H1    H     H_    0.924482 0.326491 0.601602 0.185886
H2    H     H_    0.574272 0.884969 0.097906 0.153704
H3    H     H_    0.310083 0.429745 0.099390 0.154154
H4    H     H_    0.096953 0.682901 0.095048 0.153077
H5    H     H_    0.212579 0.732628 0.896060 0.157232
H6    H     H_    0.301969 0.463658 0.895341 0.146212
H7    H     H_    0.558982 0.865020 0.898892 0.132775
H8    H     H_    0.695382 0.152790 0.396206 0.153711
H9    H     H_    0.461701 0.304005 0.394934 0.134082
H10   H     H_    0.869648 0.563005 0.399677 0.131867
H11   H     H_    0.187367 0.736910 0.826681 0.159260
H12   H     H_    0.656187 0.614473 0.593864 0.180948
H13   H     H_    0.319999 0.437307 0.827576 0.129479
H14   H     H_    0.583889 0.907075 0.830891 0.148115
H15   H     H_    0.673962 0.099445 0.329458 0.152305
H16   H     H_    0.434152 0.326080 0.327765 0.145681
H17   H     H_    0.917876 0.592595 0.332394 0.147991
H18   H     H_    0.127687 0.356797 0.880915 0.224292
H19   H     H_    0.951955 0.314731 0.877604 0.148858
H20   H     H_    0.976607 0.384900 0.922145 0.178686
H21   H     H_    0.986028 0.275114 0.921008 0.146426
H22   H     H_    0.678982 0.597068 0.919193 0.237287
H23   H     H_    0.388952 0.052132 0.594760 0.181488
H24   H     H_    0.735548 0.753171 0.885061 0.140359
H25   H     H_    0.741450 0.768989 0.936825 0.150833
H26   H     H_    0.641828 0.765788 0.910035 0.170153
H27   H     H_    0.282894 0.974158 0.899981 0.247184
H28   H     H_    0.431169 0.137243 0.917573 0.129374
H29   H     H_    0.450172 0.069448 0.955871 0.162342
H30   H     H_    0.340782 0.078539 0.955216 0.154196
H31   H     H_    0.317383 0.916562 0.422029 0.233235
H32   H     H_    0.263992 0.014909 0.384800 0.138078
H33   H     H_    0.358740 0.122993 0.409099 0.170949
H34   H     H_    0.343317 0.955016 0.094970 0.184776
H35   H     H_    0.257804 0.029297 0.436276 0.144881
H36   H     H_    0.598882 0.682756 0.422276 0.234362
H37   H     H_    0.752898 0.740130 0.387146 0.139605
H38   H     H_    0.764989 0.643747 0.410409 0.171094
H39   H     H_    0.770199 0.742846 0.438755 0.145212
H40   H     H_    0.980583 0.287057 0.400884 0.248163
H41   H     H_    0.139452 0.435691 0.421795 0.126862
H42   H     H_    0.077432 0.341641 0.458015 0.152436
H43   H     H_    0.066752 0.450658 0.459052 0.159206
H44   H     H_    0.027442 0.372755 0.701534 0.181639
H45   H     H_    0.614313 0.652256 0.092692 0.184617
H46   H     H_    0.622660 0.677708 0.696214 0.156563
H47   H     H_    0.323829 0.949572 0.695921 0.160580
H48   H     H_    0.366696 0.035057 0.199455 0.156576
H49   H     H_    0.677995 0.627414 0.195907 0.154659
H50   H     H_    0.960252 0.330255 0.198470 0.161696
H51   H     H_    0.110002 0.724969 0.665838 0.274099
H52   H     H_    0.060802 0.832466 0.642281 0.201217
H53   H     H_    0.952164 0.732409 0.621475 0.167486
H54   H     H_    0.071405 0.773575 0.599111 0.142182
H55   H     H_    0.336705 0.329678 0.691541 0.276938
H56   H     H_    0.054202 0.389770 0.095943 0.185205
H57   H     H_    0.321849 0.172217 0.690992 0.192179
H58   H     H_    0.450504 0.260389 0.697032 0.176355
H59   H     H_    0.402381 0.205541 0.650003 0.168187
H60   H     H_    0.683369 0.043088 0.695129 0.280014
H61   H     H_    0.758585 0.959072 0.667909 0.189247
H62   H     H_    0.703130 0.953619 0.621702 0.161025
H63   H     H_    0.627876 0.880520 0.661868 0.177130
H64   H     H_    0.652906 0.974027 0.194925 0.279452
H65   H     H_    0.665295 0.830280 0.191755 0.186404
H66   H     H_    0.588105 0.789034 0.149491 0.159151
H67   H     H_    0.941264 0.604336 0.584922 0.126519
H68   H     H_    0.536567 0.789920 0.196305 0.177928
H69   H     H_    0.325506 0.350603 0.195461 0.278770
H70   H     H_    0.173774 0.346289 0.195678 0.193808
H71   H     H_    0.208521 0.423245 0.153413 0.162394
H72   H     H_    0.267408 0.474270 0.199550 0.175656
H73   H     H_    0.056258 0.692294 0.196054 0.281057
H74   H     H_    0.972516 0.768500 0.169653 0.185796
H75   H     H_    0.892628 0.637082 0.164581 0.182053
H76   H     H_    0.963114 0.710448 0.123576 0.166322
H77   H     H_    0.093650 0.344181 0.818404 0.099845
H78   H     H_    0.422089 0.313351 0.596688 0.150872
H79   H     H_    0.720073 0.597391 0.854828 0.107132
H80   H     H_    0.352613 0.079720 0.846643 0.107933
H81   H     H_    0.273397 0.868765 0.358609 0.099887
H82   H     H_    0.597623 0.727215 0.358507 0.101836
H83   H     H_    0.092035 0.363148 0.349347 0.104319
H84   H     H_    0.679592 0.092498 0.594700 0.150884
N1    N     N_R   0.048086 0.601088 0.763057 -0.181373
N2    N     N_R   0.461626 0.902963 0.235450 -0.202058
N3    N     N_R   0.453905 0.544659 0.234848 -0.219002
N4    N     N_R   0.080008 0.516802 0.233631 -0.223025
N5    N     N_R   0.145948 0.551562 0.712346 -0.227491
N6    N     N_R   0.446472 0.535543 0.725555 -0.219501
N7    N     N_R   0.500359 0.916762 0.725318 -0.217544
N8    N     N_R   0.542720 0.074316 0.228112 -0.221021
N9    N     N_R   0.535520 0.455580 0.226898 -0.217885
N10   N     N_R   0.928292 0.508494 0.227020 -0.213799
N11   N     N_R   0.172137 0.565059 0.749529 -0.181682
N12   N     N_R   0.528876 0.458048 0.771552 -0.175646
N13   N     N_R   0.440891 0.540779 0.763825 -0.201265
N14   N     N_R   0.494029 0.905934 0.763603 -0.211389
N15   N     N_R   0.548495 0.084918 0.266372 -0.200997
N16   N     N_R   0.540412 0.449552 0.265138 -0.200988
N17   N     N_R   0.917937 0.502866 0.265316 -0.207956
N18   N     N_2   0.100897 0.397863 0.893737 -0.505008
N19   N     N_2   0.635451 0.628697 0.917329 -0.510872
N20   N     N_2   0.344805 0.982811 0.913719 -0.504301
N21   N     N_2   0.362108 0.991529 0.418836 -0.511507
N22   N     N_2   0.629607 0.638507 0.419433 -0.512092
N23   N     N_R   0.502770 0.058623 0.770327 -0.175326
N24   N     N_2   0.986572 0.347761 0.415059 -0.503019
N25   N     N_2   0.044679 0.692675 0.650733 -0.489765
N26   N     N_2   0.367308 0.312749 0.668524 -0.507477
N27   N     N_2   0.678283 0.032532 0.665563 -0.507872
N28   N     N_2   0.623478 0.929441 0.170906 -0.501489
N29   N     N_2   0.309954 0.381332 0.172105 -0.500069
N30   N     N_2   0.043646 0.685952 0.166617 -0.511040
N31   N     N_R   0.467222 0.913565 0.273750 -0.169568
N32   N     N_R   0.458917 0.538749 0.273106 -0.176119
N33   N     N_R   0.069823 0.511659 0.271899 -0.173405
N34   N     N_R   0.021526 0.586986 0.725936 -0.168637
N35   N     N_R   0.534293 0.452649 0.733292 -0.199892
N36   N     N_R   0.508639 0.069279 0.732104 -0.218389
O1    O     O_R   0.498680 0.159540 0.541860 -0.516993
O2    O     O_R   0.358060 0.532760 0.040030 -0.503907
O3    O     O_R   0.174700 0.641940 0.040030 -0.497329
O4    O     O_R   0.467240 0.825300 0.040030 -0.503973
O5    O     O_R   0.498590 0.161190 0.456930 -0.494158
O6    O     O_R   0.838810 0.337400 0.456930 -0.477676
O7    O     O_R   0.662600 0.501410 0.456930 -0.494108
O8    O     O_R   0.161190 0.498590 0.956930 -0.473470
O9    O     O_R   0.337400 0.838810 0.956930 -0.491843
O10   O     O_R   0.501410 0.662600 0.956930 -0.493570
O11   O     O_R   0.532680 0.359580 0.461300 -0.518524
O12   O     O_R   0.840460 0.339140 0.541860 -0.515830
O13   O     O_R   0.640420 0.173100 0.461300 -0.515086
O14   O     O_R   0.826900 0.467320 0.461300 -0.522208
O15   O     O_R   0.359580 0.532680 0.961300 -0.526923
O16   O     O_R   0.173100 0.640420 0.961300 -0.502999
O17   O     O_R   0.467320 0.826900 0.961300 -0.520264
O18   O     O_3   0.666667 0.333333 0.499990 -0.248409
O19   O     O_3   0.333333 0.666667 0.999990 -0.274147
O20   O     O_2   0.998873 0.283685 0.656774 -0.490052
O21   O     O_2   0.702415 0.734535 0.649062 -0.527419
O22   O     O_2   0.270720 0.983033 0.650107 -0.534629
O23   O     O_R   0.660860 0.501320 0.541860 -0.512842
O24   O     O_2   0.294919 0.023886 0.150930 -0.486480
O25   O     O_2   0.736064 0.697514 0.146914 -0.526547
O26   O     O_2   0.987716 0.273383 0.152158 -0.495158
O27   O     O_2   0.016350 0.382983 0.785219 -0.487191
O28   O     O_2   0.684040 0.630253 0.804342 -0.464983
O29   O     O_2   0.317762 0.988805 0.801665 -0.482604
O30   O     O_2   0.309989 0.926722 0.306236 -0.474455
O31   O     O_2   0.628438 0.693095 0.307164 -0.478320
O32   O     O_2   0.004438 0.327740 0.303452 -0.476403
O33   O     O_R   0.159540 0.498680 0.041860 -0.513654
O34   O     O_R   0.339140 0.840460 0.041860 -0.512145
O35   O     O_R   0.501320 0.660860 0.041860 -0.512857
O36   O     O_R   0.532760 0.358060 0.540030 -0.505649
O37   O     O_R   0.641940 0.174700 0.540030 -0.504059
O38   O     O_R   0.825300 0.467240 0.540030 -0.503821

loop_
_geom_bond_atom_site_label_1
_geom_bond_atom_site_label_2
_ccdc_geom_bond_type
C25   C31   S    
C37   N22   S    
C12   H52   S    
C9    O24   D    
C63   C65   S    
C11   C91   S    
Cr4   O2    S    
C66   O33   A    
C40   C60   A    
C22   C29   S    
C23   H82   S    
C40   C47   A    
C11   O26   D    
C65   O11   A    
H64   N28   S    
C75   C82   A    
C41   C61   A    
C8    O22   D    
Cr2   O18   S    
H73   N30   S    
C70   O8    A    
C49   H15   S    
C14   N26   S    
C14   H57   S    
C23   O31   D    
C43   C63   A    
H36   N22   S    
H51   N25   S    
C107  H84   S    
C100  N26   S    
Cr2   O6    S    
C105  H67   S    
C29   C36   A    
C11   H50   S    
C98   C105  A    
C39   H5    S    
C62   C67   S    
C119  H26   S    
C4    N22   S    
C31   C58   A    
H69   N29   S    
C2    C95   S    
C88   N5    A    
C115  N15   A    
C72   C79   A    
C27   C53   A    
Cr3   O38   S    
C64   C68   S    
Cr1   O18   S    
C1    O36   A    
N12   N35   A    
C81   H23   S    
N23   N36   A    
Cr1   O5    S    
C7    C86   S    
C1    O23   A    
C99   N6    A    
C45   C51   A    
C44   O38   A    
C87   C94   A    
C46   C52   A    
Cr4   O19   S    
C120  H30   S    
C4    H39   S    
C19   C26   S    
C70   O16   A    
C112  N11   A    
C5    H42   S    
C13   N3    A    
Cr5   O9    S    
C110  N7    A    
C113  N13   A    
C80   C86   A    
C92   C98   A    
C16   H66   S    
C74   C107  A    
C115  N31   A    
C44   C72   S    
C24   N4    A    
Cr2   O12   S    
C98   N25   S    
C88   C92   S    
C28   C35   A    
C18   N30   S    
C76   C109  A    
C65   O7    A    
Cr5   O16   S    
C6    O20   D    
C3    H32   S    
C4    H38   S    
Cr6   O19   S    
C102  C108  A    
C78   C111  A    
C84   C91   A    
C114  N23   A    
Cr2   O37   S    
C93   C99   S    
N8    N15   A    
C95   C102  A    
C47   C53   A    
C61   C71   S    
N7    N14   A    
N3    N32   A    
C41   H7    S    
C40   H6    S    
C66   O3    A    
C16   N28   S    
C75   C108  A    
Cr6   O10   S    
C7    H46   S    
C34   C60   A    
C20   H79   S    
C36   C62   A    
N5    N11   A    
C76   C83   A    
C120  H28   S    
C37   C63   A    
Cr4   O33   S    
C53   C113  S    
C57   C116  S    
C38   C64   A    
C27   C34   A    
C119  H25   S    
C66   C78   S    
C86   C93   A    
C116  N32   A    
C102  N28   S    
C22   H81   S    
C48   H14   S    
C13   C96   S    
C101  N27   S    
C24   C97   S    
C112  N1    A    
C32   N18   S    
C118  H20   S    
C5    H41   S    
C94   C101  A    
Cr4   O8    S    
C10   C90   S    
C120  N20   S    
C68   O14   A    
C14   H59   S    
C28   C54   A    
C8    H47   S    
C69   O15   A    
C42   C49   A    
C118  N18   S    
C15   H61   S    
C94   C110  S    
C58   C117  S    
C13   N9    A    
N10   N17   A    
C116  N16   A    
N4    N33   A    
C12   N25   S    
C21   H80   S    
C89   C95   A    
C41   C48   A    
C48   C54   A    
H40   N24   S    
C23   C30   S    
C88   N34   A    
N2    N31   A    
C43   H9    S    
C16   H65   S    
C26   C52   A    
H60   N27   S    
C82   H34   S    
Cr2   O13   S    
C111  H4    S    
Cr1   O1    S    
Cr3   O18   S    
C39   C59   A    
C17   H72   S    
C19   H77   S    
C4    H37   S    
C9    H48   S    
C35   C61   A    
C51   C58   A    
C108  H2    S    
C17   H71   S    
C82   C89   A    
C93   C100  A    
C71   O9    A    
C81   C87   A    
C118  H21   S    
C39   C46   A    
C55   C76   S    
C17   N29   S    
C103  N29   S    
C12   H54   S    
C21   C28   S    
C5    N24   S    
C46   H11   S    
C109  H3    S    
C29   C56   A    
H27   N20   S    
C10   O25   D    
C34   N19   S    
C99   N35   A    
Cr1   O36   S    
C33   O37   A    
C74   C81   A    
C3    N21   S    
C25   H83   S    
C24   N10   A    
C79   C85   A    
H31   N21   S    
C2    N8    A    
C6    H44   S    
Cr3   O23   S    
C10   H49   S    
C104  N30   S    
C83   C90   A    
C42   C62   A    
C117  N17   A    
C45   H10   S    
Cr6   O35   S    
C45   C64   A    
C106  H78   S    
Cr5   O19   S    
C47   H13   S    
C50   C57   A    
C100  C106  A    
N1    N34   A    
Cr5   O34   S    
C118  H19   S    
C56   C115  S    
C25   O32   D    
C71   O17   A    
C38   N24   S    
C104  C111  A    
C14   H58   S    
C9    C89   S    
C43   C50   A    
C90   C96   A    
H22   N19   S    
C20   C27   S    
C51   H17   S    
Cr3   O14   S    
C68   O6    A    
C49   C56   A    
C15   H62   S    
C15   N27   S    
C119  N19   S    
C2    N2    A    
C31   C38   A    
C103  C109  A    
C55   O2    A    
C35   N20   S    
C1    C73   S    
C52   C112  S    
C8    C87   S    
C84   H56   S    
C91   C97   A    
N6    N13   A    
C79   H1    S    
C22   O30   D    
C18   H74   S    
H55   N26   S    
C110  N36   A    
C73   C106  A    
C19   O27   D    
C77   O34   A    
C60   C69   S    
C119  H24   S    
C36   N21   S    
C80   H12   S    
C54   C114  S    
Cr5   O3    S    
C117  N33   A    
C73   C80   A    
C42   H8    S    
C33   O1    A    
C18   H75   S    
Cr4   O15   S    
C120  H29   S    
N9    N16   A    
C15   H63   S    
C20   O28   D    
C113  N12   A    
Cr3   O7    S    
C97   C104  A    
C16   H68   S    
C59   C70   S    
C3    H35   S    
C3    H33   S    
C44   O12   A    
Cr6   O17   S    
C78   C84   A    
C33   C74   S    
C21   O29   D    
C12   H53   S    
C18   H76   S    
C72   C105  A    
C30   C37   A    
C7    O21   D    
C85   C92   A    
Cr6   O4    S    
C75   C77   S    
C6    C85   S    
C101  C107  A    
C55   O35   A    
C5    H43   S    
H18   N18   S    
C17   H70   S    
C83   H45   S    
C77   O4    A    
C32   C59   A    
C114  N14   A    
C96   C103  A    
C26   C32   A    
C67   O13   A    
C30   C57   A    
C50   H16   S    
C69   O10   A    
Cr1   O11   S    
C67   O5    A    
