data_mof_unit_61752.cif
_audit_creation_date              2012-12-10T20:40:29-0500
_audit_creation_method            fapswitch 2.2
_symmetry_space_group_name_H-M    P1
_symmetry_Int_Tables_number       1
_space_group_crystal_system       triclinic
_cell_length_a                    28.103993
_cell_length_b                    28.103988
_cell_length_c                    59.974592
_cell_angle_alpha                 89.999952
_cell_angle_beta                  89.999952
_cell_angle_gamma                 90.0
_cell_volume                      47369.988812

loop_
_atom_site_label
_atom_site_type_symbol
_atom_type_description
_atom_site_fract_x
_atom_site_fract_y
_atom_site_fract_z
_atom_type_partial_charge
C1    C     C_R   0.500000 0.000000 0.189629 0.831160
C2    C     C_R   0.500761 0.956918 0.653066 -0.232313
C3    C     C_R   0.500000 0.000000 0.976388 0.079223
C4    C     C_R   0.500000 0.000000 0.523612 0.079224
C5    C     C_R   0.500000 1.000000 0.476388 0.079225
C6    C     C_R   0.000000 0.500000 0.523612 0.079224
C7    C     C_R   1.000000 0.500000 0.476388 0.079225
C8    C     C_R   0.913405 0.497449 0.024466 -0.198925
C9    C     C_R   0.086597 0.497508 0.975534 -0.198925
C10   C     C_R   0.502554 0.913405 0.024466 -0.198924
C11   C     C_R   0.502483 0.086597 0.975534 -0.198924
C12   C     C_R   0.086595 0.502551 0.024466 -0.198925
C13   C     C_R   0.043082 0.500762 0.346934 -0.232313
C14   C     C_R   0.913403 0.502492 0.975534 -0.198926
C15   C     C_R   0.497446 0.086595 0.024466 -0.198924
C16   C     C_R   0.497516 0.913403 0.975534 -0.198924
C17   C     C_R   0.413404 0.997484 0.524466 -0.198925
C18   C     C_R   0.586596 0.997476 0.475534 -0.198925
C19   C     C_R   0.997479 0.413404 0.524466 -0.198925
C20   C     C_R   0.997480 0.586596 0.475534 -0.198925
C21   C     C_R   0.586596 0.002516 0.524466 -0.198924
C22   C     C_R   0.413404 0.002523 0.475534 -0.198924
C23   C     C_R   0.002521 0.586596 0.524466 -0.198924
C24   C     C_R   0.043082 0.499238 0.653066 -0.232313
C25   C     C_R   0.002520 0.413404 0.475534 -0.198924
C26   C     C_R   0.591008 0.908992 0.250000 0.801495
C27   C     C_R   0.408992 0.091008 0.750000 0.801398
C28   C     C_R   0.091008 0.591009 0.250000 0.801446
C29   C     C_R   0.908991 0.408992 0.750000 0.801446
C30   C     C_R   0.408992 0.091008 0.250000 0.801494
C31   C     C_R   0.591008 0.908992 0.750000 0.801397
C32   C     C_R   0.908992 0.408991 0.250000 0.801446
C33   C     C_R   0.091008 0.591008 0.750000 0.801445
C34   C     C_R   0.591008 0.091008 0.750000 0.801494
C35   C     C_R   0.499236 0.956918 0.346934 -0.232313
C36   C     C_R   0.408992 0.908992 0.250000 0.801397
C37   C     C_R   0.091008 0.408991 0.750000 0.801446
C38   C     C_R   0.908991 0.591008 0.250000 0.801445
C39   C     C_R   0.408992 0.908992 0.750000 0.801494
C40   C     C_R   0.591008 0.091008 0.250000 0.801396
C41   C     C_R   0.908992 0.591009 0.750000 0.801445
C42   C     C_R   0.091008 0.408992 0.250000 0.801445
C43   C     C_R   0.159449 0.702929 0.235841 -0.155386
C44   C     C_R   0.840549 0.297073 0.764160 -0.155373
C45   C     C_R   0.297070 0.159448 0.235842 -0.155379
C46   C     C_R   0.499239 0.043082 0.653066 -0.232312
C47   C     C_R   0.702926 0.840548 0.764160 -0.155379
C48   C     C_R   0.840550 0.297071 0.235841 -0.155386
C49   C     C_R   0.159450 0.702927 0.764160 -0.155373
C50   C     C_R   0.702930 0.840552 0.235842 -0.155380
C51   C     C_R   0.297074 0.159452 0.764160 -0.155379
C52   C     C_R   0.159449 0.297071 0.764159 -0.155386
C53   C     C_R   0.840549 0.702927 0.235840 -0.155371
C54   C     C_R   0.297070 0.840552 0.764158 -0.155380
C55   C     C_R   0.702926 0.159452 0.235839 -0.155380
C56   C     C_R   0.840550 0.702929 0.764159 -0.155386
C57   C     C_R   0.956918 0.499237 0.346934 -0.232313
C58   C     C_R   0.159451 0.297073 0.235840 -0.155373
C59   C     C_R   0.702930 0.159448 0.764158 -0.155380
C60   C     C_R   0.297074 0.840548 0.235840 -0.155379
C61   C     C_R   0.659447 0.202931 0.735842 -0.155383
C62   C     C_R   0.340547 0.797075 0.264161 -0.155376
C63   C     C_R   0.797073 0.659451 0.735840 -0.155370
C64   C     C_R   0.202929 0.340551 0.264159 -0.155389
C65   C     C_R   0.340552 0.797069 0.735842 -0.155384
C66   C     C_R   0.659452 0.202925 0.264161 -0.155376
C67   C     C_R   0.202927 0.340549 0.735840 -0.155370
C68   C     C_R   0.956918 0.500762 0.653066 -0.232312
C69   C     C_R   0.797071 0.659449 0.264159 -0.155388
C70   C     C_R   0.659447 0.797069 0.264157 -0.155383
C71   C     C_R   0.340547 0.202925 0.735839 -0.155376
C72   C     C_R   0.797073 0.340549 0.264160 -0.155371
C73   C     C_R   0.202929 0.659449 0.735841 -0.155390
C74   C     C_R   0.340552 0.202931 0.264157 -0.155384
C75   C     C_R   0.659452 0.797075 0.735839 -0.155376
C76   C     C_R   0.202927 0.659451 0.264160 -0.155370
C77   C     C_R   0.797071 0.340551 0.735841 -0.155390
C78   C     C_R   0.124286 0.667817 0.235824 -0.185471
C79   C     C_R   0.000754 0.543082 0.846934 -0.232312
C80   C     C_R   0.875713 0.332184 0.764177 -0.185557
C81   C     C_R   0.332181 0.124284 0.235825 -0.185476
C82   C     C_R   0.667815 0.875711 0.764177 -0.185551
C83   C     C_R   0.875714 0.332183 0.235824 -0.185470
C84   C     C_R   0.124287 0.667816 0.764177 -0.185557
C85   C     C_R   0.667819 0.875716 0.235825 -0.185477
C86   C     C_R   0.332185 0.124288 0.764177 -0.185552
C87   C     C_R   0.124286 0.332183 0.764176 -0.185471
C88   C     C_R   0.875713 0.667816 0.235823 -0.185558
C89   C     C_R   0.332181 0.875715 0.764175 -0.185477
C90   C     C_R   0.000771 0.456918 0.153066 -0.232313
C91   C     C_R   0.667815 0.124288 0.235823 -0.185552
C92   C     C_R   0.875714 0.667817 0.764176 -0.185471
C93   C     C_R   0.124287 0.332184 0.235823 -0.185558
C94   C     C_R   0.667819 0.124284 0.764175 -0.185478
C95   C     C_R   0.332185 0.875711 0.235823 -0.185552
C96   C     C_R   0.624284 0.167819 0.735826 -0.185478
C97   C     C_R   0.375711 0.832186 0.264178 -0.185550
C98   C     C_R   0.832184 0.624287 0.735823 -0.185556
C99   C     C_R   0.167817 0.375714 0.264176 -0.185471
C100  C     C_R   0.375716 0.832181 0.735826 -0.185477
C101  C     C_R   0.543082 0.999249 0.846934 -0.232312
C102  C     C_R   0.624289 0.167814 0.264178 -0.185550
C103  C     C_R   0.167816 0.375713 0.735823 -0.185556
C104  C     C_R   0.832183 0.624286 0.264176 -0.185474
C105  C     C_R   0.624284 0.832181 0.264174 -0.185479
C106  C     C_R   0.375711 0.167814 0.735822 -0.185550
C107  C     C_R   0.832184 0.375713 0.264176 -0.185556
C108  C     C_R   0.167817 0.624286 0.735824 -0.185472
C109  C     C_R   0.375716 0.167819 0.264174 -0.185477
C110  C     C_R   0.624289 0.832186 0.735822 -0.185550
C111  C     C_R   0.167816 0.624287 0.264176 -0.185556
C112  C     C_R   0.500000 0.000000 0.810371 0.831161
C113  C     C_R   0.456918 0.999227 0.153066 -0.232312
C114  C     C_R   0.832183 0.375714 0.735824 -0.185471
C115  C     C_R   0.128137 0.628138 0.250000 -0.016115
C116  C     C_R   0.871862 0.371863 0.750000 -0.016113
C117  C     C_R   0.371863 0.128138 0.250000 -0.016132
C118  C     C_R   0.628138 0.871863 0.750000 -0.016097
C119  C     C_R   0.871863 0.371862 0.250000 -0.016115
C120  C     C_R   0.128138 0.628137 0.750000 -0.016114
C121  C     C_R   0.628137 0.871862 0.250000 -0.016131
C122  C     C_R   0.371862 0.128137 0.750000 -0.016097
C123  C     C_R   0.128137 0.371862 0.750000 -0.016115
C124  C     C_R   0.999246 0.456918 0.846934 -0.232312
C125  C     C_R   0.871862 0.628137 0.250000 -0.016113
C126  C     C_R   0.371863 0.871862 0.750000 -0.016132
C127  C     C_R   0.628138 0.128137 0.250000 -0.016097
C128  C     C_R   0.871863 0.628138 0.750000 -0.016115
C129  C     C_R   0.128138 0.371863 0.250000 -0.016113
C130  C     C_R   0.628137 0.128138 0.750000 -0.016132
C131  C     C_R   0.371862 0.871863 0.250000 -0.016097
C132  C     C_R   0.198772 0.698774 0.250001 0.151538
C133  C     C_R   0.801226 0.301228 0.750001 0.151541
C134  C     C_R   0.301227 0.198774 0.250000 0.151538
C135  C     C_R   0.999229 0.543082 0.153066 -0.232313
C136  C     C_R   0.698774 0.801227 0.749999 0.151541
C137  C     C_R   0.801227 0.301226 0.250001 0.151538
C138  C     C_R   0.198774 0.698772 0.750001 0.151541
C139  C     C_R   0.698773 0.801226 0.250000 0.151538
C140  C     C_R   0.301226 0.198773 0.749999 0.151541
C141  C     C_R   0.198772 0.301226 0.749999 0.151538
C142  C     C_R   0.801226 0.698772 0.249999 0.151540
C143  C     C_R   0.301227 0.801226 0.750000 0.151538
C144  C     C_R   0.698774 0.198773 0.250000 0.151541
C145  C     C_R   0.801227 0.698774 0.749999 0.151538
C146  C     C_R   0.456917 0.000751 0.846934 -0.232312
C147  C     C_R   0.198774 0.301228 0.249999 0.151541
C148  C     C_R   0.698773 0.198774 0.750000 0.151538
C149  C     C_R   0.301226 0.801227 0.250000 0.151541
C150  C     C_1   0.234867 0.734868 0.250001 -0.052112
C151  C     C_1   0.765132 0.265133 0.750001 -0.052116
C152  C     C_1   0.265133 0.234868 0.249999 -0.052110
C153  C     C_1   0.734868 0.765133 0.749999 -0.052118
C154  C     C_1   0.765133 0.265132 0.250001 -0.052112
C155  C     C_1   0.234868 0.734867 0.750001 -0.052116
C156  C     C_1   0.734867 0.765132 0.249999 -0.052110
C157  C     C_R   0.543082 0.000773 0.153066 -0.232313
C158  C     C_1   0.265132 0.234867 0.749999 -0.052118
C159  C     C_1   0.234867 0.265132 0.749999 -0.052112
C160  C     C_1   0.765132 0.734867 0.249999 -0.052116
C161  C     C_1   0.265133 0.765132 0.750001 -0.052110
C162  C     C_1   0.734868 0.234867 0.250001 -0.052118
C163  C     C_1   0.765133 0.734868 0.749999 -0.052112
C164  C     C_1   0.234868 0.265133 0.249999 -0.052116
C165  C     C_1   0.734867 0.234868 0.750001 -0.052110
C166  C     C_1   0.265132 0.765133 0.250001 -0.052118
C167  C     C_R   0.457625 0.001296 0.417234 0.568032
C168  C     C_R   0.500000 1.000000 0.382047 0.216348
C169  C     C_R   0.542375 0.001293 0.582766 0.568032
C170  C     C_R   0.001294 0.457625 0.417234 0.568031
C171  C     C_R   0.001295 0.542375 0.582766 0.568032
C172  C     C_R   0.542375 0.998703 0.417234 0.568030
C173  C     C_R   0.457625 0.998707 0.582766 0.568031
C174  C     C_R   0.998705 0.542375 0.417234 0.568031
C175  C     C_R   0.998705 0.457625 0.582766 0.568031
C176  C     C_R   0.957625 0.501281 0.917234 0.568031
C177  C     C_R   0.042374 0.501310 0.082766 0.568033
C178  C     C_R   0.498722 0.957625 0.917234 0.568031
C179  C     C_R   0.500000 0.000000 0.617953 0.216348
C180  C     C_R   0.498689 0.042374 0.082766 0.568030
C181  C     C_R   0.042375 0.498719 0.917234 0.568032
C182  C     C_R   0.957626 0.498691 0.082766 0.568032
C183  C     C_R   0.501277 0.042375 0.917234 0.568031
C184  C     C_R   0.501311 0.957626 0.082766 0.568031
C185  C     C_R   0.500788 0.043229 0.370248 0.186299
C186  C     C_R   0.500786 0.956771 0.629752 0.186299
C187  C     C_R   0.043229 0.500787 0.370248 0.186299
C188  C     C_R   0.043229 0.499213 0.629752 0.186299
C189  C     C_R   0.499212 0.956771 0.370248 0.186299
C190  C     C_R   1.000000 0.500000 0.382047 0.216348
C191  C     C_R   0.499214 0.043229 0.629752 0.186299
C192  C     C_R   0.956771 0.499213 0.370248 0.186299
C193  C     C_R   0.956771 0.500787 0.629752 0.186299
C194  C     C_R   0.000779 0.543229 0.870248 0.186298
C195  C     C_R   0.000796 0.456772 0.129752 0.186299
C196  C     C_R   0.543229 0.999224 0.870248 0.186299
C197  C     C_R   0.456771 0.999202 0.129752 0.186299
C198  C     C_R   0.999221 0.456771 0.870248 0.186299
C199  C     C_R   0.999204 0.543229 0.129752 0.186299
C200  C     C_R   0.456771 0.000776 0.870248 0.186298
C201  C     C_R   1.000000 0.500000 0.617953 0.216348
C202  C     C_R   0.543229 0.000798 0.129752 0.186300
C203  C     C_R   1.000000 0.500000 0.882047 0.216350
C204  C     C_R   0.000000 0.500000 0.189629 0.831160
C205  C     C_R   0.000000 0.500000 0.117952 0.216348
C206  C     C_R   0.500000 0.000000 0.882047 0.216347
C207  C     C_R   0.500000 0.000000 0.117952 0.216347
C208  C     C_R   0.500000 1.000000 0.452612 -0.044244
C209  C     C_R   0.500000 0.000000 0.547388 -0.044244
C210  C     C_R   1.000000 0.500000 0.452612 -0.044243
C211  C     C_R   0.000000 0.500000 0.547388 -0.044243
C212  C     C_R   1.000000 0.500000 0.952612 -0.044243
C213  C     C_R   0.000000 0.500000 0.047388 -0.044242
C214  C     C_R   0.500000 0.000000 0.952612 -0.044244
C215  C     C_R   1.000000 0.500000 0.810371 0.831161
C216  C     C_R   0.500000 0.000000 0.047388 -0.044244
C217  C     C_R   0.456845 0.001311 0.440688 -0.029227
C218  C     C_R   0.543155 0.001307 0.559312 -0.029227
C219  C     C_R   0.001309 0.456845 0.440688 -0.029228
C220  C     C_R   0.001309 0.543155 0.559312 -0.029227
C221  C     C_R   0.543154 0.998689 0.440688 -0.029227
C222  C     C_R   0.456845 0.998693 0.559312 -0.029228
C223  C     C_R   0.998691 0.543155 0.440688 -0.029227
C224  C     C_R   0.998691 0.456845 0.559312 -0.029228
C225  C     C_R   0.956845 0.501295 0.940688 -0.029229
C226  C     C_R   0.000000 0.500000 0.689629 0.831160
C227  C     C_R   0.043154 0.501324 0.059312 -0.029229
C228  C     C_R   0.498709 0.956845 0.940688 -0.029227
C229  C     C_R   0.498674 0.043154 0.059312 -0.029227
C230  C     C_R   0.043155 0.498705 0.940688 -0.029229
C231  C     C_R   0.956846 0.498676 0.059312 -0.029229
C232  C     C_R   0.501291 0.043155 0.940688 -0.029227
C233  C     C_R   0.501326 0.956846 0.059312 -0.029227
C234  C     C_R   0.413920 0.002788 0.452361 -0.118909
C235  C     C_R   0.586080 0.002781 0.547639 -0.118908
C236  C     C_R   0.002785 0.413920 0.452361 -0.118909
C237  C     C_R   1.000000 0.500000 0.310371 0.831161
C238  C     C_R   0.002786 0.586080 0.547639 -0.118908
C239  C     C_R   0.586080 0.997212 0.452361 -0.118909
C240  C     C_R   0.413920 0.997219 0.547639 -0.118908
C241  C     C_R   0.997215 0.586080 0.452361 -0.118909
C242  C     C_R   0.997214 0.413920 0.547639 -0.118909
C243  C     C_R   0.913919 0.502757 0.952361 -0.118910
C244  C     C_R   0.086078 0.502816 0.047639 -0.118910
C245  C     C_R   0.497251 0.913919 0.952361 -0.118908
C246  C     C_R   0.497181 0.086079 0.047639 -0.118908
C247  C     C_R   0.086080 0.497243 0.952361 -0.118910
C248  C     C_R   0.500000 0.000000 0.689629 0.831161
C249  C     C_R   0.913921 0.497184 0.047639 -0.118910
C250  C     C_R   0.502749 0.086081 0.952361 -0.118908
C251  C     C_R   0.502819 0.913921 0.047639 -0.118908
C252  C     C_R   0.500000 1.000000 0.335048 -0.087277
C253  C     C_R   0.500000 0.000000 0.664952 -0.087277
C254  C     C_R   1.000000 0.500000 0.335048 -0.087277
C255  C     C_R   0.000000 0.500000 0.664952 -0.087277
C256  C     C_R   0.000000 0.500000 0.835048 -0.087278
C257  C     C_R   0.000000 0.500000 0.164952 -0.087277
C258  C     C_R   0.500000 0.000000 0.835048 -0.087277
C259  C     C_R   0.500000 1.000000 0.310371 0.831161
C260  C     C_R   0.500000 0.000000 0.164952 -0.087277
C261  C     C_R   0.956029 0.499406 0.011879 0.044882
C262  C     C_R   0.043971 0.499436 0.988121 0.044882
C263  C     C_R   0.500596 0.956029 0.011879 0.044883
C264  C     C_R   0.500560 0.043972 0.988121 0.044883
C265  C     C_R   0.043971 0.500594 0.011879 0.044882
C266  C     C_R   0.956028 0.500564 0.988121 0.044882
C267  C     C_R   0.499404 0.043971 0.011879 0.044883
C268  C     C_R   0.499440 0.956028 0.988121 0.044883
C269  C     C_R   0.456028 0.999424 0.511879 0.044883
C270  C     C_R   0.500763 0.043082 0.346934 -0.232312
C271  C     C_R   0.543971 0.999420 0.488121 0.044883
C272  C     C_R   0.999421 0.456029 0.511879 0.044883
C273  C     C_R   0.999422 0.543971 0.488121 0.044883
C274  C     C_R   0.543971 0.000576 0.511879 0.044883
C275  C     C_R   0.456029 0.000580 0.488121 0.044883
C276  C     C_R   0.000579 0.543971 0.511879 0.044883
C277  C     C_R   0.000578 0.456029 0.488121 0.044883
C278  C     C_R   0.000000 0.500000 0.023612 0.079227
C279  C     C_R   0.000000 0.500000 0.976388 0.079227
C280  C     C_R   0.500000 0.000000 0.023612 0.079223
H1    H     H_    0.155975 0.733287 0.224823 0.142361
H2    H     H_    0.844024 0.733285 0.224821 0.142360
H3    H     H_    0.504367 0.121345 0.982997 0.146370
H4    H     H_    0.121341 0.504463 0.017003 0.146371
H5    H     H_    0.878656 0.504379 0.982997 0.146371
H6    H     H_    0.495534 0.121341 0.017003 0.146370
H7    H     H_    0.495633 0.878655 0.982997 0.146370
H8    H     H_    0.378657 0.995587 0.517003 0.146370
H9    H     H_    0.621343 0.995577 0.482997 0.146371
H10   H     H_    0.995581 0.378657 0.517003 0.146371
H11   H     H_    0.995582 0.621343 0.482997 0.146371
H12   H     H_    0.621343 0.004413 0.517003 0.146370
H13   H     H_    0.266711 0.844028 0.775176 0.142362
H14   H     H_    0.378657 0.004423 0.482997 0.146370
H15   H     H_    0.004419 0.621343 0.517003 0.146370
H16   H     H_    0.004418 0.378657 0.482997 0.146370
H17   H     H_    0.733282 0.155979 0.224820 0.142361
H18   H     H_    0.844025 0.733286 0.775177 0.142361
H19   H     H_    0.155976 0.266715 0.224821 0.142361
H20   H     H_    0.733289 0.155972 0.775176 0.142362
H21   H     H_    0.266718 0.844021 0.224820 0.142360
H22   H     H_    0.655971 0.233290 0.724825 0.142358
H23   H     H_    0.344020 0.766719 0.275181 0.142364
H24   H     H_    0.766715 0.655976 0.724821 0.142364
H25   H     H_    0.844024 0.266715 0.775178 0.142361
H26   H     H_    0.233287 0.344025 0.275177 0.142358
H27   H     H_    0.344028 0.766710 0.724825 0.142358
H28   H     H_    0.655980 0.233281 0.275181 0.142364
H29   H     H_    0.233285 0.344024 0.724821 0.142364
H30   H     H_    0.766713 0.655975 0.275177 0.142358
H31   H     H_    0.655971 0.766710 0.275175 0.142358
H32   H     H_    0.344020 0.233281 0.724819 0.142364
H33   H     H_    0.766715 0.344024 0.275178 0.142364
H34   H     H_    0.233287 0.655975 0.724823 0.142358
H35   H     H_    0.344028 0.233290 0.275175 0.142357
H36   H     H_    0.266711 0.155972 0.224824 0.142361
H37   H     H_    0.655980 0.766719 0.724819 0.142364
H38   H     H_    0.233285 0.655976 0.275178 0.142364
H39   H     H_    0.766713 0.344025 0.724823 0.142358
H40   H     H_    0.094139 0.671737 0.224729 0.165305
H41   H     H_    0.905860 0.328264 0.775272 0.165265
H42   H     H_    0.328259 0.094136 0.224731 0.165306
H43   H     H_    0.671733 0.905856 0.775274 0.165264
H44   H     H_    0.905861 0.328263 0.224729 0.165304
H45   H     H_    0.094140 0.671736 0.775272 0.165265
H46   H     H_    0.671741 0.905864 0.224731 0.165306
H47   H     H_    0.733282 0.844021 0.775180 0.142360
H48   H     H_    0.328267 0.094143 0.775274 0.165264
H49   H     H_    0.094139 0.328263 0.775271 0.165304
H50   H     H_    0.905860 0.671736 0.224728 0.165264
H51   H     H_    0.328259 0.905864 0.775269 0.165305
H52   H     H_    0.671733 0.094144 0.224726 0.165263
H53   H     H_    0.905861 0.671737 0.775271 0.165304
H54   H     H_    0.094140 0.328264 0.224728 0.165264
H55   H     H_    0.671740 0.094136 0.775269 0.165305
H56   H     H_    0.328267 0.905857 0.224726 0.165263
H57   H     H_    0.594136 0.171741 0.724731 0.165304
H58   H     H_    0.844025 0.266713 0.224823 0.142361
H59   H     H_    0.405856 0.828267 0.275274 0.165264
H60   H     H_    0.828264 0.594140 0.724728 0.165266
H61   H     H_    0.171737 0.405861 0.275271 0.165303
H62   H     H_    0.405864 0.828259 0.724731 0.165304
H63   H     H_    0.594144 0.171733 0.275274 0.165264
H64   H     H_    0.171736 0.405860 0.724728 0.165266
H65   H     H_    0.828263 0.594139 0.275271 0.165304
H66   H     H_    0.594136 0.828259 0.275269 0.165305
H67   H     H_    0.405856 0.171733 0.724726 0.165264
H68   H     H_    0.828264 0.405860 0.275272 0.165266
H69   H     H_    0.155976 0.733285 0.775178 0.142361
H70   H     H_    0.171738 0.594139 0.724729 0.165303
H71   H     H_    0.405864 0.171741 0.275269 0.165304
H72   H     H_    0.594143 0.828267 0.724726 0.165265
H73   H     H_    0.171736 0.594140 0.275272 0.165266
H74   H     H_    0.828263 0.405861 0.724729 0.165303
H75   H     H_    0.498617 0.923256 0.338156 0.189283
H76   H     H_    0.498621 0.076744 0.661844 0.189283
H77   H     H_    0.923256 0.498618 0.338156 0.189283
H78   H     H_    0.923256 0.501382 0.661844 0.189283
H79   H     H_    0.501383 0.076744 0.338156 0.189283
H80   H     H_    0.733289 0.844028 0.224824 0.142362
H81   H     H_    0.501379 0.923256 0.661844 0.189283
H82   H     H_    0.076744 0.501382 0.338156 0.189283
H83   H     H_    0.076744 0.498618 0.661844 0.189283
H84   H     H_    0.998633 0.423256 0.838156 0.189283
H85   H     H_    0.998602 0.576744 0.161844 0.189283
H86   H     H_    0.423256 0.001362 0.838156 0.189283
H87   H     H_    0.576744 0.001400 0.161844 0.189283
H88   H     H_    0.001367 0.576744 0.838156 0.189283
H89   H     H_    0.001398 0.423257 0.161844 0.189283
H90   H     H_    0.576744 0.998638 0.838156 0.189283
H91   H     H_    0.266718 0.155979 0.775180 0.142360
H92   H     H_    0.423256 0.998600 0.161844 0.189282
H93   H     H_    0.380232 0.004230 0.443603 0.193297
H94   H     H_    0.619769 0.004220 0.556397 0.193297
H95   H     H_    0.004225 0.380231 0.443603 0.193297
H96   H     H_    0.004226 0.619769 0.556397 0.193297
H97   H     H_    0.619768 0.995770 0.443602 0.193297
H98   H     H_    0.380231 0.995780 0.556397 0.193297
H99   H     H_    0.995775 0.619769 0.443602 0.193297
H100  H     H_    0.995774 0.380231 0.556397 0.193297
H101  H     H_    0.880230 0.504186 0.943603 0.193298
H102  H     H_    0.155975 0.266713 0.775177 0.142361
H103  H     H_    0.119766 0.504269 0.056397 0.193298
H104  H     H_    0.495825 0.880229 0.943603 0.193297
H105  H     H_    0.495728 0.119767 0.056397 0.193297
H106  H     H_    0.119769 0.495813 0.943602 0.193298
H107  H     H_    0.880233 0.495731 0.056398 0.193298
H108  H     H_    0.504175 0.119771 0.943602 0.193297
H109  H     H_    0.504273 0.880233 0.056398 0.193297
H110  H     H_    0.878659 0.495537 0.017003 0.146371
H111  H     H_    0.121344 0.495621 0.982997 0.146371
H112  H     H_    0.504466 0.878659 0.017003 0.146370
I1    I     I_    0.497904 0.890477 0.387039 -0.295063
I2    I     I_    0.997883 0.609522 0.112961 -0.295064
I3    I     I_    0.390477 0.002063 0.887039 -0.295065
I4    I     I_    0.609522 0.002121 0.112961 -0.295064
I5    I     I_    0.002071 0.609522 0.887039 -0.295064
I6    I     I_    0.002117 0.390478 0.112961 -0.295064
I7    I     I_    0.609523 0.997937 0.887039 -0.295064
I8    I     I_    0.390478 0.997879 0.112961 -0.295064
I9    I     I_    0.497910 0.109523 0.612961 -0.295064
I10   I     I_    0.890477 0.497907 0.387039 -0.295064
I11   I     I_    0.890478 0.502093 0.612961 -0.295064
I12   I     I_    0.502096 0.109522 0.387039 -0.295063
I13   I     I_    0.502089 0.890478 0.612961 -0.295063
I14   I     I_    0.109522 0.502093 0.387039 -0.295063
I15   I     I_    0.109522 0.497907 0.612961 -0.295063
I16   I     I_    0.997929 0.390477 0.887039 -0.295064
N1    N     N_R   0.500000 1.000000 0.406030 -0.340602
N2    N     N_R   0.500000 0.000000 0.593970 -0.340602
N3    N     N_R   1.000000 0.500000 0.406030 -0.340602
N4    N     N_R   0.000000 0.500000 0.593970 -0.340602
N5    N     N_R   0.000000 0.500000 0.906030 -0.340601
N6    N     N_R   0.000000 0.500000 0.093970 -0.340601
N7    N     N_R   0.500000 0.000000 0.906030 -0.340602
N8    N     N_R   0.500000 0.000000 0.093970 -0.340602
O1    O     O_3   0.500000 0.000000 0.250000 -0.466968
O2    O     O_R   0.460640 0.000000 0.799590 -0.642948
O3    O     O_R   0.000000 0.539360 0.200410 -0.642948
O4    O     O_R   0.000000 0.460640 0.799590 -0.642949
O5    O     O_R   0.960640 0.500000 0.700410 -0.642948
O6    O     O_R   0.039360 0.500000 0.299590 -0.642948
O7    O     O_R   0.500000 0.960640 0.700410 -0.642948
O8    O     O_R   0.500000 0.039360 0.299590 -0.642948
O9    O     O_R   0.039360 0.500000 0.700410 -0.642948
O10   O     O_R   0.960640 0.500000 0.299590 -0.642948
O11   O     O_R   0.500000 0.039360 0.700410 -0.642948
O12   O     O_3   0.500000 0.000000 0.750000 -0.466968
O13   O     O_R   0.500000 0.960640 0.299590 -0.642948
O14   O     O_R   0.594320 0.944960 0.237250 -0.642756
O15   O     O_R   0.405680 0.055040 0.762750 -0.642843
O16   O     O_R   0.055040 0.594320 0.237250 -0.642740
O17   O     O_R   0.944960 0.405680 0.762750 -0.642860
O18   O     O_R   0.405680 0.055040 0.237250 -0.642756
O19   O     O_R   0.594320 0.944960 0.762750 -0.642843
O20   O     O_R   0.944960 0.405680 0.237250 -0.642740
O21   O     O_R   0.055040 0.594320 0.762750 -0.642860
O22   O     O_R   0.594320 0.055040 0.762750 -0.642757
O23   O     O_3   1.000000 0.500000 0.250000 -0.466968
O24   O     O_R   0.405680 0.944960 0.237250 -0.642845
O25   O     O_R   0.055040 0.405680 0.762750 -0.642741
O26   O     O_R   0.944960 0.594320 0.237250 -0.642861
O27   O     O_R   0.405680 0.944960 0.762750 -0.642757
O28   O     O_R   0.594320 0.055040 0.237250 -0.642845
O29   O     O_R   0.944960 0.594320 0.762750 -0.642741
O30   O     O_R   0.055040 0.405680 0.237250 -0.642861
O31   O     O_R   0.094320 0.444960 0.737250 -0.642860
O32   O     O_R   0.905680 0.555040 0.262750 -0.642741
O33   O     O_R   0.555040 0.094320 0.737250 -0.642756
O34   O     O_3   0.000000 0.500000 0.750000 -0.466968
O35   O     O_R   0.444960 0.905680 0.262750 -0.642845
O36   O     O_R   0.905680 0.555040 0.737250 -0.642860
O37   O     O_R   0.094320 0.444960 0.262750 -0.642741
O38   O     O_R   0.444960 0.905680 0.737250 -0.642756
O39   O     O_R   0.555040 0.094320 0.262750 -0.642844
O40   O     O_R   0.094320 0.555040 0.262750 -0.642860
O41   O     O_R   0.905680 0.444960 0.737250 -0.642741
O42   O     O_R   0.555040 0.905680 0.262750 -0.642756
O43   O     O_R   0.444960 0.094320 0.737250 -0.642845
O44   O     O_R   0.905680 0.444960 0.262750 -0.642860
O45   O     O_R   0.460640 0.000000 0.200410 -0.642948
O46   O     O_R   0.094320 0.555040 0.737250 -0.642741
O47   O     O_R   0.444960 0.094320 0.262750 -0.642756
O48   O     O_R   0.555040 0.905680 0.737250 -0.642845
O49   O     O_2   0.416412 0.002551 0.405703 -0.535771
O50   O     O_2   0.583588 0.002545 0.594297 -0.535771
O51   O     O_2   0.002548 0.416412 0.405703 -0.535770
O52   O     O_2   0.002549 0.583588 0.594297 -0.535771
O53   O     O_2   0.583588 0.997448 0.405703 -0.535770
O54   O     O_2   0.416412 0.997455 0.594297 -0.535770
O55   O     O_2   0.997452 0.583588 0.405703 -0.535770
O56   O     O_R   0.539360 0.000000 0.799590 -0.642948
O57   O     O_2   0.997451 0.416412 0.594297 -0.535770
O58   O     O_2   0.916412 0.502522 0.905703 -0.535770
O59   O     O_2   0.083586 0.502578 0.094297 -0.535771
O60   O     O_2   0.497485 0.916411 0.905703 -0.535770
O61   O     O_2   0.497419 0.083587 0.094297 -0.535769
O62   O     O_2   0.083588 0.497478 0.905703 -0.535771
O63   O     O_2   0.916413 0.497423 0.094297 -0.535771
O64   O     O_2   0.502514 0.083589 0.905703 -0.535770
O65   O     O_2   0.502581 0.916413 0.094297 -0.535770
O66   O     O_R   0.000000 0.460640 0.200410 -0.642948
O67   O     O_R   0.000000 0.539360 0.799590 -0.642948
O68   O     O_R   0.539360 0.000000 0.200410 -0.642948
Zn1   Zn    Zn3+2 0.500000 0.944100 0.269050 0.981769
Zn2   Zn    Zn3+2 0.000000 0.555900 0.230950 0.981769
Zn3   Zn    Zn3+2 0.555900 0.000000 0.769050 0.981769
Zn4   Zn    Zn3+2 0.444100 0.000000 0.230950 0.981769
Zn5   Zn    Zn3+2 0.000000 0.555900 0.769050 0.981769
Zn6   Zn    Zn3+2 1.000000 0.444100 0.230950 0.981769
Zn7   Zn    Zn3+2 0.444100 0.000000 0.769050 0.981769
Zn8   Zn    Zn3+2 0.555900 0.000000 0.230950 0.981769
Zn9   Zn    Zn3+2 0.500000 0.055900 0.730950 0.981769
Zn10  Zn    Zn3+2 0.055900 0.500000 0.269050 0.981769
Zn11  Zn    Zn3+2 0.944100 0.500000 0.730950 0.981769
Zn12  Zn    Zn3+2 0.500000 0.055900 0.269050 0.981769
Zn13  Zn    Zn3+2 0.500000 0.944100 0.730950 0.981769
Zn14  Zn    Zn3+2 0.944100 0.500000 0.269050 0.981769
Zn15  Zn    Zn3+2 0.055900 0.500000 0.730950 0.981769
Zn16  Zn    Zn3+2 0.000000 0.444100 0.769050 0.981769

loop_
_geom_bond_atom_site_label_1
_geom_bond_atom_site_label_2
_ccdc_geom_bond_type
C47   C136  A    
C132  C150  S    
C108  C120  A    
C78   C115  A    
C243  H101  S    
C205  N6    S    
O3    Zn2   S    
C103  C123  A    
C21   C274  A    
C110  C118  A    
C30   O18   A    
C180  O61   S    
C211  C220  A    
C79   C194  A    
O34   Zn16  S    
C249  H107  S    
C62   H23   S    
C34   O33   A    
C250  H108  S    
C63   C98   A    
C147  C164  S    
O23   Zn10  S    
C135  C199  A    
C72   H33   S    
C157  C260  A    
C14   H5    S    
C172  O53   S    
C81   C117  A    
C199  C205  A    
O56   Zn3   S    
C193  C201  A    
C83   C119  A    
C57   C254  A    
C172  C221  A    
C65   H27   S    
C88   H50   S    
C181  O62   S    
C22   C234  A    
C98   H60   S    
C42   O37   A    
C261  C278  A    
C80   C116  A    
C48   H58   S    
C133  C151  S    
C34   O22   A    
C68   C193  A    
C40   O28   A    
O34   Zn11  S    
C182  N6    A    
C57   H77   S    
C69   H30   S    
C171  C220  A    
C110  H72   S    
C51   C140  A    
C173  O54   S    
C216  C233  A    
C220  C238  A    
C173  C222  A    
C75   H37   S    
O12   Zn3   S    
C112  O56   A    
O38   Zn13  S    
C20   C241  A    
C168  N1    S    
C99   C129  A    
C237  C254  S    
C53   H2    S    
O24   Zn4   S    
C57   C192  A    
C17   C269  A    
C187  I14   S    
C24   H83   S    
C75   C136  A    
C73   C108  A    
C67   H29   S    
C69   C142  A    
C226  O9    A    
C44   H25   S    
C45   H36   S    
C178  N7    A    
O1    Zn4   S    
C204  C257  S    
O16   Zn2   S    
C170  N3    A    
O33   Zn9   S    
C28   O40   A    
C91   C127  A    
C185  C270  A    
C12   H4    S    
C212  C225  A    
C178  O60   S    
O29   Zn5   S    
C26   O42   A    
C10   H112  S    
C158  C159  T    
O6    Zn10  S    
C82   C118  A    
C107  H68   S    
O4    Zn16  S    
C206  N7    S    
C227  C244  A    
C7    C210  A    
C1    O45   A    
C22   C275  A    
O12   Zn7   S    
C208  C217  A    
C213  C278  A    
C3    C268  A    
C58   C147  A    
C195  I6    S    
O10   Zn14  S    
C45   C81   A    
C248  O7    A    
C86   H48   S    
C70   C105  A    
C36   O24   A    
C145  C163  S    
C38   O32   A    
O31   Zn15  S    
C261  C266  A    
C176  O58   S    
C33   O21   A    
C136  C153  S    
O1    Zn8   S    
C184  O65   S    
C167  N1    A    
C35   H75   S    
C172  N1    A    
C74   C134  A    
C35   C252  A    
C196  C206  A    
C104  H65   S    
C33   O46   A    
O68   Zn8   S    
C29   O41   A    
C175  N4    A    
C210  C219  A    
C59   H20   S    
C60   C95   A    
O21   Zn5   S    
O22   Zn3   S    
O17   Zn16  S    
C179  C191  A    
C71   C106  A    
C83   H44   S    
C97   H59   S    
C7    C277  A    
C143  C161  S    
C200  I3    S    
O27   Zn7   S    
C31   O19   A    
C197  I8    S    
C32   O44   A    
C174  N3    A    
C186  I13   S    
C46   C191  A    
C252  C270  A    
C273  C276  A    
C61   C96   A    
C67   C103  A    
C179  C186  A    
C94   C130  A    
C221  C239  A    
C100  C126  A    
C49   C84   A    
C61   C148  A    
C251  H109  S    
C218  C235  A    
C245  H104  S    
C265  C278  A    
C262  C279  A    
C204  O66   A    
C263  C280  A    
C111  H73   S    
C267  C280  A    
C198  I16   S    
O35   Zn1   S    
C53   C142  A    
C56   C145  A    
C112  C258  S    
C43   H1    S    
C259  O13   A    
C64   C99   A    
C12   C244  A    
C19   H10   S    
C109  H71   S    
O30   Zn6   S    
C26   C121  S    
C6    C276  A    
C2    H81   S    
C213  C231  A    
C101  C196  A    
C1    C260  S    
O12   Zn9   S    
C36   O35   A    
C31   O48   A    
C146  C200  A    
C80   H41   S    
C66   H28   S    
C55   H17   S    
C259  O8    A    
O41   Zn11  S    
O67   Zn5   S    
C169  C218  A    
C180  C229  A    
O5    Zn11  S    
C90   C195  A    
C156  C160  T    
C237  O10   A    
C95   H56   S    
C23   C238  A    
C248  C253  S    
C6    C211  A    
O11   Zn9   S    
C151  C165  T    
C4    C209  A    
C17   C240  A    
C31   C118  S    
O18   Zn4   S    
C88   C125  A    
C62   C97   A    
C176  N5    A    
C235  H94   S    
C181  N5    A    
C210  C223  A    
C15   C246  A    
C181  C230  A    
C9    C262  A    
C106  C122  A    
C216  C229  A    
C21   H12   S    
C16   C268  A    
C11   C264  A    
C16   H7    S    
C85   C121  A    
C182  O63   S    
O13   Zn1   S    
O1    Zn1   S    
O2    Zn7   S    
C201  N4    S    
C226  C255  S    
O23   Zn14  S    
O12   Zn13  S    
C41   O36   A    
O15   Zn7   S    
C202  C207  A    
C146  C258  A    
C229  C246  A    
C32   C119  S    
O19   Zn3   S    
C231  C249  A    
C85   H46   S    
C64   H26   S    
C170  C219  A    
C90   H89   S    
C106  H67   S    
C4    C269  A    
C75   C110  A    
C103  H64   S    
C154  C162  T    
C174  C223  A    
C183  O64   S    
O14   Zn8   S    
C114  C116  A    
C179  N2    S    
C71   C140  A    
O26   Zn2   S    
C266  C279  A    
C114  H74   S    
C52   C141  A    
C241  H99   S    
C48   C83   A    
C113  H92   S    
C39   O27   A    
C73   H34   S    
C64   C147  A    
C87   C123  A    
C76   C132  A    
C68   C255  A    
C264  C267  A    
C13   C254  A    
C54   C143  A    
C42   C129  S    
C234  H93   S    
C247  H106  S    
C190  N3    S    
C196  I7    S    
C3    C264  A    
O45   Zn4   S    
C8    C261  A    
C71   H32   S    
C63   C145  A    
C230  C247  A    
C138  C155  S    
C271  C274  A    
C148  C165  S    
C42   O30   A    
C11   H3    S    
C214  C232  A    
O39   Zn12  S    
C203  N5    S    
C262  C265  A    
C215  O4    A    
C109  C117  A    
O1    Zn12  S    
C16   C245  A    
C155  C161  T    
C43   C78   A    
C223  C241  A    
C13   C187  A    
C37   O31   A    
C58   C93   A    
C174  O55   S    
C15   C267  A    
C65   C143  A    
C93   C129  A    
C185  I12   S    
C66   C144  A    
C169  O50   S    
C124  C198  A    
C10   C263  A    
C105  H66   S    
C46   H76   S    
C20   C273  A    
C187  C190  A    
C55   C91   A    
C99   H61   S    
C50   C85   A    
C87   H49   S    
C104  C125  A    
O46   Zn15  S    
C25   C236  A    
C188  I15   S    
C49   H69   S    
C86   C122  A    
C79   C256  A    
C55   C144  A    
C59   C94   A    
C239  H97   S    
C112  O2    A    
C98   C128  A    
O20   Zn6   S    
C70   C139  A    
C35   C189  A    
C39   C126  S    
C95   C131  A    
C100  H62   S    
C82   H43   S    
C23   H15   S    
C51   C86   A    
C107  C119  A    
C27   C122  S    
O25   Zn16  S    
C89   C126  A    
C263  C268  A    
C177  N6    A    
C135  C257  A    
C11   C250  A    
O34   Zn15  S    
C170  O51   S    
C171  N4    A    
C44   C80   A    
O48   Zn13  S    
C74   H35   S    
C17   H8    S    
C50   C139  A    
C81   H42   S    
C40   C127  S    
C60   H21   S    
C168  C189  A    
C244  H103  S    
C213  C227  A    
C28   C115  S    
C177  C227  A    
C23   C276  A    
C84   C120  A    
C134  C152  S    
C101  C258  A    
C184  N8    A    
C246  H105  S    
C236  H95   S    
C97   C131  A    
O47   Zn12  S    
O42   Zn1   S    
C27   O43   A    
C153  C163  T    
C169  N2    A    
C197  C207  A    
C226  O5    A    
C237  O6    A    
C77   C114  A    
C124  H84   S    
C2    C253  A    
C233  C251  A    
C96   C130  A    
C209  C222  A    
C190  C192  A    
C173  N2    A    
C191  I9    S    
C37   O25   A    
C65   C100  A    
C217  C234  A    
C180  N8    A    
O44   Zn14  S    
C240  H98   S    
C19   C272  A    
C225  C243  A    
O66   Zn6   S    
C24   C188  A    
C4    C274  A    
C29   O17   A    
C5    C208  A    
C175  O57   S    
C224  C242  A    
C270  H79   S    
C21   C235  A    
C171  O52   S    
C211  C224  A    
C222  C240  A    
C89   H51   S    
C137  C154  S    
C9    C247  A    
O43   Zn9   S    
C61   H22   S    
O23   Zn6   S    
C8    H110  S    
C14   C243  A    
C212  C279  A    
C182  C231  A    
C167  O49   S    
C102  H63   S    
C198  C203  A    
C52   H102  S    
C96   H57   S    
C90   C257  A    
C146  H86   S    
C252  C259  S    
O36   Zn11  S    
C150  C166  T    
C272  C277  A    
C62   C149  A    
C84   H45   S    
C193  I11   S    
C66   C102  A    
C91   H52   S    
C124  C256  A    
C74   C109  A    
C183  N7    A    
C58   H19   S    
O8    Zn12  S    
C3    C214  A    
C176  C225  A    
C47   H47   S    
C45   C134  A    
C48   C137  A    
C209  C218  A    
C9    H111  S    
C1    O68   A    
C43   C132  A    
C39   O38   A    
C199  I2    S    
C76   C111  A    
C76   H38   S    
C73   C138  A    
O23   Zn2   S    
C77   H39   S    
C188  C201  A    
C207  N8    S    
C78   H40   S    
C15   H6    S    
C10   C251  A    
O37   Zn10  S    
C47   C82   A    
C12   C265  A    
C19   C242  A    
C13   H82   S    
O7    Zn13  S    
C175  C224  A    
C40   O39   A    
C214  C228  A    
C178  C228  A    
C41   O29   A    
C140  C158  S    
C59   C148  A    
C242  H100  S    
C37   C123  S    
C49   C138  A    
C216  C280  A    
C41   C128  S    
C77   C133  A    
O9    Zn15  S    
C30   O47   A    
C92   C128  A    
C18   C271  A    
C141  C159  S    
C215  O67   A    
C18   H9    S    
C8    C249  A    
C5    C271  A    
O32   Zn14  S    
C269  C275  A    
C6    C272  A    
C54   C89   A    
C25   C277  A    
C102  C127  A    
C36   C131  S    
C22   H14   S    
C32   O20   A    
C92   H53   S    
C56   H18   S    
C208  C221  A    
C94   H55   S    
C24   C255  A    
C2    C186  A    
C248  O11   A    
C50   H80   S    
C212  C230  A    
O28   Zn8   S    
C195  C205  A    
C72   C107  A    
C56   C92   A    
C189  I1    S    
C70   H31   S    
C105  C121  A    
C228  C245  A    
C152  C164  T    
C33   C120  S    
C5    C275  A    
C93   H54   S    
C79   H88   S    
C72   C137  A    
C113  C260  A    
C29   C116  S    
C68   H78   S    
C25   H16   S    
C232  C250  A    
C26   O14   A    
O34   Zn5   S    
C38   C125  S    
C108  H70   S    
C18   C239  A    
C69   C104  A    
C238  H96   S    
C44   C133  A    
C204  O3    A    
C200  C206  A    
C168  C185  A    
C46   C253  A    
C144  C162  S    
C20   H11   S    
C219  C236  A    
C52   C87   A    
C149  C166  S    
C135  H85   S    
C142  C160  S    
C7    C273  A    
C192  I10   S    
C30   C117  S    
C194  I5    S    
C101  H90   S    
C139  C156  S    
C177  O59   S    
C194  C203  A    
C215  C256  S    
C167  C217  A    
C53   C88   A    
C202  I4    S    
C60   C149  A    
O40   Zn10  S    
C184  C233  A    
C54   H13   S    
C63   H24   S    
C34   C130  S    
C27   O15   A    
C113  C197  A    
C28   O16   A    
C111  C115  A    
C157  C202  A    
C38   O26   A    
C183  C232  A    
C157  H87   S    
C51   H91   S    
C14   C266  A    
C67   C141  A    
