data_mof_unit_8463.cif
_audit_creation_date              2012-12-10T19:00:42-0500
_audit_creation_method            fapswitch 2.2
_symmetry_space_group_name_H-M    P1
_symmetry_Int_Tables_number       1
_space_group_crystal_system       triclinic
_cell_length_a                    15.012951
_cell_length_b                    10.941288
_cell_length_c                    9.637301
_cell_angle_alpha                 89.498557
_cell_angle_beta                  89.786644
_cell_angle_gamma                 91.916375
_cell_volume                      1582.07413943

loop_
_atom_site_label
_atom_site_type_symbol
_atom_type_description
_atom_site_fract_x
_atom_site_fract_y
_atom_site_fract_z
_atom_type_partial_charge
C1    C     C_R   0.498669 0.262425 0.499983 0.816415
C2    C     C_R   0.909259 0.613923 0.508189 0.011862
C3    C     C_R   0.945888 0.286421 0.420355 0.090151
C4    C     C_R   0.039147 0.284590 0.420625 0.441681
C5    C     C_R   0.090114 0.388672 0.463912 -0.031091
C6    C     C_R   0.046664 0.499699 0.489289 -0.123248
C7    C     C_R   0.097198 0.608687 0.514083 -0.098997
C8    C     C_R   0.053649 0.715820 0.553938 0.379497
C9    C     C_R   0.960420 0.721174 0.544271 0.136556
C10   C     C_R   0.183427 0.385055 0.479231 0.311683
C11   C     C_R   0.232744 0.495624 0.497493 -0.130779
C12   C     C_R   0.329340 0.498090 0.499837 0.846136
C13   C     C_R   0.190712 0.607204 0.499749 0.310629
C14   C     C_R   0.494477 0.061076 0.621796 0.002512
C15   C     C_R   0.496918 0.128472 0.497677 -0.220143
C16   C     C_R   0.497210 0.064434 0.370487 0.384450
C17   C     C_R   0.484209 0.936517 0.371405 0.315553
C18   C     C_R   0.489179 0.869840 0.497867 -0.228524
C19   C     C_R   0.495250 0.934328 0.622479 0.029747
C20   C     C_3   0.436534 0.924699 0.749884 -0.040830
C21   C     C_3   0.430822 0.064446 0.742783 0.267171
C22   C     C_R   0.576892 0.521281 0.072914 0.045436
C23   C     C_R   0.494956 0.736783 0.499430 0.883440
C24   C     C_R   0.427307 0.459806 0.074877 0.469183
C25   C     C_R   0.426173 0.464114 0.928278 0.413491
C26   C     C_R   0.578026 0.518893 0.926388 -0.044880
C27   C     C_3   0.646122 0.625448 0.921845 0.390476
C28   C     C_3   0.641871 0.627163 0.081901 0.669013
C29   C     C_R   0.670508 0.499910 0.499473 0.817926
C30   C     C_R   0.815656 0.614079 0.491942 0.323711
C31   C     C_R   0.767059 0.501530 0.496554 -0.144999
C32   C     C_R   0.810295 0.390002 0.498355 0.092316
C33   C     C_R   0.902533 0.390837 0.469963 0.053040
C34   C     C_R   0.952861 0.501565 0.489521 -0.081829
Cu1   Cu    Cu3+1 0.500000 0.499980 0.640670 0.958334
Cu2   Cu    Cu3+1 0.500000 0.500020 0.359330 1.021763
H1    H     H_    0.473789 0.894470 0.842279 0.177956
N1    N     N_R   0.500570 0.500930 0.147930 -0.279993
N2    N     N_R   0.500570 0.500890 0.852020 -0.273204
O1    O     O_R   0.500000 0.319640 0.618810 -0.614278
O2    O     O_R   0.500010 0.319680 0.381230 -0.543510
O3    O     O_R   0.370250 0.499950 0.618800 -0.571829
O4    O     O_R   0.370260 0.499990 0.381220 -0.569505
O5    O     O_R   0.499990 0.680320 0.618770 -0.566348
O6    O     O_R   0.500000 0.680360 0.381190 -0.543284
O7    O     O_R   0.629740 0.500010 0.618780 -0.574865
O8    O     O_R   0.629750 0.500050 0.381200 -0.522632
O9    O     O_3   0.773440 0.723949 0.475822 -0.742855
H2    H     H_    0.711355 0.710818 0.444165 0.346407
O10   O     O_3   0.459364 0.881461 0.248882 -0.729481
H3    H     H_    0.408973 0.823295 0.270059 0.347565
C35   C     C_3   0.349408 0.848427 0.734125 -0.792154
H4    H     H_    0.319095 0.862998 0.631176 0.275793
H5    H     H_    0.362452 0.749807 0.746674 0.266435
H6    H     H_    0.301469 0.873094 0.816389 0.241461
C36   C     C_3   0.338830 0.112595 0.702607 -0.698519
H7    H     H_    0.291584 0.102980 0.791238 0.248328
H8    H     H_    0.344951 0.209210 0.671174 0.213121
H9    H     H_    0.310348 0.064522 0.611290 0.243274
C37   C     C_3   0.471614 0.127182 0.870950 -0.781513
H10   H     H_    0.537516 0.089690 0.896637 0.223508
H11   H     H_    0.481802 0.226497 0.853352 0.242357
H12   H     H_    0.426335 0.112708 0.961371 0.250232
O11   O     O_3   0.355177 0.404160 0.140075 -0.669690
H13   H     H_    0.379411 0.347743 0.210080 0.358458
O12   O     O_3   0.350200 0.420252 0.866124 -0.666968
H14   H     H_    0.370716 0.361350 0.797842 0.341910
C38   C     C_3   0.737962 0.593316 0.864449 -0.658163
H15   H     H_    0.741124 0.610888 0.751831 0.246909
H16   H     H_    0.790725 0.653595 0.910498 0.207888
H17   H     H_    0.753127 0.496321 0.886332 0.201958
O13   O     O_3   0.615629 0.732651 0.858854 -0.689141
H18   H     H_    0.550016 0.732019 0.868148 0.313302
O14   O     O_3   0.720469 0.593564 0.148653 -0.716875
H19   H     H_    0.758611 0.669059 0.155815 0.346976
C39   C     C_3   0.758776 0.275077 0.545623 -0.832239
H20   H     H_    0.721228 0.293810 0.642204 0.236808
H21   H     H_    0.710573 0.244819 0.464772 0.232911
H22   H     H_    0.803136 0.199756 0.573069 0.246123
O15   O     O_3   0.606559 0.733353 0.139194 -0.676165
H23   H     H_    0.545339 0.741977 0.103052 0.332173
C40   C     C_3   0.896352 0.184528 0.343896 -0.739730
H24   H     H_    0.829009 0.210647 0.310707 0.234746
H25   H     H_    0.931759 0.163267 0.246060 0.249162
H26   H     H_    0.892192 0.100580 0.409292 0.236030
O16   O     O_3   0.078558 0.182136 0.369174 -0.666752
H27   H     H_    0.123719 0.210813 0.299808 0.357517
O17   O     O_3   0.223840 0.273114 0.477473 -0.707269
H28   H     H_    0.288691 0.284173 0.461841 0.300272
O18   O     O_3   0.242763 0.712341 0.479524 -0.768623
H29   H     H_    0.207053 0.772501 0.428508 0.362137
O19   O     O_3   0.100247 0.814638 0.609830 -0.723966
H30   H     H_    0.149064 0.783138 0.667599 0.351205
C41   C     C_3   0.916951 0.839232 0.584818 -0.641965
H31   H     H_    0.887712 0.882663 0.491882 0.250545
H32   H     H_    0.865031 0.820285 0.665291 0.234212
H33   H     H_    0.963791 0.908620 0.629407 0.254708
O20   O     O_3   0.503335 0.128339 0.246151 -0.711003
H34   H     H_    0.517307 0.071670 0.170114 0.363273

loop_
_geom_bond_atom_site_label_1
_geom_bond_atom_site_label_2
_ccdc_geom_bond_type
C8    C9    A    
C23   O6    A    
C13   O18   S    
C19   C20   S    
C39   H22   S    
C28   O14   S    
C7    C8    A    
C10   O17   S    
C26   C27   S    
C29   O8    A    
C37   H12   S    
C14   C21   S    
C30   O9    S    
C39   H21   S    
C12   O4    A    
C5    C6    A    
O15   H23   S    
C26   N2    A    
C4    O16   S    
C3    C33   A    
C15   C16   A    
C22   N1    A    
C36   H7    S    
Cu2   O8    S    
C37   H11   S    
C18   C19   A    
Cu1   O3    S    
C12   O3    A    
C27   C38   S    
C1    O1    A    
C38   H15   S    
Cu1   Cu2   S    
C36   H8    S    
C16   C17   A    
C24   N1    A    
C8    O19   S    
C35   H6    S    
C2    C34   A    
O12   H14   S    
C24   O11   S    
C22   C28   S    
Cu2   O2    S    
C35   H5    S    
O10   H3    S    
O14   H19   S    
C18   C23   S    
C39   H20   S    
C21   C37   S    
O16   H27   S    
C4    C5    A    
C41   H33   S    
C23   O5    A    
C6    C34   A    
C37   H10   S    
Cu1   N2    S    
C31   C32   A    
C20   C21   S    
C3    C40   S    
C17   C18   A    
Cu2   O6    S    
C24   C25   A    
C41   H32   S    
Cu1   O5    S    
C1    C15   S    
C1    O2    A    
O9    H2    S    
O20   H34   S    
C40   H25   S    
C3    C4    A    
C35   H4    S    
C14   C19   A    
C25   O12   S    
O13   H18   S    
C17   O10   S    
C32   C39   S    
C21   C36   S    
C11   C12   S    
C6    C7    A    
C40   H26   S    
Cu1   O7    S    
C36   H9    S    
C29   O7    A    
C2    C30   A    
O11   H13   S    
Cu2   N1    S    
Cu1   O1    S    
C5    C10   A    
C20   C35   S    
C32   C33   A    
C20   H1    S    
C11   C13   A    
C16   O20   S    
O18   H29   S    
C30   C31   A    
C38   H17   S    
O19   H30   S    
C33   C34   A    
C41   H31   S    
C28   O15   S    
C10   C11   A    
C7    C13   A    
O17   H28   S    
C29   C31   S    
C40   H24   S    
C22   C26   A    
C27   C28   S    
C38   H16   S    
C14   C15   A    
Cu2   O4    S    
C2    C9    A    
C9    C41   S    
C25   N2    A    
C27   O13   S    
