data_mof_unit_23499.cif
_audit_creation_date              2012-10-26T19:35:39-0400
_audit_creation_method            fapswitch 2.2
_symmetry_space_group_name_H-M    P1
_symmetry_Int_Tables_number       1
_space_group_crystal_system       triclinic
_cell_length_a                    15.875364
_cell_length_b                    10.833614
_cell_length_c                    9.549912
_cell_angle_alpha                 90.024579
_cell_angle_beta                  90.139431
_cell_angle_gamma                 89.864025
_cell_volume                      1642.45648163

loop_
_atom_site_label
_atom_site_type_symbol
_atom_type_description
_atom_site_fract_x
_atom_site_fract_y
_atom_site_fract_z
_atom_type_partial_charge
C1    C     C_R   0.502583 0.262879 0.500118 0.572359
C2    C     C_R   0.510165 0.130291 0.500277 -0.027229
C3    C     C_R   0.559545 0.065870 0.399674 0.015433
C4    C     C_R   0.339923 0.500069 0.499813 0.567893
C5    C     C_R   0.559149 0.934168 0.398222 0.002649
C6    C     C_R   0.510624 0.869525 0.499603 -0.023050
C7    C     C_R   0.468960 0.937613 0.600604 -0.016405
C8    C     C_3   0.409426 0.926278 0.722003 0.202172
C9    C     C_3   0.408631 0.070741 0.722155 0.180489
C10   C     C_R   0.559738 0.437036 0.073823 0.196441
C11   C     C_R   0.437332 0.557659 0.074123 0.014302
C12   C     C_3   0.083360 0.498835 0.495533 0.031922
C13   C     C_R   0.437302 0.557567 0.925346 0.012856
C14   C     C_R   0.559647 0.436910 0.926367 0.153841
C15   C     C_3   0.652363 0.457562 0.920487 -0.262163
C16   C     C_R   0.503106 0.737022 0.499939 0.611715
C17   C     C_3   0.652553 0.458384 0.078835 -0.254767
C18   C     C_R   0.660058 0.499699 0.500162 0.592965
C19   C     C_3   0.972603 0.489477 0.631540 -0.080313
C20   C     C_3   0.028902 0.392861 0.554689 -0.150502
C21   C     C_1   0.250378 0.499927 0.499185 0.038936
C22   C     C_1   0.749560 0.499020 0.500349 0.010330
C23   C     C_3   0.971129 0.601752 0.440976 0.104354
C24   C     C_3   0.027437 0.593269 0.570233 0.133920
C25   C     C_2   0.054460 0.517585 0.215326 0.574261
C26   C     C_2   0.619485 0.135058 0.310766 0.609983
C27   C     C_2   0.614492 0.864980 0.300487 0.609900
C28   C     C_2   0.326328 0.865077 0.687196 0.637230
C29   C     C_3   0.916457 0.497892 0.499286 0.029239
C30   C     C_3   0.026580 0.507140 0.364666 0.063501
C31   C     C_3   0.971207 0.400995 0.422558 -0.139256
C32   C     C_1   0.174938 0.499580 0.497813 0.025828
C33   C     C_1   0.824977 0.498398 0.500065 -0.020155
C34   C     C_R   0.468799 0.061956 0.601219 -0.015190
Cu1   Cu    Cu3+1 0.500000 0.499980 0.640670 0.977772
Cu2   Cu    Cu3+1 0.500000 0.500020 0.359330 1.027040
H1    H     H_    0.053726 0.306164 0.601172 0.139700
H2    H     H_    0.416714 0.894682 0.934122 0.276328
H3    H     H_    0.511859 0.899329 0.855718 0.256772
H4    H     H_    0.337094 0.218131 0.655812 0.232228
H5    H     H_    0.287863 0.123537 0.768311 0.268523
H6    H     H_    0.509984 0.114690 0.851211 0.249657
H7    H     H_    0.435226 0.223522 0.843973 0.256228
H8    H     H_    0.150938 0.529574 0.079160 0.346059
H9    H     H_    0.990399 0.766446 0.345084 0.242980
H10   H     H_    0.902059 0.693707 0.295084 0.255907
H11   H     H_    0.006348 0.748167 0.684571 0.256808
H12   H     H_    0.387700 0.605533 0.129509 0.145898
H13   H     H_    0.090977 0.755408 0.579929 0.244106
H14   H     H_    0.722343 0.244114 0.304965 0.324501
H15   H     H_    0.707372 0.739236 0.277611 0.331489
H16   H     H_    0.210696 0.817666 0.755091 0.348222
H17   H     H_    0.387642 0.605373 0.869576 0.156374
H18   H     H_    0.686349 0.377183 0.875093 0.148437
H19   H     H_    0.669270 0.548604 0.874882 0.167552
H20   H     H_    0.687298 0.378973 0.124201 0.149142
H21   H     H_    0.669368 0.549879 0.123505 0.155587
H22   H     H_    0.950069 0.483493 0.741278 0.150693
H23   H     H_    0.946925 0.321257 0.361708 0.141424
N1    N     N_R   0.500530 0.500930 0.147930 -0.239868
N2    N     N_R   0.500530 0.500890 0.852020 -0.247110
N3    N     N_3   0.449783 0.868691 0.844197 -0.606105
N4    N     N_3   0.327628 0.125316 0.681211 -0.590602
N5    N     N_3   0.444714 0.128121 0.848481 -0.599529
N6    N     N_3   0.938813 0.716572 0.382195 -0.598225
N7    N     N_3   0.058709 0.698367 0.649732 -0.608853
O1    O     O_R   0.500000 0.319640 0.618810 -0.517878
O2    O     O_R   0.140223 0.522435 0.183457 -0.691316
O3    O     O_2   0.613341 0.131925 0.183209 -0.484812
O4    O     O_R   0.682761 0.204743 0.374816 -0.705751
O5    O     O_2   0.607756 0.879845 0.174072 -0.478236
O6    O     O_R   0.673368 0.781075 0.353868 -0.693446
O7    O     O_2   0.314230 0.818496 0.572180 -0.525792
O8    O     O_R   0.263251 0.861550 0.788904 -0.691777
O9    O     O_R   0.500010 0.319680 0.381230 -0.479383
O10   O     O_R   0.379070 0.499970 0.618770 -0.516199
O11   O     O_R   0.379080 0.500010 0.381190 -0.493567
O12   O     O_R   0.499990 0.680320 0.618770 -0.475547
O13   O     O_R   0.500000 0.680360 0.381190 -0.481693
O14   O     O_R   0.620920 0.499990 0.618810 -0.506938
O15   O     O_R   0.620930 0.500030 0.381230 -0.494884
O16   O     O_2   0.001760 0.521830 0.121958 -0.525404

loop_
_geom_bond_atom_site_label_1
_geom_bond_atom_site_label_2
_ccdc_geom_bond_type
C20   H1    S    
C9    N5    S    
C19   C20   S    
C28   O8    S    
C7    C8    S    
H4    N4    S    
C23   C29   S    
H16   O8    S    
Cu2   O11   S    
C5    C6    A    
C10   C17   S    
C29   C33   S    
Cu1   O14   S    
C18   O15   A    
C1    C2    S    
C31   H23   S    
C22   C33   T    
C5    C27   S    
Cu1   Cu2   S    
C8    C9    S    
C23   C24   S    
H11   N7    S    
C24   N7    S    
C2    C34   A    
C9    N4    S    
C12   C32   S    
C11   H12   S    
C25   O2    S    
C28   O7    D    
H7    N5    S    
C13   H17   S    
C19   H22   S    
C21   C32   T    
Cu1   O10   S    
H13   N7    S    
C1    O9    A    
C15   H18   S    
H10   N6    S    
C10   C14   A    
Cu2   N1    S    
C14   N2    A    
C15   H19   S    
C10   N1    A    
C23   C30   S    
Cu2   O9    S    
Cu1   O1    S    
Cu2   O15   S    
C12   C20   S    
Cu1   N2    S    
C17   H20   S    
H9    N6    S    
C25   O16   D    
C8    C28   S    
C7    C34   A    
H8    O2    S    
H15   O6    S    
H5    N4    S    
C11   N1    A    
C19   C29   S    
H6    N5    S    
C27   O5    D    
C25   C30   S    
C15   C17   S    
H3    N3    S    
C12   C30   S    
C18   C22   S    
C3    C26   S    
C3    C5    A    
Cu2   O13   S    
C6    C7    A    
C12   C24   S    
Cu1   O12   S    
C16   O13   A    
C23   N6    S    
C2    C3    A    
H14   O4    S    
C4    O11   A    
C29   C31   S    
C4    C21   S    
C11   C13   A    
C30   C31   S    
C26   O4    S    
C1    O1    A    
C9    C34   S    
C19   C24   S    
C16   O12   A    
C4    O10   A    
C6    C16   S    
C13   N2    A    
C18   O14   A    
C17   H21   S    
C26   O3    D    
C14   C15   S    
C27   O6    S    
C8    N3    S    
H2    N3    S    
C20   C31   S    
