data_mof_unit_51401.cif
_audit_creation_date              2012-12-10T18:21:19-0500
_audit_creation_method            fapswitch 2.2
_symmetry_space_group_name_H-M    P1
_symmetry_Int_Tables_number       1
_space_group_crystal_system       triclinic
_cell_length_a                    9.403467
_cell_length_b                    10.621895
_cell_length_c                    17.296199
_cell_angle_alpha                 90.219623
_cell_angle_beta                  85.551224
_cell_angle_gamma                 90.191473
_cell_volume                      1722.36422779

loop_
_atom_site_label
_atom_site_type_symbol
_atom_type_description
_atom_site_fract_x
_atom_site_fract_y
_atom_site_fract_z
_atom_type_partial_charge
C1    C     C_R   0.500335 0.740646 0.499941 0.778721
C2    C     C_R   0.499665 0.259354 0.500059 0.778728
C3    C     C_3   0.445780 0.957440 0.435165 -0.180522
C4    C     C_3   0.554221 0.042560 0.564835 -0.180516
C5    C     C_3   0.579568 0.042023 0.437467 -0.160923
C6    C     C_3   0.420432 0.957977 0.562533 -0.160925
C7    C     C_3   0.498939 0.122409 0.500057 0.025783
C8    C     C_3   0.501061 0.877591 0.499943 0.025783
C9    C     C_3   0.365000 0.040097 0.497747 -0.137613
C10   C     C_3   0.635000 0.959903 0.502254 -0.137610
C11   C     C_3   0.945242 0.395250 0.527141 -0.045872
C12   C     C_3   0.054758 0.604750 0.472859 -0.045870
C13   C     C_3   0.040530 0.486088 0.569497 -0.047544
C14   C     C_3   0.959470 0.513913 0.430503 -0.047543
C15   C     C_3   0.056302 0.409189 0.457591 -0.033488
C16   C     C_3   0.943698 0.590811 0.542409 -0.033495
C17   C     C_R   0.481152 0.494505 0.649782 0.778991
C18   C     C_R   0.518848 0.505498 0.350218 0.778989
C19   C     C_R   0.470141 0.483478 0.734409 -0.067902
C20   C     C_R   0.529860 0.516543 0.265592 -0.067902
C21   C     C_R   0.572497 0.415850 0.774218 0.067978
C22   C     C_R   0.427508 0.584186 0.225788 0.067975
C23   C     C_R   0.558855 0.417233 0.855593 -0.150405
C24   C     C_R   0.441156 0.582828 0.144413 -0.150404
C25   C     C_R   0.447806 0.483250 0.896313 0.154013
C26   C     C_R   0.552208 0.516822 0.103688 0.154012
C27   C     C_R   0.342960 0.541280 0.856365 -0.176161
C28   C     C_R   0.657049 0.458776 0.143632 -0.176158
C29   C     C_R   0.354165 0.541703 0.775971 -0.225275
C30   C     C_R   0.645838 0.458330 0.224026 -0.225276
C31   C     C_2   0.440815 0.494713 0.980934 -0.227187
C32   C     C_2   0.559200 0.505375 0.019067 -0.227191
Cu1   Cu    Cu3+1 0.356850 0.500010 0.499980 0.924385
Cu2   Cu    Cu3+1 0.643150 0.499990 0.500020 0.924387
H1    H     H_    0.894293 0.307246 0.550198 0.119473
H2    H     H_    0.105707 0.692754 0.449801 0.119477
H3    H     H_    0.108815 0.332930 0.421896 0.109436
H4    H     H_    0.891186 0.667071 0.578103 0.109436
H5    H     H_    0.725754 0.408640 0.253860 0.147872
H6    H     H_    0.274247 0.591382 0.746133 0.147874
H7    H     H_    0.664077 0.500880 0.988106 0.143876
H8    H     H_    0.335938 0.499208 0.011894 0.143877
H9    H     H_    0.255226 0.590456 0.887443 0.126304
H10   H     H_    0.744783 0.409606 0.112550 0.126303
H11   H     H_    0.365894 0.632573 0.111841 0.120061
H12   H     H_    0.634120 0.367500 0.888168 0.120060
H13   H     H_    0.644580 0.079582 0.386324 0.125318
H14   H     H_    0.355420 0.920418 0.613677 0.125317
H15   H     H_    0.401868 0.919765 0.382014 0.121410
H16   H     H_    0.598133 0.080236 0.617986 0.121403
H17   H     H_    0.254341 0.075472 0.495885 0.130255
H18   H     H_    0.745659 0.924528 0.504115 0.130255
H19   H     H_    0.078856 0.474084 0.628113 0.115466
H20   H     H_    0.921140 0.525926 0.371888 0.115466
N1    N     N_3   0.141720 0.500030 0.499940 -0.150783
N2    N     N_3   0.858280 0.499970 0.500060 -0.150783
O1    O     O_R   0.379130 0.683150 0.499960 -0.588323
O2    O     O_R   0.620870 0.316850 0.500040 -0.588319
O3    O     O_R   0.620910 0.683140 0.500000 -0.583723
O4    O     O_R   0.379090 0.316860 0.500000 -0.583723
O5    O     O_R   0.365090 0.500030 0.613580 -0.583214
O6    O     O_R   0.634910 0.499970 0.386420 -0.583214
O7    O     O_R   0.606870 0.500020 0.613610 -0.591710
O8    O     O_R   0.393130 0.499980 0.386390 -0.591710
C33   C     C_3   0.693761 0.344221 0.729579 -0.383464
C34   C     C_3   0.776796 0.251037 0.776708 -0.385696
C35   C     C_3   0.885887 0.178038 0.724210 -0.862052
H21   H     H_    0.831850 0.122921 0.680257 0.245440
H22   H     H_    0.963862 0.243764 0.694217 0.248146
H23   H     H_    0.944628 0.111885 0.759642 0.245042
H24   H     H_    0.835471 0.302918 0.820277 0.216331
H25   H     H_    0.701672 0.182974 0.806868 0.224309
H26   H     H_    0.647785 0.289738 0.682420 0.197662
H27   H     H_    0.771346 0.413740 0.703044 0.215584
C36   C     C_3   0.306238 0.655798 0.270432 -0.383460
C37   C     C_3   0.223216 0.749008 0.223315 -0.385702
C38   C     C_3   0.114113 0.821980 0.275819 -0.862065
H28   H     H_    0.036105 0.756241 0.305775 0.248150
H29   H     H_    0.168132 0.877041 0.319805 0.245438
H30   H     H_    0.055413 0.888183 0.240400 0.245044
H31   H     H_    0.298348 0.817086 0.193175 0.224309
H32   H     H_    0.164553 0.697152 0.179730 0.216335
H33   H     H_    0.228647 0.586268 0.296953 0.215581
H34   H     H_    0.352205 0.710258 0.317603 0.197668

loop_
_geom_bond_atom_site_label_1
_geom_bond_atom_site_label_2
_ccdc_geom_bond_type
C25   C31   S    
C14   N2    S    
Cu2   N2    S    
C31   H8    S    
C27   C29   A    
C1    C8    S    
C2    C7    S    
C9    H17   S    
C10   H18   S    
C6    C9    S    
C3    H15   S    
C20   C30   A    
C38   H28   S    
C26   C32   S    
C5    H13   S    
C6    H14   S    
C24   H11   S    
C19   C21   A    
C24   C26   A    
C1    O3    A    
C2    O4    A    
C36   H34   S    
Cu2   O6    S    
C33   H26   S    
C15   H3    S    
C17   O5    A    
C11   C15   S    
C36   H33   S    
C34   H25   S    
C31   C32   D    
C32   H7    S    
C12   H2    S    
C34   C35   S    
C23   H12   S    
C22   C36   S    
C4    C7    S    
C13   H19   S    
C38   H29   S    
C35   H21   S    
C12   C16   S    
C37   C38   S    
C4    C6    S    
C3    C8    S    
C37   H32   S    
C5    C7    S    
C18   O6    A    
C6    C8    S    
C28   H10   S    
C33   H27   S    
C4    H16   S    
C35   H22   S    
C15   N1    S    
C36   C37   S    
C16   N2    S    
C3    C9    S    
C1    O1    A    
C34   H24   S    
Cu1   Cu2   S    
Cu1   N1    S    
Cu1   O5    S    
C14   H20   S    
C12   C14   S    
Cu1   O4    S    
C21   C23   A    
Cu2   O3    S    
C22   C24   A    
C4    C10   S    
C19   C29   A    
C38   H30   S    
C7    C9    S    
Cu1   O1    S    
C21   C33   S    
C20   C22   A    
C3    C5    S    
C37   H31   S    
C2    O2    A    
C25   C27   A    
C26   C28   A    
C35   H23   S    
C28   C30   A    
C5    C10   S    
C17   O7    A    
C11   C13   S    
C18   O8    A    
Cu1   O8    S    
C29   H6    S    
C11   H1    S    
Cu2   O7    S    
C17   C19   S    
C30   H5    S    
C18   C20   S    
C23   C25   A    
C12   N1    S    
C27   H9    S    
C8    C10   S    
C33   C34   S    
C13   C16   S    
Cu2   O2    S    
C14   C15   S    
C11   N2    S    
C16   H4    S    
C13   N1    S    
