data_mof_unit_26826.cif
_audit_creation_date              2012-12-11T15:44:44-0500
_audit_creation_method            fapswitch 2.2
_symmetry_space_group_name_H-M    P1
_symmetry_Int_Tables_number       1
_space_group_crystal_system       triclinic
_cell_length_a                    19.091591
_cell_length_b                    11.059209
_cell_length_c                    18.795688
_cell_angle_alpha                 90.287588
_cell_angle_beta                  89.67969
_cell_angle_gamma                 89.889173
_cell_volume                      3968.36235452

loop_
_atom_site_label
_atom_site_type_symbol
_atom_type_description
_atom_site_fract_x
_atom_site_fract_y
_atom_site_fract_z
_atom_type_partial_charge
C1    C     C_R   0.760862 0.534472 0.646891 0.549052
C2    C     C_R   0.239561 0.534403 0.353192 0.550413
C3    C     C_R   0.260862 0.034473 0.646891 0.549054
C4    C     C_R   0.739561 0.034403 0.353192 0.550415
C5    C     C_R   0.813408 0.042884 0.531532 -0.157248
C6    C     C_R   0.178537 0.078106 0.473119 -0.151762
C7    C     C_R   0.313408 0.542884 0.531532 -0.157244
C8    C     C_R   0.678537 0.578107 0.473119 -0.151762
C9    C     C_R   0.812082 0.043181 0.458504 -0.162182
C10   C     C_R   0.184479 0.076017 0.546372 -0.166696
C11   C     C_R   0.312082 0.543181 0.458504 -0.162184
C12   C     C_R   0.684479 0.576018 0.546372 -0.166697
C13   C     C_3   0.691885 0.284274 0.450340 -0.277858
C14   C     C_3   0.348619 0.229315 0.539498 -0.275467
C15   C     C_3   0.191886 0.784274 0.450340 -0.277859
C16   C     C_3   0.848619 0.729314 0.539497 -0.275469
C17   C     C_3   0.701162 0.296913 0.529255 -0.236507
C18   C     C_3   0.340930 0.238286 0.459972 -0.265194
C19   C     C_3   0.201162 0.796913 0.529255 -0.236505
C20   C     C_3   0.840930 0.738285 0.459972 -0.265193
C21   C     C_R   0.760922 0.101533 0.570307 0.008691
C22   C     C_R   0.237315 0.100415 0.429801 0.007026
C23   C     C_R   0.260922 0.601533 0.570307 0.008696
C24   C     C_R   0.737315 0.600415 0.429801 0.007029
C25   C     C_R   0.003045 0.342989 0.429099 -0.037305
C26   C     C_R   0.010996 0.331308 0.579226 -0.040190
C27   C     C_R   0.503044 0.842989 0.429098 -0.037303
C28   C     C_R   0.510996 0.831308 0.579225 -0.040194
C29   C     C_R   0.982153 0.122848 0.425712 -0.088673
C30   C     C_R   0.005666 0.108525 0.571380 -0.090273
C31   C     C_R   0.482152 0.622848 0.425711 -0.088673
C32   C     C_R   0.505666 0.608525 0.571380 -0.090274
C33   C     C_R   0.984520 0.010949 0.458789 -0.151073
C34   C     C_R   0.997068 0.003446 0.531326 -0.156549
C35   C     C_R   0.484520 0.510949 0.458788 -0.151073
C36   C     C_R   0.497068 0.503446 0.531325 -0.156549
C37   C     C_R   0.004027 0.223422 0.538883 0.015794
C38   C     C_R   0.996619 0.230013 0.463888 0.007775
C39   C     C_R   0.504026 0.723422 0.538883 0.015790
C40   C     C_R   0.496618 0.730013 0.463888 0.007776
C41   C     C_R   0.026899 0.438952 0.543889 0.013807
C42   C     C_R   0.010002 0.449697 0.471553 0.024369
C43   C     C_R   0.526898 0.938952 0.543889 0.013788
C44   C     C_R   0.510000 0.949697 0.471553 0.024370
C45   C     C_R   0.775267 0.130146 0.644046 0.551441
C46   C     C_R   0.224698 0.129651 0.355808 0.545178
C47   C     C_R   0.275267 0.630146 0.644046 0.551411
C48   C     C_R   0.724698 0.629651 0.355808 0.545175
C49   C     C_R   0.051438 0.540691 0.581752 -0.066506
C50   C     C_R   0.001610 0.567997 0.444464 -0.067318
C51   C     C_R   0.551437 0.040691 0.581752 -0.066509
C52   C     C_R   0.501609 0.067997 0.444464 -0.067316
C53   C     C_R   0.045972 0.655085 0.552888 -0.117684
C54   C     C_R   0.021105 0.668686 0.484267 -0.140050
C55   C     C_R   0.545972 0.155086 0.552887 -0.117687
C56   C     C_R   0.521104 0.168686 0.484266 -0.140054
C57   C     C_R   0.732881 0.017299 0.065834 0.016442
C58   C     C_R   0.266603 0.017909 0.934093 -0.004082
C59   C     C_R   0.232863 0.517342 0.065848 0.016480
C60   C     C_R   0.766767 0.517700 0.934142 -0.004174
C61   C     C_R   0.797805 0.053774 0.041409 0.028766
C62   C     C_R   0.242203 0.934723 0.983768 -0.019083
C63   C     C_R   0.297666 0.554579 0.041516 0.028452
C64   C     C_R   0.742248 0.434581 0.983797 -0.019010
C65   C     C_R   0.808608 0.082125 0.972141 -0.016845
C66   C     C_R   0.237883 0.962981 0.055168 -0.020244
C67   C     C_R   0.308482 0.582923 0.972263 -0.016985
C68   C     C_R   0.737910 0.462834 0.055203 -0.020122
C69   C     C_R   0.692165 0.024858 0.941658 0.052094
C70   C     C_R   0.290248 0.157936 0.031420 0.058016
C71   C     C_R   0.192400 0.523970 0.941551 0.052102
C72   C     C_R   0.790569 0.657567 0.031532 0.058258
C73   C     C_R   0.680397 0.993907 0.014459 -0.149495
C74   C     C_R   0.293591 0.127519 0.958967 -0.135262
C75   C     C_R   0.180612 0.493058 0.014362 -0.149271
C76   C     C_R   0.793996 0.627106 0.959083 -0.134960
C77   C     C_3   0.848866 0.145318 0.067394 -0.260270
C78   C     C_3   0.177422 0.859615 0.986367 -0.273010
C79   C     C_3   0.348542 0.646385 0.067545 -0.260272
C80   C     C_3   0.677406 0.359644 0.986350 -0.273160
C81   C     C_3   0.862075 0.173669 0.989410 -0.271233
C82   C     C_3   0.175526 0.883442 0.066042 -0.280346
C83   C     C_3   0.361795 0.674711 0.989548 -0.271325
C84   C     C_3   0.675495 0.383419 0.066030 -0.280339
C85   C     C_R   0.755417 0.079863 0.922427 0.051905
C86   C     C_R   0.255204 0.078927 0.079523 0.037197
C87   C     C_R   0.255410 0.579940 0.922434 0.051804
C88   C     C_R   0.755306 0.578741 0.079579 0.037135
C89   C     C_R   0.973656 0.344422 0.648420 0.535924
C90   C     C_R   0.029172 0.347103 0.354138 0.529574
C91   C     C_R   0.473656 0.844422 0.648420 0.535965
C92   C     C_R   0.529172 0.847103 0.354138 0.529561
C93   C     C_R   0.006915 0.332858 0.073487 0.027294
C94   C     C_R   0.990257 0.344613 0.926157 0.020760
C95   C     C_R   0.506899 0.832803 0.073500 0.027305
C96   C     C_R   0.490199 0.844605 0.926176 0.020828
C97   C     C_R   0.970969 0.428687 0.043078 -0.023510
C98   C     C_R   0.962358 0.433804 0.971006 -0.014505
C99   C     C_R   0.470731 0.928416 0.043139 -0.023636
C100  C     C_R   0.462120 0.933574 0.971072 -0.015033
C101  C     C_R   0.025008 0.245002 0.954645 0.041191
C102  C     C_R   0.031091 0.236321 0.029059 0.060078
C103  C     C_R   0.525098 0.745118 0.954626 0.041746
C104  C     C_R   0.531202 0.736404 0.029038 0.060079
C105  C     C_3   0.982732 0.562090 0.049302 -0.264908
C106  C     C_3   0.974444 0.567565 0.969714 -0.262159
C107  C     C_3   0.482053 0.061908 0.049480 -0.265127
C108  C     C_3   0.473809 0.067451 0.969881 -0.262240
C109  C     C_R   0.773200 0.484776 0.859513 0.559004
C110  C     C_R   0.226131 0.483401 0.140304 0.579678
C111  C     C_R   0.273167 0.984846 0.859516 0.558943
C112  C     C_R   0.726139 0.983420 0.140302 0.579569
C113  C     C_R   0.772056 0.124229 0.851927 0.569978
C114  C     C_R   0.228671 0.125383 0.147463 0.560472
C115  C     C_R   0.272040 0.624193 0.851909 0.569963
C116  C     C_R   0.728688 0.625350 0.147470 0.560440
C117  C     C_R   0.969213 0.347819 0.853285 0.576745
C118  C     C_R   0.032684 0.346001 0.145222 0.556435
C119  C     C_R   0.469198 0.847822 0.853294 0.577070
C120  C     C_R   0.532676 0.845994 0.145228 0.556459
C121  C     C_R   0.753918 0.087728 0.421878 0.009987
C122  C     C_R   0.249869 0.089113 0.578168 0.006607
C123  C     C_R   0.253918 0.587728 0.421878 0.009985
C124  C     C_R   0.749870 0.589113 0.578168 0.006604
C125  C     C_R   0.702502 0.151475 0.458909 0.040247
C126  C     C_R   0.308345 0.114342 0.535891 0.037723
C127  C     C_R   0.202502 0.651475 0.458909 0.040248
C128  C     C_R   0.808345 0.614342 0.535891 0.037729
C129  C     C_R   0.708488 0.163046 0.532886 0.020078
C130  C     C_R   0.301757 0.122417 0.462170 0.001779
C131  C     C_R   0.208488 0.663046 0.532886 0.020076
C132  C     C_R   0.801757 0.622417 0.462170 0.001781
Cr1   Cr    Cr6+3 0.885860 0.491680 0.749630 1.010722
Cr2   Cr    Cr6+3 0.114140 0.491680 0.250370 1.004095
Cr3   Cr    Cr6+3 0.385860 0.991680 0.749630 1.010878
Cr4   Cr    Cr6+3 0.614140 0.991680 0.250370 1.004115
Cr5   Cr    Cr6+3 0.730490 0.332970 0.748720 1.002767
Cr6   Cr    Cr6+3 0.269510 0.332970 0.251280 1.001885
Cr7   Cr    Cr6+3 0.230490 0.832970 0.748720 1.002694
Cr8   Cr    Cr6+3 0.769510 0.832970 0.251280 1.001908
Cr9   Cr    Cr6+3 0.887570 0.179310 0.750150 1.019224
Cr10  Cr    Cr6+3 0.112430 0.179310 0.249850 1.016070
Cr11  Cr    Cr6+3 0.387570 0.679310 0.750150 1.019267
Cr12  Cr    Cr6+3 0.612430 0.679310 0.249850 1.016078
H1    H     H_    0.857803 0.001661 0.557306 0.156625
H2    H     H_    0.127158 0.065335 0.450618 0.168159
H3    H     H_    0.357803 0.501660 0.557306 0.156626
H4    H     H_    0.627158 0.565336 0.450618 0.168160
H5    H     H_    0.058590 0.732966 0.585061 0.096483
H6    H     H_    0.016067 0.757382 0.462007 0.091531
H7    H     H_    0.558589 0.232966 0.585060 0.096500
H8    H     H_    0.516066 0.257382 0.462006 0.091532
H9    H     H_    0.631765 0.952179 0.030516 0.114962
H10   H     H_    0.315366 0.191830 0.921629 0.136713
H11   H     H_    0.132182 0.450533 0.030327 0.114821
H12   H     H_    0.815906 0.691342 0.921784 0.136548
H13   H     H_    0.894765 0.103417 0.093861 0.157685
H14   H     H_    0.186991 0.763876 0.973320 0.148650
H15   H     H_    0.394473 0.604721 0.094079 0.157706
H16   H     H_    0.686914 0.263908 0.973280 0.148726
H17   H     H_    0.823348 0.220789 0.097108 0.143470
H18   H     H_    0.132988 0.901863 0.957577 0.141231
H19   H     H_    0.322865 0.721760 0.097197 0.143441
H20   H     H_    0.633021 0.402022 0.957549 0.141206
H21   H     H_    0.847026 0.266423 0.973261 0.137555
H22   H     H_    0.127508 0.930254 0.084324 0.167135
H23   H     H_    0.346645 0.767355 0.973320 0.137646
H24   H     H_    0.627508 0.430314 0.084313 0.167161
H25   H     H_    0.912580 0.139004 0.969591 0.165362
H26   H     H_    0.188889 0.801956 0.097671 0.149289
H27   H     H_    0.412361 0.640223 0.969801 0.165290
H28   H     H_    0.688798 0.301883 0.097643 0.149387
H29   H     H_    0.036382 0.587834 0.066168 0.159510
H30   H     H_    0.928274 0.619697 0.952754 0.150919
H31   H     H_    0.535599 0.088156 0.066411 0.159441
H32   H     H_    0.427522 0.119204 0.952905 0.151250
H33   H     H_    0.939818 0.607025 0.079275 0.137353
H34   H     H_    0.023308 0.593880 0.941988 0.131131
H35   H     H_    0.438957 0.106333 0.079451 0.137503
H36   H     H_    0.522593 0.094336 0.942223 0.130864
H37   H     H_    0.853797 0.997220 0.430708 0.144953
H38   H     H_    0.139121 0.053596 0.578071 0.138004
H39   H     H_    0.353797 0.497220 0.430708 0.144954
H40   H     H_    0.639121 0.553596 0.578071 0.138005
H41   H     H_    0.138227 0.806822 0.432131 0.141592
H42   H     H_    0.903001 0.714496 0.557605 0.156801
H43   H     H_    0.638227 0.306822 0.432131 0.141592
H44   H     H_    0.403000 0.214497 0.557605 0.156802
H45   H     H_    0.734365 0.328287 0.419098 0.136833
H46   H     H_    0.319818 0.300536 0.569577 0.135746
H47   H     H_    0.234365 0.828287 0.419098 0.136829
H48   H     H_    0.819819 0.800535 0.569577 0.135740
H49   H     H_    0.750885 0.343146 0.543196 0.157423
H50   H     H_    0.305832 0.312302 0.443545 0.175212
H51   H     H_    0.250886 0.843146 0.543196 0.157424
H52   H     H_    0.805833 0.812302 0.443545 0.175211
H53   H     H_    0.654163 0.331876 0.557172 0.145733
H54   H     H_    0.390603 0.231619 0.429622 0.123115
H55   H     H_    0.154163 0.831876 0.557172 0.145733
H56   H     H_    0.890604 0.731618 0.429622 0.123113
H57   H     H_    0.974055 0.930783 0.427729 0.095458
H58   H     H_    0.998383 0.916430 0.557106 0.101365
H59   H     H_    0.474056 0.430783 0.427728 0.095459
H60   H     H_    0.498384 0.416430 0.557106 0.101367
H61   H     H_    0.967139 0.124245 0.370354 0.131579
H62   H     H_    0.017571 0.098170 0.627191 0.133542
H63   H     H_    0.467139 0.624244 0.370354 0.131572
H64   H     H_    0.517572 0.598170 0.627190 0.133544
H65   H     H_    0.977509 0.584747 0.393575 0.133746
H66   H     H_    0.070817 0.532401 0.635602 0.129771
H67   H     H_    0.477508 0.084747 0.393575 0.133745
H68   H     H_    0.570816 0.032401 0.635602 0.129881
O1    O     O_R   0.957020 0.451640 0.669920 -0.514551
O2    O     O_R   0.042980 0.451640 0.330080 -0.523403
O3    O     O_R   0.457020 0.951640 0.669920 -0.514502
O4    O     O_R   0.542980 0.951640 0.330080 -0.523406
O5    O     O_R   0.736470 0.210100 0.823360 -0.519574
O6    O     O_R   0.263530 0.210100 0.176640 -0.497522
O7    O     O_R   0.236470 0.710100 0.823360 -0.519753
O8    O     O_R   0.763530 0.710100 0.176640 -0.497463
O9    O     O_R   0.831960 0.093290 0.830130 -0.514554
O10   O     O_R   0.168040 0.093290 0.169870 -0.508839
O11   O     O_R   0.331960 0.593290 0.830130 -0.514393
O12   O     O_R   0.668040 0.593290 0.169870 -0.508773
O13   O     O_R   0.945600 0.250580 0.824860 -0.478429
O14   O     O_R   0.054400 0.250580 0.175140 -0.464414
O15   O     O_R   0.445600 0.750580 0.824860 -0.478548
O16   O     O_R   0.554400 0.750580 0.175140 -0.464441
O17   O     O_3   0.834640 0.334650 0.749500 -0.276573
O18   O     O_3   0.165360 0.334650 0.250500 -0.269801
O19   O     O_3   0.334640 0.834650 0.749500 -0.276544
O20   O     O_3   0.665360 0.834650 0.250500 -0.269767
O21   O     O_R   0.821450 0.543440 0.674610 -0.487036
O22   O     O_R   0.178550 0.543440 0.325390 -0.485354
O23   O     O_R   0.321450 0.043440 0.674610 -0.487038
O24   O     O_R   0.678550 0.043440 0.325390 -0.485354
O25   O     O_R   0.715320 0.458650 0.668100 -0.534799
O26   O     O_R   0.284680 0.458650 0.331900 -0.542906
O27   O     O_R   0.215320 0.958650 0.668100 -0.534799
O28   O     O_R   0.784680 0.958650 0.331900 -0.542909
O29   O     O_R   0.737170 0.209590 0.674530 -0.503661
O30   O     O_R   0.262830 0.209590 0.325470 -0.507295
O31   O     O_R   0.237170 0.709590 0.674530 -0.503726
O32   O     O_R   0.762830 0.709590 0.325470 -0.507305
O33   O     O_R   0.832710 0.092740 0.669580 -0.523921
O34   O     O_R   0.167290 0.092740 0.330420 -0.528607
O35   O     O_R   0.332710 0.592740 0.669580 -0.523913
O36   O     O_R   0.667290 0.592740 0.330420 -0.528611
O37   O     O_R   0.946290 0.250060 0.676040 -0.504969
O38   O     O_R   0.053710 0.250060 0.323960 -0.506623
O39   O     O_R   0.446290 0.750060 0.676040 -0.504980
O40   O     O_R   0.553710 0.750060 0.323960 -0.506636
O41   O     O_R   0.956270 0.452200 0.830470 -0.538057
O42   O     O_R   0.043730 0.452200 0.169530 -0.543889
O43   O     O_R   0.456270 0.952200 0.830470 -0.537868
O44   O     O_R   0.543730 0.952200 0.169530 -0.543936
O45   O     O_R   0.820760 0.543950 0.823440 -0.508641
O46   O     O_R   0.179240 0.543950 0.176560 -0.519673
O47   O     O_R   0.320760 0.043950 0.823440 -0.508655
O48   O     O_R   0.679240 0.043950 0.176560 -0.519627
O49   O     O_R   0.714570 0.459210 0.828640 -0.508532
O50   O     O_R   0.285430 0.459210 0.171360 -0.502202
O51   O     O_R   0.214570 0.959210 0.828640 -0.508486
O52   O     O_R   0.785430 0.959210 0.171360 -0.502236
N1    N     N_3   0.643070 0.996627 0.887042 -0.620417
H69   H     H_    0.605260 0.939552 0.907531 0.241315
H70   H     H_    0.619018 0.077063 0.871401 0.229263
N2    N     N_3   0.316866 0.273159 0.054194 -0.596214
H71   H     H_    0.358490 0.257560 0.088744 0.232833
H72   H     H_    0.338405 0.320104 0.011213 0.217700
N3    N     N_3   0.143732 0.494282 0.886794 -0.620772
H73   H     H_    0.106255 0.436485 0.907235 0.241608
H74   H     H_    0.119185 0.574052 0.870788 0.229328
N4    N     N_3   0.817264 0.772729 0.054329 -0.596124
H75   H     H_    0.858735 0.757032 0.089051 0.232803
H76   H     H_    0.839031 0.819496 0.011398 0.217434
N5    N     N_3   0.053489 0.153914 0.907952 -0.610847
H77   H     H_    0.031334 0.070376 0.920621 0.222033
H78   H     H_    0.107619 0.149072 0.915499 0.244537
N6    N     N_3   0.064398 0.132595 0.058788 -0.587391
H79   H     H_    0.114641 0.126021 0.036925 0.238110
H80   H     H_    0.035583 0.056064 0.044496 0.205167
N7    N     N_3   0.553640 0.654132 0.907907 -0.610600
H81   H     H_    0.531502 0.570563 0.920535 0.222066
H82   H     H_    0.607767 0.649336 0.915476 0.244606
N8    N     N_3   0.564613 0.632753 0.058736 -0.587301
H83   H     H_    0.614859 0.626314 0.036867 0.238072
H84   H     H_    0.535858 0.556163 0.044428 0.205242

loop_
_geom_bond_atom_site_label_1
_geom_bond_atom_site_label_2
_ccdc_geom_bond_type
Cr9   O37   S    
C47   O35   A    
C2    C123  S    
C90   O38   A    
Cr11  O39   S    
C69   N1    S    
C6    H2    S    
C94   C117  S    
C95   C99   A    
N3    H73   S    
C29   C33   A    
Cr8   O28   S    
N4    H75   S    
C113  O5    A    
C91   O3    A    
C3    O23   A    
Cr8   O8    S    
C50   H65   S    
C1    O21   A    
Cr10  O34   S    
C83   H27   S    
C70   C74   A    
C9    C121  A    
C17   H53   S    
C81   H25   S    
C21   C45   S    
N5    H78   S    
C80   C84   S    
C97   C105  S    
C15   C127  S    
C22   C130  A    
Cr9   O13   S    
C20   C132  S    
C41   C49   A    
C5    H1    S    
Cr1   O41   S    
C62   C66   A    
C17   C129  S    
C60   C76   A    
Cr8   O32   S    
C93   C102  A    
C43   C44   A    
C31   H63   S    
C37   C38   A    
C84   H24   S    
C66   C82   S    
C15   H41   S    
C78   C82   S    
C16   C20   S    
C70   N2    S    
Cr4   O48   S    
C55   H7    S    
C113  O9    A    
C112  O52   A    
C105  H33   S    
N2    H72   S    
C10   H38   S    
C18   C130  S    
C90   O2    A    
C101  N5    S    
C15   H47   S    
C107  H35   S    
Cr11  O15   S    
C10   C122  A    
C14   C126  S    
C57   C61   A    
C59   C63   A    
C98   C106  S    
C60   C64   A    
C1    C124  S    
C48   O36   A    
N8    H84   S    
C49   C53   A    
C51   C55   A    
Cr5   O25   S    
C127  C131  A    
C125  C129  A    
C5    C21   A    
Cr5   O5    S    
C126  C130  A    
Cr7   O19   S    
Cr9   O9    S    
C47   O31   A    
C88   C116  S    
C13   H43   S    
Cr7   O51   S    
C18   H50   S    
C97   C98   A    
C54   H6    S    
C53   C54   A    
C118  O14   A    
C121  C125  A    
C25   C90   S    
C64   C68   A    
C110  O46   A    
Cr10  O18   S    
C29   H61   S    
C74   H10   S    
C57   C73   A    
C20   H56   S    
C60   C109  S    
C117  O41   A    
C27   C44   A    
C78   H14   S    
C61   C77   S    
C29   C38   A    
Cr9   O33   S    
C107  C108  S    
C116  O8    A    
Cr7   O31   S    
C44   C52   A    
C105  H29   S    
N5    H77   S    
C53   H5    S    
C4    O24   A    
C114  O6    A    
C7    H3    S    
C92   O40   A    
C100  C108  S    
C23   C47   S    
C30   C34   A    
C24   C48   S    
Cr6   O18   S    
N6    H79   S    
C46   O34   A    
C39   C40   A    
C1    O25   A    
C83   H23   S    
C5    C9    A    
C61   C65   A    
C25   C38   A    
C123  C127  A    
C27   C40   A    
C8    C12   A    
Cr2   O22   S    
C23   C131  A    
N1    H70   S    
C21   C129  A    
C42   C50   A    
C93   C97   A    
C69   C85   A    
C58   C74   A    
C87   C115  S    
C62   C78   S    
C84   H28   S    
C66   C86   A    
C75   H11   S    
C19   H55   S    
C13   C17   S    
C85   C113  S    
Cr5   O29   S    
C112  O48   A    
C34   H58   S    
C7    C23   A    
C96   C100  A    
C8    C24   A    
C28   C91   S    
N4    H76   S    
Cr2   O18   S    
C9    H37   S    
C14   H46   S    
Cr7   O7    S    
Cr8   O52   S    
C104  N8    S    
N7    H81   S    
Cr11  O19   S    
C106  H34   S    
Cr5   O49   S    
C58   C62   A    
C55   C56   A    
C101  C102  A    
C45   O29   A    
C41   C42   A    
C96   C119  S    
C35   C36   A    
C48   O32   A    
C91   O39   A    
C15   C19   S    
C50   C54   A    
C89   O37   A    
C72   N4    S    
C115  O11   A    
C79   H15   S    
C80   H16   S    
C94   C98   A    
Cr9   O17   S    
C6    C22   A    
C31   C40   A    
C32   C39   A    
C80   H20   S    
C51   H68   S    
C2    O22   A    
Cr6   O50   S    
C18   H54   S    
C69   C73   A    
C56   H8    S    
C120  O16   A    
C124  C128  A    
Cr1   O45   S    
Cr3   O19   S    
C64   C80   S    
C8    H4    S    
C111  O47   A    
Cr10  O14   S    
C77   H17   S    
C58   C111  S    
C68   C84   S    
C49   H66   S    
Cr5   O17   S    
C45   O33   A    
C28   C39   A    
C76   H12   S    
C30   C37   A    
C116  O12   A    
C14   H44   S    
C24   C132  A    
C65   C81   S    
C77   C81   S    
C106  H30   S    
Cr1   O21   S    
C114  O10   A    
C71   C87   A    
C22   C46   S    
Cr8   O20   S    
C31   C35   A    
C46   O30   A    
C109  O49   A    
C32   C36   A    
C89   O1    A    
C82   H22   S    
Cr3   O47   S    
Cr12  O20   S    
C11   C123  A    
C102  N6    S    
C119  O43   A    
C25   C42   A    
C6    C10   A    
C26   C37   A    
C95   C120  S    
C4    O28   A    
C99   C107  S    
C105  C106  S    
C28   C43   A    
Cr2   O2    S    
C79   C83   S    
C43   C51   A    
C12   H40   S    
C107  H31   S    
C108  H32   S    
Cr11  O35   S    
C4    C121  S    
C92   O4    A    
Cr1   O17   S    
N2    H71   S    
C96   C103  A    
C103  C104  A    
Cr3   O43   S    
C13   C125  S    
C3    O27   A    
C82   H26   S    
C19   H51   S    
Cr10  O38   S    
N7    H82   S    
C14   C18   S    
C17   H49   S    
C72   C76   A    
C119  O15   A    
C63   C79   S    
C26   C89   S    
C7    C11   A    
Cr4   O20   S    
C117  O13   A    
N6    H80   S    
Cr11  O11   S    
N8    H83   S    
C57   C112  S    
C30   H62   S    
Cr4   O24   S    
C59   C110  S    
C13   H45   S    
C108  H36   S    
C118  O42   A    
Cr3   O3    S    
C94   C101  A    
C52   H67   S    
C16   H48   S    
N1    H69   S    
Cr6   O30   S    
C3    C122  S    
Cr2   O46   S    
Cr12  O40   S    
C115  O7    A    
C128  C132  A    
C103  N7    S    
C72   C88   A    
C19   C131  S    
C63   C67   A    
Cr12  O12   S    
Cr7   O27   S    
C11   H39   S    
Cr2   O42   S    
C2    O26   A    
C122  C126  A    
C120  O44   A    
C99   C100  A    
C12   C124  A    
C33   C34   A    
C27   C92   S    
C67   C83   S    
C16   C128  S    
C111  O51   A    
C78   H18   S    
Cr12  O36   S    
C68   C88   A    
C32   H64   S    
C93   C118  S    
C70   C86   A    
C59   C75   A    
C95   C104  A    
N3    H74   S    
Cr4   O44   S    
C79   H19   S    
C65   C85   A    
C67   C87   A    
C86   C114  S    
Cr1   O1    S    
C16   H42   S    
C71   C75   A    
C35   H59   S    
C33   H57   S    
Cr10  O10   S    
Cr6   O26   S    
Cr3   O23   S    
C109  O45   A    
C110  O50   A    
Cr6   O6    S    
C71   N3    S    
C73   H9    S    
C81   H21   S    
Cr12  O16   S    
C36   H60   S    
C20   H52   S    
C52   C56   A    
C26   C41   A    
C77   H13   S    
Cr4   O4    S    
