data_mof_unit_28277.cif
_audit_creation_date              2012-12-10T17:48:24-0500
_audit_creation_method            fapswitch 2.2
_symmetry_space_group_name_H-M    P1
_symmetry_Int_Tables_number       1
_space_group_crystal_system       triclinic
_cell_length_a                    13.882749
_cell_length_b                    14.711347
_cell_length_c                    14.877246
_cell_angle_alpha                 115.304941
_cell_angle_beta                  107.057375
_cell_angle_gamma                 72.167078
_cell_volume                      2567.91236824

loop_
_atom_site_label
_atom_site_type_symbol
_atom_type_description
_atom_site_fract_x
_atom_site_fract_y
_atom_site_fract_z
_atom_type_partial_charge
C1    C     C_R   0.511560 0.118866 0.687603 0.821788
C2    C     C_R   0.484752 0.881279 0.312243 0.824133
C3    C     C_R   0.474520 0.363072 0.918052 0.084736
C4    C     C_R   0.458800 0.644321 0.076284 0.092072
C5    C     C_R   0.496941 0.322675 0.994587 0.102890
C6    C     C_R   0.453445 0.681725 0.001345 0.105485
C7    C     C_R   0.456247 0.471569 0.944716 0.069829
C8    C     C_R   0.463517 0.537669 0.048718 0.081542
C9    C     C_R   0.481712 0.493919 0.122035 -0.217582
C10   C     C_R   0.435912 0.515955 0.871527 -0.180763
C11   C     C_R   0.497390 0.388609 0.095046 -0.212170
C12   C     C_R   0.438077 0.618136 0.899672 -0.193379
C13   C     C_R   0.305061 0.319641 0.360027 0.267626
C14   C     C_R   0.691980 0.693249 0.655343 0.256810
C15   C     C_R   0.341196 0.226077 0.375635 0.536921
C16   C     C_R   0.653113 0.784207 0.634137 0.546695
C17   C     C_R   0.495421 0.279689 0.479745 -0.046442
C18   C     C_R   0.511560 0.714429 0.515856 -0.053316
C19   C     C_R   0.457216 0.381200 0.479134 -0.063001
C20   C     C_R   0.535648 0.631559 0.549515 -0.056723
C21   C     C_R   0.359343 0.399719 0.418131 -0.034207
C22   C     C_R   0.629890 0.619624 0.616814 -0.030739
C23   C     C_R   0.687095 0.986484 0.503838 0.817371
C24   C     C_R   0.312862 0.013255 0.495728 0.792552
C25   C     C_R   0.511588 0.464614 0.535183 0.076304
C26   C     C_R   0.470996 0.559107 0.516808 0.082950
C27   C     C_R   0.365147 0.579693 0.472257 -0.034693
C28   C     C_R   0.601626 0.461606 0.611987 -0.029107
C29   C     C_R   0.312575 0.499674 0.421693 -0.253959
C30   C     C_R   0.658037 0.538397 0.650818 -0.243371
C31   C     C_1   0.207162 0.021009 0.493019 -0.135002
C32   C     C_1   0.792787 0.978299 0.505972 -0.191022
C33   C     C_2   0.012582 0.033461 0.488758 -0.162664
C34   C     C_2   0.987448 0.965048 0.509681 -0.160394
C35   C     C_1   0.881707 0.971674 0.507811 -0.001672
C36   C     C_1   0.118287 0.027165 0.490875 0.010728
C37   C     C_R   0.505824 0.186522 0.794054 -0.168658
C38   C     C_R   0.475694 0.814327 0.204513 -0.131520
C39   C     C_R   0.520638 0.216194 0.970350 -0.308170
C40   C     C_R   0.465842 0.781802 0.028553 -0.303681
C41   C     C_R   0.522800 0.147707 0.870396 0.449932
C42   C     C_R   0.481230 0.848218 0.131091 0.435655
C43   C     C_R   0.477343 0.292900 0.818115 -0.285593
C44   C     C_R   0.462999 0.714504 0.176622 -0.326918
Cu1   Cu    Cu3+1 0.526370 0.916390 0.524860 0.984817
Cu2   Cu    Cu3+1 0.473630 0.083610 0.475140 1.005304
H1    H     H_    0.046048 0.903898 0.528375 0.165885
H2    H     H_    0.953969 0.094607 0.470093 0.158187
H3    H     H_    0.513313 0.358297 0.153979 0.140414
H4    H     H_    0.428734 0.647270 0.841170 0.162326
H5    H     H_    0.456185 0.693626 0.235184 0.160975
H6    H     H_    0.457857 0.318982 0.756797 0.221636
H7    H     H_    0.538992 0.185631 0.029208 0.153312
H8    H     H_    0.468340 0.805129 0.969628 0.125762
H9    H     H_    0.488604 0.538180 0.202016 0.137033
H10   H     H_    0.420406 0.473775 0.791293 0.185111
H11   H     H_    0.231595 0.517420 0.389215 0.171012
H12   H     H_    0.723313 0.536425 0.712131 0.176220
H13   H     H_    0.448291 0.720310 0.454412 0.156016
H14   H     H_    0.572906 0.255618 0.514951 0.178285
N1    N     N_R   0.433980 0.209250 0.437830 -0.246022
N2    N     N_R   0.566020 0.790750 0.562170 -0.247565
O1    O     O_R   0.534760 0.019630 0.662610 -0.493239
O2    O     O_R   0.465240 0.980370 0.337390 -0.540299
O3    O     O_R   0.490220 0.160840 0.620610 -0.568548
O4    O     O_R   0.509780 0.839160 0.379390 -0.603149
O5    O     O_R   0.663260 0.919400 0.523940 -0.584402
O6    O     O_R   0.336740 0.080600 0.476060 -0.524761
O7    O     O_R   0.618720 0.060610 0.481950 -0.571680
O8    O     O_R   0.381280 0.939390 0.518050 -0.569488
O9    O     O_3   0.210524 0.335319 0.297196 -0.559594
C45   C     C_3   0.225520 0.341114 0.209557 0.049710
H15   H     H_    0.294238 0.284473 0.180212 0.112347
H16   H     H_    0.235168 0.418901 0.225134 0.150704
C46   C     C_3   0.131202 0.320407 0.126206 -0.785581
H17   H     H_    0.061224 0.376263 0.152732 0.256276
H18   H     H_    0.140832 0.328436 0.058607 0.199499
H19   H     H_    0.121239 0.241209 0.104356 0.241099
O10   O     O_3   0.784855 0.681885 0.721375 -0.577765
C47   C     C_3   0.860709 0.608297 0.665633 0.044468
H20   H     H_    0.860615 0.622059 0.597530 0.120059
H21   H     H_    0.848846 0.529027 0.639660 0.149346
C48   C     C_3   0.966732 0.612906 0.733069 -0.783169
H22   H     H_    0.969270 0.599282 0.801702 0.252125
H23   H     H_    0.026166 0.552942 0.691173 0.207917
H24   H     H_    0.984478 0.689298 0.756254 0.242444
C49   C     C_2   0.300370 0.684750 0.490267 0.314498
H25   H     H_    0.233099 0.697995 0.434070 0.061441
O11   O     O_2   0.317588 0.755903 0.570316 -0.544729
C50   C     C_2   0.633449 0.391705 0.667977 0.306448
H26   H     H_    0.714705 0.364045 0.693039 0.071413
O12   O     O_2   0.569776 0.370111 0.692794 -0.566599
O13   O     O_3   0.513460 0.940261 0.164500 -0.566290
C51   C     C_3   0.471366 0.992590 0.096848 0.064350
H27   H     H_    0.387534 0.993423 0.067774 0.110941
H28   H     H_    0.513536 0.956814 0.033041 0.166791
C52   C     C_3   0.485363 0.103094 0.152242 -0.817173
H29   H     H_    0.567736 0.105628 0.165991 0.252250
H30   H     H_    0.438322 0.149702 0.106258 0.175718
H31   H     H_    0.460466 0.136980 0.226172 0.236016
O14   O     O_3   0.543593 0.043079 0.848432 -0.533441
C53   C     C_3   0.451933 0.015720 0.841927 0.069844
H32   H     H_    0.388028 0.039601 0.785270 0.137551
H33   H     H_    0.427877 0.051959 0.916767 0.113187
C54   C     C_3   0.469918 0.899592 0.808810 -0.687370
H34   H     H_    0.540008 0.870945 0.856812 0.235435
H35   H     H_    0.402541 0.878730 0.815339 0.187998
H36   H     H_    0.479587 0.862067 0.728812 0.275433
O15   O     O_3   0.687439 0.874298 0.698515 -0.517406
C55   C     C_3   0.792505 0.868194 0.703726 0.160574
H37   H     H_    0.797350 0.927247 0.678600 0.146833
H38   H     H_    0.832647 0.793967 0.654143 0.106446
C56   C     C_3   0.848960 0.896028 0.813514 -0.749924
H39   H     H_    0.931360 0.891638 0.817713 0.179603
H40   H     H_    0.814240 0.975692 0.859324 0.248107
H41   H     H_    0.843843 0.843129 0.846337 0.287935
O16   O     O_3   0.274995 0.159724 0.343255 -0.534087
C57   C     C_3   0.261408 0.104518 0.237473 0.110361
H42   H     H_    0.314371 0.028396 0.221109 0.170681
H43   H     H_    0.275532 0.142716 0.193975 0.125300
C58   C     C_3   0.151965 0.086617 0.198272 -0.790659
H44   H     H_    0.095950 0.161424 0.214572 0.273794
H45   H     H_    0.140147 0.043058 0.115199 0.188968
H46   H     H_    0.138144 0.041778 0.235626 0.245467

loop_
_geom_bond_atom_site_label_1
_geom_bond_atom_site_label_2
_ccdc_geom_bond_type
C7    C10   A    
C49   H25   S    
O13   C51   S    
C47   H20   S    
C27   C29   A    
C42   O13   S    
C23   O7    A    
C4    C8    A    
C52   H29   S    
C24   O8    A    
C7    C8    A    
C39   C41   A    
Cu1   Cu2   S    
C25   C28   A    
C38   C44   A    
C54   H35   S    
C3    C43   A    
C26   C27   A    
O14   C53   S    
C19   C21   A    
C5    C11   A    
C3    C7    A    
C47   C48   S    
C6    C12   A    
C53   H33   S    
C43   H6    S    
Cu1   N2    S    
C33   C36   S    
C53   C54   S    
C34   C35   S    
C23   O5    A    
C55   H37   S    
C58   H46   S    
C17   N1    A    
C57   H42   S    
C8    C9    A    
Cu2   O7    S    
Cu1   O5    S    
C1    O3    A    
C9    H9    S    
C10   H10   S    
C18   C20   A    
C1    C37   S    
C56   H41   S    
C40   C42   A    
C51   H27   S    
C16   N2    A    
C45   C46   S    
C1    O1    A    
C52   H30   S    
C2    O2    A    
C16   O15   S    
C57   H43   S    
C54   H36   S    
Cu2   N1    S    
C32   C35   T    
Cu2   O3    S    
C45   H16   S    
C18   N2    A    
C4    C44   A    
C51   C52   S    
C3    C5    A    
C25   C26   A    
C21   C29   A    
Cu1   O1    S    
C15   O16   S    
Cu2   O2    S    
C57   C58   S    
C37   C43   A    
C51   H28   S    
C46   H17   S    
Cu2   O6    S    
C11   H3    S    
C46   H18   S    
C2    C38   S    
C50   O12   D    
C48   H22   S    
C33   C34   D    
C15   N1    A    
C13   C21   A    
C14   O10   S    
C27   C49   S    
C9    C11   A    
C55   C56   S    
C58   H44   S    
C10   C12   A    
C44   H5    S    
C47   H21   S    
C48   H23   S    
C29   H11   S    
C40   H8    S    
C49   O11   D    
C14   C16   A    
C4    C6    A    
C52   H31   S    
C56   H39   S    
C5    C39   A    
C22   C30   A    
Cu1   O8    S    
C20   C22   A    
C45   H15   S    
C2    O4    A    
C12   H4    S    
C38   C42   A    
C13   O9    S    
C54   H34   S    
C23   C32   S    
C14   C22   A    
C13   C15   A    
C24   C31   S    
O9    C45   S    
O16   C57   S    
C50   H26   S    
C39   H7    S    
C20   C26   A    
C30   H12   S    
C28   C30   A    
C17   C19   A    
C41   O14   S    
C6    C40   A    
C37   C41   A    
C53   H32   S    
C19   C25   A    
C46   H19   S    
C55   H38   S    
C58   H45   S    
C24   O6    A    
C17   H14   S    
O10   C47   S    
C18   H13   S    
C48   H24   S    
Cu1   O4    S    
C33   H2    S    
C31   C36   T    
C28   C50   S    
C34   H1    S    
O15   C55   S    
C56   H40   S    
