data_mof_unit_43437.cif
_audit_creation_date              2012-12-10T19:44:35-0500
_audit_creation_method            fapswitch 2.2
_symmetry_space_group_name_H-M    P1
_symmetry_Int_Tables_number       1
_space_group_crystal_system       triclinic
_cell_length_a                    8.593169
_cell_length_b                    14.81759
_cell_length_c                    14.23752
_cell_angle_alpha                 89.594661
_cell_angle_beta                  97.12794
_cell_angle_gamma                 90.721453
_cell_volume                      1798.6832078

loop_
_atom_site_label
_atom_site_type_symbol
_atom_type_description
_atom_site_fract_x
_atom_site_fract_y
_atom_site_fract_z
_atom_type_partial_charge
C1    C     C_R   0.497024 0.326886 0.499880 0.887483
C2    C     C_R   0.378900 0.460009 0.887227 -0.205318
C3    C     C_R   0.501228 0.498602 0.053363 0.095867
C4    C     C_R   0.502394 0.499461 0.946979 0.095862
C5    C     C_R   0.202268 0.497478 0.476497 0.930431
C6    C     C_R   0.797782 0.503283 0.523489 0.947981
C7    C     C_2   0.040759 0.479225 0.469186 -0.282181
C8    C     C_2   0.959433 0.522010 0.530592 -0.266047
C9    C     C_R   0.349150 0.099578 0.566372 0.014012
C10   C     C_R   0.318347 0.893945 0.427854 0.008026
C11   C     C_R   0.389248 0.191003 0.568698 -0.204932
C12   C     C_R   0.497972 0.672625 0.499747 0.886515
C13   C     C_R   0.357543 0.802908 0.428232 -0.200705
C14   C     C_R   0.468063 0.229990 0.497568 -0.104048
C15   C     C_R   0.470317 0.768350 0.498343 -0.104538
C16   C     C_R   0.503660 0.177497 0.421098 0.214995
C17   C     C_R   0.543898 0.823817 0.570474 0.190337
C18   C     C_R   0.462314 0.086733 0.418174 -0.210301
C19   C     C_R   0.508539 0.914808 0.568798 -0.213013
C20   C     C_R   0.390596 0.047362 0.491380 -0.046226
C21   C     C_R   0.397210 0.949841 0.498367 -0.038339
C22   C     C_2   0.981212 0.399163 0.410827 0.409794
C23   C     C_R   0.425138 0.429968 0.100673 -0.257043
C24   C     C_2   0.019186 0.602369 0.588598 0.444134
C25   C     C_2   0.266207 0.058973 0.642265 0.392335
C26   C     C_2   0.196346 0.929913 0.354537 0.403780
C27   C     C_3   0.751851 0.191069 0.360502 -0.750336
C28   C     C_3   0.609393 0.779321 0.733515 -0.684311
C29   C     C_2   0.671496 0.637508 0.263240 0.434399
C30   C     C_2   0.253950 0.407653 0.731148 0.444302
C31   C     C_R   0.625077 0.539862 0.903299 -0.254058
C32   C     C_R   0.424526 0.432496 0.199632 0.042639
C33   C     C_R   0.620701 0.540182 0.803953 0.025183
C34   C     C_R   0.578113 0.566744 0.208485 0.108378
C35   C     C_R   0.380398 0.458505 0.788355 0.107123
C36   C     C_R   0.575874 0.567599 0.109291 -0.204988
H1    H     H_    0.358095 0.231991 0.625945 0.188335
H2    H     H_    0.281371 0.429111 0.917239 0.179413
H3    H     H_    0.873074 0.365127 0.422499 0.095773
H4    H     H_    0.125528 0.637897 0.575321 0.070112
H5    H     H_    0.228617 0.988774 0.638421 0.075913
H6    H     H_    0.160217 0.999687 0.356643 0.073021
H7    H     H_    0.533882 0.200889 0.282036 0.231876
H8    H     H_    0.765635 0.117654 0.348888 0.239696
H9    H     H_    0.808289 0.208762 0.432607 0.236528
H10   H     H_    0.811966 0.228994 0.307647 0.266712
H11   H     H_    0.765204 0.824920 0.643997 0.239043
H12   H     H_    0.298173 0.758159 0.375051 0.201819
H13   H     H_    0.584162 0.846274 0.762533 0.225125
H14   H     H_    0.703431 0.746986 0.782398 0.242538
H15   H     H_    0.502450 0.735910 0.729653 0.253769
H16   H     H_    0.722719 0.625617 0.335045 0.117750
H17   H     H_    0.274368 0.375816 0.666170 0.103640
H18   H     H_    0.496769 0.045222 0.361963 0.162231
H19   H     H_    0.571949 0.959111 0.620957 0.158589
H20   H     H_    0.367745 0.373647 0.062166 0.151402
H21   H     H_    0.725634 0.570134 0.945155 0.154795
H22   H     H_    0.364862 0.379516 0.234323 0.164986
H23   H     H_    0.715571 0.571785 0.772089 0.191172
H24   H     H_    0.634194 0.622181 0.076158 0.179491
N1    N     N_R   0.500000 0.499980 0.252470 -0.141685
N2    N     N_R   0.500000 0.500020 0.747530 -0.145090
N3    N     N_2   0.587567 0.214279 0.349465 -0.298452
N4    N     N_2   0.660534 0.789552 0.640904 -0.281302
O1    O     O_R   0.500010 0.369070 0.579480 -0.654192
O2    O     O_2   0.947513 0.631139 0.650766 -0.563207
O3    O     O_2   0.237906 0.103547 0.709823 -0.550152
O4    O     O_2   0.133791 0.881873 0.291051 -0.532231
O5    O     O_2   0.696100 0.710581 0.227316 -0.557847
O6    O     O_2   0.124646 0.398742 0.757506 -0.566180
O7    O     O_R   0.499990 0.630930 0.420520 -0.655488
O8    O     O_R   0.500010 0.369060 0.420520 -0.592584
O9    O     O_R   0.499990 0.630940 0.579480 -0.596249
O10   O     O_R   0.271750 0.500000 0.560890 -0.677450
O11   O     O_R   0.728250 0.500000 0.439110 -0.682154
O12   O     O_R   0.271750 0.499990 0.401930 -0.564160
O13   O     O_R   0.728250 0.500010 0.598070 -0.555873
O14   O     O_2   0.054976 0.369023 0.350289 -0.571852
Zn1   Zn    Zn3+2 0.500000 0.500010 0.606140 0.963139
Zn2   Zn    Zn3+2 0.500000 0.499990 0.393860 0.962089

loop_
_geom_bond_atom_site_label_1
_geom_bond_atom_site_label_2
_ccdc_geom_bond_type
C2    C35   A    
O1    Zn1   S    
C3    C23   A    
C28   H15   S    
C25   O3    D    
C32   H22   S    
H7    N3    S    
C7    C8    D    
C30   C35   S    
C19   C21   A    
C32   N1    A    
C17   N4    S    
C11   C14   A    
N1    Zn2   S    
C5    O10   A    
C11   H1    S    
C17   C19   A    
C28   H14   S    
C27   H8    S    
C33   N2    A    
C1    O1    A    
C31   C33   A    
C16   N3    S    
O11   Zn2   S    
C18   C20   A    
C24   O2    D    
C8    C24   S    
C10   C26   S    
C33   H23   S    
C12   O9    A    
O7    Zn2   S    
C30   O6    D    
C29   O5    D    
O13   Zn1   S    
C10   C21   A    
C30   H17   S    
C1    O8    A    
C9    C25   S    
N2    Zn1   S    
C23   H20   S    
C22   O14   D    
C25   H5    S    
H11   N4    S    
C5    C7    S    
C6    O13   A    
C6    C8    S    
C29   C34   S    
C34   N1    A    
C2    C4    A    
C28   H13   S    
C2    H2    S    
C9    C20   A    
C12   C15   S    
O9    Zn1   S    
C9    C11   A    
C27   N3    S    
C28   N4    S    
C27   H10   S    
C12   O7    A    
O10   Zn1   S    
C13   C15   A    
C14   C16   A    
C3    C4    S    
C26   H6    S    
C19   H19   S    
C15   C17   A    
O12   Zn2   S    
C36   H24   S    
C10   C13   A    
C13   H12   S    
C7    C22   S    
C26   O4    D    
C23   C32   A    
C31   H21   S    
C5    O12   A    
O8    Zn2   S    
C27   H9    S    
C3    C36   A    
C22   H3    S    
C24   H4    S    
C35   N2    A    
C34   C36   A    
C4    C31   A    
C18   H18   S    
C20   C21   S    
C16   C18   A    
C1    C14   S    
C29   H16   S    
C6    O11   A    
