data_mof_unit_30287.cif
_audit_creation_date              2013-03-05T16:48:20-0500
_audit_creation_method            fapswitch 2.2
_symmetry_space_group_name_H-M    P1
_symmetry_Int_Tables_number       1
_space_group_crystal_system       triclinic
_cell_length_a                    15.045638
_cell_length_b                    10.807192
_cell_length_c                    13.695528
_cell_angle_alpha                 89.995404
_cell_angle_beta                  90.127569
_cell_angle_gamma                 89.227693
_cell_volume                      2226.70006426

loop_
_atom_site_label
_atom_site_type_symbol
_atom_site_description
_atom_site_fract_x
_atom_site_fract_y
_atom_site_fract_z
_atom_type_partial_charge
O1    O     O_R   0.500000 0.319630 0.582270 -0.584824
O2    O     O_R   0.500000 0.680370 0.417730 -0.583616
O3    O     O_R   0.499990 0.319660 0.417730 -0.589399
O4    O     O_R   0.500010 0.680340 0.582270 -0.590583
C1    C     C_R   0.498639 0.262223 0.499904 0.823235
C2    C     C_R   0.502112 0.737778 0.500054 0.835256
O5    O     O_R   0.370260 0.499960 0.582280 -0.590970
O6    O     O_R   0.629740 0.500040 0.417720 -0.589114
O7    O     O_R   0.370250 0.499990 0.417740 -0.548053
O8    O     O_R   0.629750 0.500010 0.582260 -0.550378
C3    C     C_R   0.328763 0.501975 0.499862 0.868434
C4    C     C_R   0.671147 0.496222 0.500175 0.861029
Cu1   Cu    Cu3+1 0.500010 0.499980 0.597420 0.979521
Cu2   Cu    Cu3+1 0.499990 0.500020 0.402580 0.985335
C5    C     C_R   0.811305 0.590954 0.455466 -0.284408
C6    C     C_R   0.188052 0.418529 0.555269 -0.288546
C7    C     C_R   0.767554 0.494427 0.501276 -0.162543
C8    C     C_R   0.232204 0.506422 0.500032 -0.167637
C9    C     C_R   0.815396 0.398013 0.547525 0.282710
C10   C     C_R   0.184660 0.596135 0.445615 0.288628
C11   C     C_R   0.908956 0.405720 0.555734 -0.095075
C12   C     C_R   0.090695 0.601913 0.452444 -0.100442
C13   C     C_R   0.952985 0.502481 0.505610 -0.009424
C14   C     C_R   0.046542 0.506849 0.504517 -0.008086
C15   C     C_R   0.903559 0.594381 0.455557 0.054723
C16   C     C_R   0.095859 0.415585 0.555432 0.056002
C17   C     C_R   0.960473 0.319838 0.611522 0.427812
C18   C     C_R   0.038792 0.698652 0.409365 0.426197
C19   C     C_R   0.052758 0.323651 0.608063 -0.192705
C20   C     C_R   0.946546 0.691162 0.408570 -0.183859
H1    H     H_    0.772979 0.663549 0.419389 0.153025
H2    H     H_    0.226085 0.349513 0.595802 0.155130
H3    H     H_    0.091041 0.256176 0.649757 0.168545
H4    H     H_    0.908087 0.764428 0.373658 0.175136
H5    H     H_    0.264224 0.301471 0.148660 0.162581
H6    H     H_    0.736514 0.698323 0.851586 0.156412
C21   C     C_R   0.275166 0.250532 0.300016 -0.087512
C22   C     C_R   0.726284 0.749539 0.700228 -0.096540
H7    H     H_    0.214687 0.298942 0.320939 0.156126
H8    H     H_    0.786957 0.701382 0.679629 0.147700
C23   C     C_R   0.325315 0.187109 0.370272 -0.152209
C24   C     C_R   0.676404 0.812972 0.629749 -0.130300
H9    H     H_    0.302783 0.187246 0.445367 0.126050
H10   H     H_    0.699326 0.813198 0.554816 0.130227
C25   C     C_R   0.404677 0.125229 0.344453 0.029702
C26   C     C_R   0.596893 0.874666 0.655176 0.026572
C27   C     C_R   0.433228 0.127043 0.245462 0.432578
C28   C     C_R   0.567859 0.872679 0.753984 0.430920
C29   C     C_R   0.381233 0.189981 0.175902 -0.119122
C30   C     C_R   0.619521 0.809617 0.823770 -0.114428
H11   H     H_    0.402458 0.192616 0.100428 0.165360
H12   H     H_    0.597925 0.806819 0.899111 0.164672
C31   C     C_R   0.303077 0.251952 0.203001 -0.181620
C32   C     C_R   0.697874 0.747847 0.797067 -0.193352
C33   C     C_R   0.461662 0.934491 0.423455 -0.169734
C34   C     C_R   0.541011 0.065698 0.575588 -0.167507
H13   H     H_    0.429974 0.883681 0.364982 0.198619
H14   H     H_    0.573619 0.116728 0.633346 0.197115
C35   C     C_R   0.504199 0.871643 0.500087 -0.084614
C36   C     C_R   0.497533 0.128420 0.499532 -0.083815
C37   C     C_R   0.545119 0.937372 0.576640 -0.036057
C38   C     C_R   0.456884 0.062703 0.422806 -0.036698
C39   C     C_R   0.547647 0.411676 0.793680 0.032705
C40   C     C_R   0.451052 0.587267 0.206586 0.048862
N1    N     N_R   0.499960 0.499900 0.743810 -0.195631
N2    N     N_R   0.500040 0.500100 0.256190 -0.199624
C41   C     C_R   0.451613 0.587766 0.793184 0.031593
C42   C     C_R   0.548725 0.412716 0.206802 0.031108
C43   C     C_R   0.450480 0.590028 0.896281 -0.018949
C44   C     C_R   0.549328 0.410100 0.103786 -0.017468
C45   C     C_R   0.499765 0.499980 0.948265 0.079740
C46   C     C_R   0.499755 0.499947 0.051880 0.075297
C47   C     C_R   0.548876 0.409709 0.896671 -0.019529
C48   C     C_R   0.450160 0.589723 0.103531 -0.020308
C49   C     C_R   0.401462 0.679754 0.948423 -0.172015
C50   C     C_R   0.598025 0.320066 0.051670 -0.167497
C51   C     C_R   0.401176 0.679476 0.051104 -0.162541
C52   C     C_R   0.597706 0.319763 0.949040 -0.180264
H15   H     H_    0.584287 0.342161 0.753293 0.179824
H16   H     H_    0.412846 0.655200 0.247376 0.176615
H17   H     H_    0.413917 0.656265 0.752210 0.147066
H18   H     H_    0.586839 0.344623 0.247742 0.149318
H19   H     H_    0.363295 0.750066 0.909813 0.170770
H20   H     H_    0.636267 0.249813 0.090262 0.171990
H21   H     H_    0.362736 0.749536 0.089497 0.174250
H22   H     H_    0.635759 0.249305 0.910635 0.165259
N3    N     N_R   0.770390 0.286126 0.572597 0.111279
O9    O     O_R   0.712377 0.285185 0.642709 -0.421943
O10   O     O_R   0.790460 0.183363 0.527798 -0.326253
N4    N     N_R   0.231997 0.676558 0.381302 0.117039
O11   O     O_R   0.291056 0.751624 0.416003 -0.425153
O12   O     O_R   0.218086 0.671946 0.287579 -0.339131
O13   O     O_3   0.923831 0.235224 0.674303 -0.671531
H23   H     H_    0.875566 0.278537 0.710257 0.347101
O14   O     O_3   0.074754 0.804965 0.371919 -0.664279
H24   H     H_    0.119553 0.833735 0.419645 0.350233
O15   O     O_3   0.511408 0.072158 0.213672 -0.753469
H25   H     H_    0.546675 0.042643 0.270236 0.330395
O16   O     O_3   0.489551 0.927581 0.785384 -0.754834
H26   H     H_    0.454775 0.957809 0.728684 0.327799

loop_
_geom_bond_atom_site_label_1
_geom_bond_atom_site_label_2
_geom_bond_distance
_ccdc_geom_bond_type
N2    C42   1.367322 A    
N3    O9    1.299220 A    
C39   N1    1.367334 A    
C3    C8    1.452934 S    
O13   H23   0.990636 S    
C33   C35   1.399134 A    
H5    C31   1.082391 S    
C23   H9    1.083614 S    
O14   H24   0.990932 S    
C50   H20   1.083359 S    
O15   H25   0.988428 S    
C27   C29   1.401582 A    
C39   H15   1.079130 S    
O5    C3    1.288746 A    
C30   C32   1.396371 A    
C18   O14   1.376130 S    
O1    C1    1.287690 A    
C9    C11   1.415472 A    
C14   C16   1.409776 A    
C22   C24   1.395583 A    
C9    N3    1.435820 S    
C5    C15   1.389020 A    
C17   C19   1.390570 A    
C33   C38   1.386533 A    
C19   H3    1.084765 S    
C25   C38   1.485579 S    
C36   C38   1.411236 A    
C24   C26   1.406172 A    
O4    Cu1   1.960182 S    
C43   C45   1.407801 A    
C40   C48   1.411671 A    
N3    O10   1.301122 A    
C29   H11   1.083030 S    
C48   C51   1.406353 A    
C4    C7    1.450424 S    
C30   H12   1.083028 S    
C47   C52   1.406190 A    
C21   C31   1.394490 A    
C52   H22   1.083466 S    
C28   C30   1.401572 A    
C11   C17   1.422620 A    
C51   H21   1.083445 S    
C12   C18   1.423650 A    
Cu1   Cu2   2.668437 S    
C40   H16   1.082426 S    
O2    C2    1.287487 A    
C24   H10   1.083389 S    
C25   C27   1.423278 A    
C6    C16   1.387894 A    
C26   C28   1.423174 A    
C35   C37   1.411345 A    
C20   H4    1.084787 S    
C26   C37   1.484877 S    
C46   C48   1.407651 A    
C45   C47   1.407126 A    
Cu1   N1    2.004889 S    
C39   C47   1.410743 A    
N1    C41   1.368130 A    
C10   N4    1.434526 S    
C34   C36   1.399036 A    
C41   C43   1.412313 A    
C40   N2    1.367892 A    
O7    Cu2   1.963494 S    
C49   C51   1.406295 A    
N4    O12   1.301150 A    
O16   H26   0.988441 S    
C22   C32   1.394538 A    
O6    C4    1.288894 A    
Cu2   N2    2.004890 S    
O7    C3    1.287572 A    
O3    Cu2   1.960182 S    
O8    C4    1.286799 A    
O4    C2    1.286370 A    
C10   C12   1.417589 A    
C41   H17   1.082490 S    
C33   H13   1.084240 S    
C44   C50   1.405800 A    
C12   C14   1.423304 A    
C17   O13   1.376590 S    
O1    Cu1   1.960107 S    
C15   C20   1.395118 A    
C5    C7    1.391185 A    
C28   O16   1.381512 S    
O6    Cu2   1.962696 S    
C1    C36   1.446370 S    
C2    C35   1.447463 S    
C50   C52   1.405576 A    
O3    C1    1.285544 A    
O8    Cu1   1.963495 S    
C5    H1    1.085649 S    
C6    H2    1.085792 S    
C27   O15   1.381489 S    
C42   H18   1.082538 S    
C11   C13   1.422739 A    
C45   C46   1.419056 A    
C21   H7    1.082674 S    
C22   H8    1.082660 S    
C49   H19   1.083340 S    
N4    O11   1.300448 A    
C29   C31   1.396341 A    
C18   C20   1.391364 A    
C7    C9    1.408071 A    
C34   H14   1.084529 S    
C43   C49   1.406175 A    
C8    C10   1.409245 A    
C13   C15   1.409625 A    
C21   C23   1.395587 A    
O2    Cu2   1.960108 S    
H6    C32   1.082387 S    
C13   C14   1.409165 A    
O5    Cu1   1.962696 S    
C16   C19   1.395203 A    
C6    C8    1.391036 A    
C42   C44   1.411185 A    
C23   C25   1.406554 A    
C34   C37   1.387459 A    
C44   C46   1.408012 A    
