data_mof_unit_44933.cif
_audit_creation_date              2012-10-26T20:42:30-0400
_audit_creation_method            fapswitch 2.2
_symmetry_space_group_name_H-M    P1
_symmetry_Int_Tables_number       1
_space_group_crystal_system       triclinic
_cell_length_a                    10.802332
_cell_length_b                    9.523129
_cell_length_c                    10.932484
_cell_angle_alpha                 89.831893
_cell_angle_beta                  90.127153
_cell_angle_gamma                 90.00539
_cell_volume                      1124.63889198

loop_
_atom_site_label
_atom_site_type_symbol
_atom_type_description
_atom_site_fract_x
_atom_site_fract_y
_atom_site_fract_z
_atom_type_partial_charge
C1    C     C_R   0.262607 0.499972 0.500161 0.558674
C2    C     C_R   0.935098 0.433848 0.404243 -0.047073
C3    C     C_R   0.871349 0.499905 0.500415 -0.027828
C4    C     C_R   0.128611 0.500032 0.500320 -0.027005
C5    C     C_R   0.935478 0.566062 0.596608 -0.052306
C6    C     C_R   0.064898 0.566360 0.596438 -0.048959
C7    C     C_R   0.416419 0.074633 0.431156 0.013604
C8    C     C_R   0.584108 0.074141 0.568158 0.020252
C9    C     C_R   0.416509 0.925848 0.431042 0.022525
C10   C     C_R   0.583819 0.925387 0.568537 0.024856
C11   C     C_3   0.657142 0.303600 0.876700 -0.349956
C12   C     C_R   0.737384 0.499947 0.500262 0.551748
C13   C     C_3   0.509888 0.235544 0.110566 -0.339069
C14   C     C_1   0.131177 0.370349 0.303336 0.218995
C15   C     C_1   0.867957 0.370278 0.303336 0.232033
C16   C     C_1   0.868447 0.629511 0.697408 0.206290
C17   C     C_1   0.132389 0.630953 0.696664 0.230414
C18   C     C_R   0.503980 0.499581 0.264887 0.568709
C19   C     C_R   0.502431 0.499531 0.734677 0.567950
C20   C     C_2   0.560910 0.399360 0.932635 -0.011313
C21   C     C_2   0.532296 0.383187 0.063311 0.001844
C22   C     C_2   0.498835 0.496522 0.866881 -0.078514
C23   C     C_2   0.524166 0.499950 0.133147 -0.082771
C24   C     C_R   0.064428 0.433843 0.404241 -0.048953
Cu1   Cu    Cu3+1 0.500000 0.640660 0.500000 0.983616
Cu2   Cu    Cu3+1 0.500000 0.359340 0.500000 0.964242
H1    H     H_    0.435696 0.569496 0.910630 0.105195
H2    H     H_    0.510803 0.157673 0.035204 0.123523
H3    H     H_    0.583021 0.204738 0.176798 0.177143
H4    H     H_    0.417292 0.228376 0.153750 0.166339
H5    H     H_    0.540997 0.602315 0.092151 0.095709
H6    H     H_    0.349513 0.130800 0.375917 0.128812
H7    H     H_    0.652028 0.129863 0.622144 0.108307
H8    H     H_    0.349701 0.870039 0.375645 0.120924
H9    H     H_    0.650933 0.869245 0.623560 0.135380
H10   H     H_    0.716016 0.255405 0.948894 0.154194
H11   H     H_    0.611112 0.217747 0.825610 0.138546
H12   H     H_    0.719139 0.363777 0.814820 0.146322
N1    N     N_R   0.500000 0.852070 0.500000 -0.229314
N2    N     N_R   0.500000 0.147940 0.500000 -0.230068
N3    N     N_1   0.184100 0.319910 0.222733 -0.313014
N4    N     N_1   0.814819 0.319707 0.222705 -0.303234
N5    N     N_1   0.814982 0.679851 0.777748 -0.302809
N6    N     N_1   0.186242 0.682336 0.776484 -0.282381
O1    O     O_R   0.319640 0.618740 0.499990 -0.498925
O2    O     O_R   0.680360 0.618740 0.500010 -0.499674
O3    O     O_R   0.319620 0.381170 0.499990 -0.497133
O4    O     O_R   0.680380 0.381170 0.500010 -0.506020
O5    O     O_R   0.500000 0.618750 0.321940 -0.505583
O6    O     O_R   0.500000 0.618750 0.678060 -0.484352
O7    O     O_R   0.499970 0.381180 0.321940 -0.497208
O8    O     O_R   0.500030 0.381180 0.678060 -0.502684

loop_
_geom_bond_atom_site_label_1
_geom_bond_atom_site_label_2
_ccdc_geom_bond_type
C11   H12   S    
C7    N2    A    
C13   H2    S    
C10   H9    S    
C7    H6    S    
Cu2   O8    S    
C19   O6    A    
Cu2   O4    S    
C12   O4    A    
C1    C4    S    
Cu2   N2    S    
C2    C3    A    
C17   N6    T    
C13   C21   S    
Cu2   O7    S    
Cu1   N1    S    
C2    C15   S    
C10   N1    A    
C16   N5    T    
C1    O1    A    
C5    C6    A    
Cu2   O3    S    
C14   N3    T    
C19   O8    A    
C13   H3    S    
C11   H10   S    
C20   C22   D    
C18   O7    A    
C22   H1    S    
C21   C23   D    
C2    C24   A    
C9    H8    S    
C4    C24   A    
Cu1   O5    S    
C11   C20   S    
C18   C23   S    
Cu1   O1    S    
C13   H4    S    
C9    N1    A    
C19   C22   S    
C20   C21   S    
C15   N4    T    
C4    C6    A    
C14   C24   S    
C7    C9    A    
C6    C17   S    
Cu1   O6    S    
C1    O3    A    
C5    C16   S    
C3    C12   S    
C8    N2    A    
Cu1   Cu2   S    
Cu1   O2    S    
C11   H11   S    
C8    C10   A    
C18   O5    A    
C8    H7    S    
C3    C5    A    
C12   O2    A    
C23   H5    S    
