data_mof_unit_39787.cif
_audit_creation_date              2013-03-05T16:09:56-0500
_audit_creation_method            fapswitch 2.2
_symmetry_space_group_name_H-M    P1
_symmetry_Int_Tables_number       1
_space_group_crystal_system       triclinic
_cell_length_a                    10.66627
_cell_length_b                    9.92836
_cell_length_c                    10.758679
_cell_angle_alpha                 90.055991
_cell_angle_beta                  91.419109
_cell_angle_gamma                 90.543459
_cell_volume                      1138.92718297

loop_
_atom_site_label
_atom_site_type_symbol
_atom_site_description
_atom_site_fract_x
_atom_site_fract_y
_atom_site_fract_z
_atom_type_partial_charge
O1    O     O_R   0.316770 0.614620 0.499990 -0.640263
O2    O     O_R   0.683230 0.614620 0.500010 -0.642904
O3    O     O_R   0.316800 0.385290 0.500000 -0.574130
O4    O     O_R   0.683200 0.385290 0.500000 -0.575530
C1    C     C_R   0.260164 0.499704 0.499858 0.871336
C2    C     C_R   0.739616 0.500583 0.500518 0.869913
O5    O     O_R   0.500010 0.614690 0.316770 -0.627479
O6    O     O_R   0.499990 0.614690 0.683230 -0.633215
O7    O     O_R   0.500040 0.385360 0.316770 -0.538195
O8    O     O_R   0.499960 0.385360 0.683230 -0.537283
C3    C     C_R   0.514172 0.499908 0.260849 0.915671
C4    C     C_R   0.487162 0.499738 0.739527 0.919413
Zn1   Zn    Zn3+2 0.500000 0.653120 0.500000 0.958916
Zn2   Zn    Zn3+2 0.500000 0.346880 0.500000 1.126005
C5    C     C_R   0.572661 0.744517 0.112017 -0.133378
C6    C     C_R   0.434385 0.744228 0.889901 -0.136694
H1    H     H_    0.631424 0.747967 0.195429 0.170531
H2    H     H_    0.374882 0.747664 0.807072 0.166714
C7    C     C_R   0.543083 0.865691 0.054210 -0.058185
C8    C     C_R   0.465922 0.865534 0.947932 -0.057735
C9    C     C_R   0.477574 0.621138 0.940128 0.058951
C10   C     C_R   0.528257 0.621315 0.061068 0.059687
C11   C     C_R   0.530769 0.498784 0.127014 -0.299169
C12   C     C_R   0.473673 0.498424 0.873842 -0.296636
C13   C     C_R   0.518908 0.375261 0.062931 0.245434
C14   C     C_R   0.486932 0.374970 0.937570 0.245243
C15   C     C_R   0.060767 0.400172 0.435312 -0.100525
C16   C     C_R   0.932383 0.400080 0.435893 -0.105229
H3    H     H_    0.107198 0.324584 0.382000 0.230451
H4    H     H_    0.880441 0.322511 0.384997 0.200400
C17   C     C_R   0.871907 0.501811 0.499768 -0.032461
C18   C     C_R   0.127430 0.500297 0.500153 -0.045390
C19   C     C_R   0.938017 0.604362 0.562347 -0.144963
C20   C     C_R   0.066838 0.603305 0.562943 -0.156450
C21   C     C_R   0.602699 0.071251 0.543478 0.339712
C22   C     C_R   0.397783 0.068849 0.456048 0.360811
C23   C     C_R   0.601858 0.928277 0.542432 -0.136620
C24   C     C_R   0.398429 0.926011 0.457329 -0.136382
N1    N     N_R   0.500000 0.857200 0.500000 -0.137465
N2    N     N_R   0.500000 0.142810 0.500000 -0.180399
N3    N     N_R   0.538767 0.248614 0.124093 0.246495
O9    O     O_R   0.450329 0.157564 0.122396 -0.355151
O10   O     O_R   0.646532 0.222618 0.177741 -0.394265
N4    N     N_R   0.468464 0.247747 0.876163 0.243896
O11   O     O_R   0.558550 0.160441 0.876152 -0.359396
O12   O     O_R   0.359963 0.216800 0.825372 -0.376324
H5    H     H_    0.577859 0.958768 0.094194 0.229002
H6    H     H_    0.432384 0.958489 0.908308 0.230062
H7    H     H_    0.890257 0.683118 0.611928 0.167537
H8    H     H_    0.118934 0.681427 0.612926 0.165851
N5    N     N_R   0.713550 0.138251 0.589853 0.223276
O13   O     O_R   0.708075 0.216833 0.686116 -0.304871
O14   O     O_R   0.822805 0.098488 0.554025 -0.380089
N6    N     N_R   0.288931 0.133197 0.405592 0.211325
O15   O     O_R   0.299508 0.212397 0.310373 -0.340979
O16   O     O_R   0.178453 0.086173 0.432184 -0.394751
H9    H     H_    0.682956 0.874137 0.577264 0.182541
H10   H     H_    0.317762 0.870064 0.421636 0.193331

loop_
_geom_bond_atom_site_label_1
_geom_bond_atom_site_label_2
_geom_bond_distance
_ccdc_geom_bond_type
N6    O15   1.298504 A    
O5    C3    1.299956 A    
O7    Zn2   2.008369 S    
C17   C19   1.395961 A    
C6    C9    1.413275 A    
C15   H3    1.075977 S    
N3    O10   1.301557 A    
N3    O9    1.300103 A    
C4    C12   1.455797 S    
C7    C8    1.392161 A    
O6    C4    1.300228 A    
C6    C8    1.390640 A    
C1    C18   1.415930 S    
C6    H2    1.081917 S    
C16   H4    1.084405 S    
C19   C20   1.374032 A    
C13   C14   1.382961 A    
C14   N4    1.434558 S    
C23   N1    1.359049 A    
O4    Zn2   1.987371 S    
O2    C2    1.287012 A    
C9    C10   1.396559 A    
C5    C7    1.390187 A    
O7    C3    1.296400 A    
O6    Zn1   2.008266 S    
O3    Zn2   1.994472 S    
O8    C4    1.296433 A    
O1    C1    1.285752 A    
C3    C11   1.455125 S    
C21   C23   1.419472 A    
N4    O12   1.301511 A    
C21   N2    1.383306 A    
N6    O16   1.301890 A    
C11   C13   1.409405 A    
C21   N5    1.429898 S    
C24   N1    1.356919 A    
C7    H5    1.077692 S    
Zn1   N1    2.026180 S    
C20   H8    1.084324 S    
C16   C17   1.393361 A    
Zn2   N2    2.026081 S    
C22   C24   1.418314 A    
O5    Zn1   2.007535 S    
O1    Zn1   1.987846 S    
N4    O11   1.300171 A    
O4    C2    1.288083 A    
O8    Zn2   2.007636 S    
C9    C12   1.410875 A    
C13   N3    1.434808 S    
C15   C16   1.369538 A    
C5    H1    1.082149 S    
O2    Zn1   1.994961 S    
C10   C11   1.409042 A    
C22   N2    1.382068 A    
C2    C17   1.411210 S    
C8    H6    1.077456 S    
O3    C1    1.291614 A    
C15   C18   1.393235 A    
C24   H10   1.081881 S    
C19   H7    1.084273 S    
C22   N6    1.426317 S    
C5    C10   1.412740 A    
C23   H9    1.082018 S    
N5    O13   1.298840 A    
C12   C14   1.411564 A    
N5    O14   1.301206 A    
C18   C20   1.397410 A    
