data_mof_unit_39580.cif
_audit_creation_date              2012-12-10T18:29:42-0500
_audit_creation_method            fapswitch 2.2
_symmetry_space_group_name_H-M    P1
_symmetry_Int_Tables_number       1
_space_group_crystal_system       triclinic
_cell_length_a                    11.554366
_cell_length_b                    15.006436
_cell_length_c                    15.51928
_cell_angle_alpha                 82.492526
_cell_angle_beta                  89.612986
_cell_angle_gamma                 104.350544
_cell_volume                      2582.42963296

loop_
_atom_site_label
_atom_site_type_symbol
_atom_type_description
_atom_site_fract_x
_atom_site_fract_y
_atom_site_fract_z
_atom_type_partial_charge
C1    C     C_R   0.484977 0.441997 0.662013 0.860360
C2    C     C_R   0.593839 0.685744 0.977964 0.492811
C3    C     C_R   0.697269 0.846963 0.622238 0.431094
C4    C     C_R   0.316097 0.157533 0.365665 0.437822
C5    C     C_R   0.656271 0.755312 0.606854 -0.128380
C6    C     C_R   0.351938 0.247542 0.386551 -0.124043
C7    C     C_R   0.509843 0.793459 0.513164 -0.047509
C8    C     C_R   0.487990 0.205588 0.487703 -0.047399
C9    C     C_R   0.542276 0.887011 0.528260 -0.101733
C10   C     C_R   0.462518 0.114448 0.466178 -0.099781
C11   C     C_R   0.637987 0.913729 0.584723 -0.071780
C12   C     C_R   0.518574 0.558132 0.338050 0.861371
C13   C     C_R   0.372304 0.089677 0.405226 -0.078081
C14   C     C_R   0.484452 0.954282 0.487803 0.045536
C15   C     C_R   0.522121 0.047649 0.504683 0.045935
C16   C     C_R   0.718014 0.500932 0.500147 0.901609
C17   C     C_R   0.281985 0.499066 0.499861 0.902397
C18   C     C_R   0.619271 0.072057 0.558768 -0.340309
C19   C     C_R   0.391027 0.931239 0.430183 -0.336547
C20   C     C_R   0.673641 0.006487 0.600919 0.541099
C21   C     C_R   0.339271 0.997736 0.386490 0.536579
C22   C     C_1   0.839091 0.502327 0.500522 -0.188272
C23   C     C_R   0.549795 0.362529 0.926434 0.051341
C24   C     C_1   0.160897 0.497663 0.499515 -0.189409
C25   C     C_1   0.940977 0.501195 0.500294 0.004654
C26   C     C_1   0.059007 0.498792 0.499759 0.004920
C27   C     C_R   0.493204 0.408565 0.753874 -0.054273
C28   C     C_R   0.541477 0.593880 0.245874 -0.052677
C29   C     C_R   0.532582 0.295871 0.868596 -0.166287
C30   C     C_R   0.578835 0.719219 0.126491 -0.152840
C31   C     C_R   0.506795 0.319408 0.782188 -0.218503
C32   C     C_R   0.558851 0.688327 0.215141 -0.225326
C33   C     C_R   0.503330 0.472620 0.812279 -0.220316
C34   C     C_R   0.582393 0.655967 0.067654 0.065454
C35   C     C_R   0.549372 0.531645 0.188335 -0.224201
C36   C     C_R   0.540288 0.453850 0.896554 0.054158
C37   C     C_R   0.572556 0.561195 0.099480 0.051076
C38   C     C_3   0.494934 0.200329 0.095017 -0.314539
C39   C     C_3   0.695834 0.812995 0.882866 -0.259771
C40   C     C_3   0.723164 0.052907 0.732451 -0.253607
C41   C     C_3   0.297794 0.957614 0.251835 -0.237279
C42   C     C_3   0.899044 0.874618 0.630053 -0.236675
C43   C     C_3   0.118416 0.133199 0.338653 -0.223943
C44   C     C_R   0.564500 0.523364 0.952118 0.005315
C45   C     C_R   0.575957 0.496731 0.041346 -0.006645
C46   C     C_R   0.589038 0.406380 0.069788 -0.309598
C47   C     C_R   0.579572 0.618755 0.921011 -0.319586
C48   C     C_R   0.575840 0.339564 0.013317 0.504318
H1    H     H_    0.658311 0.142697 0.568683 0.158125
H2    H     H_    0.583171 0.643180 0.852422 0.155220
H3    H     H_    0.548155 0.229017 0.537287 0.138467
H4    H     H_    0.442171 0.766885 0.469529 0.141653
H5    H     H_    0.312837 0.301251 0.355269 0.157186
H6    H     H_    0.698859 0.702825 0.636153 0.155268
H7    H     H_    0.409963 0.195314 0.060293 0.166872
H8    H     H_    0.489460 0.228941 0.157100 0.176291
H9    H     H_    0.505921 0.128829 0.111611 0.187229
H10   H     H_    0.660488 0.799592 0.818267 0.201623
H11   H     H_    0.774924 0.783883 0.895687 0.160865
H12   H     H_    0.354938 0.861650 0.416365 0.156210
H13   H     H_    0.727180 0.889296 0.881155 0.193239
H14   H     H_    0.651915 0.992490 0.763419 0.155857
H15   H     H_    0.689098 0.116464 0.722960 0.141322
H16   H     H_    0.797126 0.064873 0.778124 0.192451
H17   H     H_    0.339961 0.898128 0.260058 0.133663
H18   H     H_    0.363699 0.022048 0.222367 0.151730
H19   H     H_    0.225105 0.941970 0.205578 0.192979
H20   H     H_    0.910647 0.925081 0.569317 0.169788
H21   H     H_    0.903658 0.805124 0.614899 0.139412
H22   H     H_    0.974988 0.899426 0.671491 0.190982
H23   H     H_    0.531413 0.458905 0.213463 0.160702
H24   H     H_    0.110478 0.202364 0.352467 0.135936
H25   H     H_    0.096616 0.081536 0.398600 0.165776
H26   H     H_    0.050916 0.109908 0.290479 0.192722
H27   H     H_    0.481780 0.537582 0.790418 0.159708
H28   H     H_    0.554652 0.737884 0.259202 0.159635
H29   H     H_    0.499814 0.268779 0.737483 0.155642
H30   H     H_    0.541158 0.226132 0.889443 0.179819
H31   H     H_    0.588788 0.792285 0.104192 0.184958
H32   H     H_    0.614180 0.386906 0.135104 0.165451
N1    N     N_R   0.566020 0.731700 0.552730 -0.121904
N2    N     N_R   0.433980 0.268300 0.447270 -0.123238
O1    O     O_R   0.466720 0.383110 0.605620 -0.615313
O2    O     O_3   0.603853 0.778896 0.947914 -0.634838
O3    O     O_3   0.768339 0.035587 0.653284 -0.569030
O4    O     O_3   0.247709 0.969619 0.331337 -0.573358
O5    O     O_3   0.791650 0.869660 0.676346 -0.600296
O6    O     O_3   0.232734 0.138297 0.302710 -0.584646
O7    O     O_R   0.533280 0.616890 0.394380 -0.615644
O8    O     O_R   0.509090 0.531900 0.639510 -0.617776
O9    O     O_R   0.490910 0.468100 0.360490 -0.621367
O10   O     O_R   0.644370 0.425610 0.483050 -0.608728
O11   O     O_R   0.355630 0.574390 0.516950 -0.609761
O12   O     O_R   0.686740 0.574390 0.516930 -0.612077
O13   O     O_R   0.313260 0.425610 0.483070 -0.609236
O14   O     O_3   0.594389 0.253112 0.042065 -0.613086
Zn1   Zn    Zn3+2 0.471710 0.400660 0.477370 0.942712
Zn2   Zn    Zn3+2 0.528290 0.599340 0.522630 0.942268

loop_
_geom_bond_atom_site_label_1
_geom_bond_atom_site_label_2
_ccdc_geom_bond_type
C43   H25   S    
C15   C18   A    
C30   C32   A    
C43   H24   S    
C6    N2    A    
C34   C37   A    
C12   O9    A    
C2    O2    S    
C38   H7    S    
C41   H19   S    
C45   C46   A    
C27   C33   A    
C41   O4    S    
C1    O8    A    
C40   H15   S    
C12   C28   S    
C8    N2    A    
C43   O6    S    
C23   C29   A    
C35   C37   A    
C24   C26   T    
C7    H4    S    
C10   C15   A    
N1    Zn2   S    
O12   Zn2   S    
C42   H22   S    
C33   C36   A    
C40   H14   S    
C4    C13   A    
C33   H27   S    
C29   H30   S    
C28   C35   A    
C22   C25   T    
C17   O13   A    
C44   C47   A    
C2    C34   A    
C43   H26   S    
C35   H23   S    
C42   H20   S    
O10   Zn1   S    
C31   H29   S    
C47   H2    S    
C39   H13   S    
C46   C48   A    
C11   C20   A    
C17   C24   S    
C30   C34   A    
C27   C31   A    
C12   O7    A    
C28   C32   A    
C4    C6    A    
C41   H17   S    
C25   C26   S    
C39   H10   S    
C3    O5    S    
C42   H21   S    
C40   O3    S    
C9    C14   A    
C32   H28   S    
C38   H9    S    
C5    N1    A    
C5    H6    S    
C39   H11   S    
C20   O3    S    
C13   C21   A    
O9    Zn1   S    
C9    C11   A    
C8    H3    S    
C30   H31   S    
C7    N1    A    
C16   O10   A    
C19   H12   S    
N2    Zn1   S    
C36   C44   A    
C17   O11   A    
C6    H5    S    
C37   C45   A    
C44   C45   A    
C7    C9    A    
C21   O4    S    
C16   C22   S    
C23   C48   A    
C48   O14   S    
C19   C21   A    
C14   C19   A    
C3    C5    A    
C10   C13   A    
C39   O2    S    
O13   Zn1   S    
C41   H18   S    
C4    O6    S    
C2    C47   A    
C1    O1    A    
C16   O12   A    
C40   H16   S    
O7    Zn2   S    
C29   C31   A    
C46   H32   S    
C18   C20   A    
C3    C11   A    
C38   H8    S    
C8    C10   A    
C23   C36   A    
O1    Zn1   S    
C38   O14   S    
C1    C27   S    
C14   C15   A    
C42   O5    S    
O11   Zn2   S    
O8    Zn2   S    
C18   H1    S    
