data_mof_unit_31535.cif
_audit_creation_date              2012-12-11T18:13:11-0500
_audit_creation_method            fapswitch 2.2
_symmetry_space_group_name_H-M    P1
_symmetry_Int_Tables_number       1
_space_group_crystal_system       triclinic
_cell_length_a                    8.378104
_cell_length_b                    13.374126
_cell_length_c                    18.618736
_cell_angle_alpha                 101.63
_cell_angle_beta                  89.053884
_cell_angle_gamma                 100.189774
_cell_volume                      2010.76845

loop_
_atom_site_label
_atom_site_type_symbol
_atom_type_description
_atom_site_fract_x
_atom_site_fract_y
_atom_site_fract_z
_atom_type_partial_charge
Ba1   Ba    Ba6+2 0.852780 0.548340 0.465070 1.818229
Ba2   Ba    Ba6+2 0.337060 0.451750 0.534940 1.809220
C1    C     C_3   0.691934 0.912253 0.294857 -0.321902
C2    C     C_3   0.653858 0.807566 0.313449 0.420909
C3    C     C_3   0.608969 0.205384 0.305759 0.285882
C4    C     C_3   0.690746 0.128948 0.253472 -0.420052
C5    C     C_3   0.025939 0.220509 0.741233 0.649092
C6    C     C_3   0.025101 0.183301 0.813752 -0.169779
C7    C     C_3   0.554566 0.206142 0.728495 0.423042
C8    C     C_3   0.619735 0.178437 0.796074 -0.270360
C9    C     C_R   0.987810 0.467907 0.053779 0.042805
C10   C     C_R   0.893067 0.409332 0.099329 0.052318
C11   C     C_R   0.736097 0.359375 0.077091 -0.086645
C12   C     C_3   0.185372 0.832097 0.267460 0.802301
C13   C     C_R   0.671877 0.368838 0.011031 -0.066546
C14   C     C_R   0.764056 0.427333 0.964467 0.016368
C15   C     C_R   0.924627 0.474568 0.985031 -0.009151
C16   C     C_R   0.698060 0.438847 0.898202 0.208618
C17   C     C_R   0.803458 0.473954 0.843341 -0.035936
C18   C     C_R   0.963156 0.527408 0.865895 0.044778
C19   C     C_R   0.020572 0.529750 0.937814 0.022979
C20   C     C_R   0.765029 0.450969 0.766568 0.009416
C21   C     C_R   0.886450 0.476879 0.717027 -0.190811
C22   C     C_R   0.024731 0.552465 0.739252 0.069544
C23   C     C_3   0.295731 0.935130 0.265639 -0.321278
C24   C     C_R   0.067558 0.575967 0.815955 0.033196
C25   C     C_R   0.145442 0.518907 0.076766 0.071201
C26   C     C_R   0.207002 0.513574 0.146342 0.043811
C27   C     C_R   0.107907 0.456487 0.193025 -0.070105
C28   C     C_R   0.955039 0.401278 0.166734 0.001676
C29   C     C_R   0.217759 0.636135 0.843180 0.050209
C30   C     C_R   0.274173 0.637832 0.914585 0.047841
C31   C     C_R   0.177749 0.581766 0.961090 0.038785
C32   C     C_R   0.240195 0.576317 0.030557 0.068012
C33   C     C_R   0.429872 0.690259 0.939124 -0.001449
C34   C     C_3   0.192991 0.777499 0.619135 0.329238
C35   C     C_R   0.491751 0.684885 0.007297 -0.026543
C36   C     C_R   0.398368 0.627482 0.053297 0.079553
C37   C     C_R   0.367348 0.564699 0.168753 -0.089791
C38   C     C_R   0.461133 0.620723 0.121371 -0.060711
C39   C     C_R   0.431148 0.552382 0.235813 -0.076851
C40   C     C_R   0.334257 0.487257 0.276366 0.172877
C41   C     C_R   0.168637 0.451267 0.262607 0.009683
C42   C     C_R   0.752197 0.180304 0.540288 -0.252541
C43   C     C_R   0.440183 0.809200 0.467793 -0.275982
C44   C     C_R   0.401740 0.981174 0.455680 -0.102913
C45   C     C_3   0.248624 0.893945 0.638043 0.323788
C46   C     C_R   0.347199 0.873873 0.443220 -0.047774
C47   C     C_R   0.584712 0.849214 0.508819 0.019102
C48   C     C_R   0.643190 0.961318 0.519961 -0.056485
C49   C     C_R   0.550124 0.027394 0.491825 -0.031148
C50   C     C_R   0.607011 0.138185 0.501108 0.013548
C51   C     C_R   0.849045 0.117942 0.564355 -0.013192
C52   C     C_R   0.793463 0.009763 0.555575 -0.069060
C53   C     C_3   0.981704 0.228380 0.393229 0.319689
C54   C     C_3   0.993226 0.113820 0.383663 -0.392851
C55   C     C_3   0.738847 0.752068 0.697223 0.361574
C56   C     C_3   0.670851 0.773227 0.776002 0.510943
H1    H     H_    0.719224 0.811537 0.365721 0.057909
H2    H     H_    0.382293 0.912176 0.643775 0.053167
H3    H     H_    0.213246 0.929155 0.592955 -0.016450
H4    H     H_    0.865934 0.242666 0.418446 -0.091890
H5    H     H_    0.078726 0.270594 0.432965 0.092721
H6    H     H_    0.026819 0.082046 0.326902 0.147599
H7    H     H_    0.876605 0.069563 0.397804 0.062613
H8    H     H_    0.086810 0.102087 0.420577 0.133696
H9    H     H_    0.871619 0.776878 0.698037 0.052863
H10   H     H_    0.642444 0.968553 0.337438 0.050013
H11   H     H_    0.560281 0.714879 0.778264 0.029157
H12   H     H_    0.520455 0.787913 0.319549 -0.159055
H13   H     H_    0.638949 0.908569 0.240094 0.135693
H14   H     H_    0.533905 0.227132 0.266047 0.173468
H15   H     H_    0.697586 0.271373 0.333804 0.112619
H16   H     H_    0.598829 0.065195 0.223202 0.130781
H17   H     H_    0.759593 0.168612 0.212557 0.111793
H18   H     H_    0.777404 0.099282 0.282807 0.143394
H19   H     H_    0.824956 0.935315 0.292726 0.172263
H20   H     H_    0.375538 0.926720 0.217579 0.123821
H21   H     H_    0.901390 0.221771 0.724166 -0.172798
H22   H     H_    0.963111 0.233003 0.856232 0.030833
H23   H     H_    0.960239 0.103465 0.808620 0.161707
H24   H     H_    0.150394 0.188527 0.834461 0.196013
H25   H     H_    0.655483 0.226262 0.691624 -0.153054
H26   H     H_    0.477361 0.137233 0.695248 0.113214
H27   H     H_    0.694165 0.247582 0.829998 0.049080
H28   H     H_    0.698259 0.120446 0.779110 0.128532
H29   H     H_    0.519419 0.147654 0.829636 0.194937
H30   H     H_    0.661856 0.313528 0.111226 0.088897
H31   H     H_    0.550754 0.326708 0.996189 0.138866
H32   H     H_    0.862300 0.448205 0.658864 0.068367
H33   H     H_    0.882561 0.350573 0.197859 0.081626
H34   H     H_    0.295133 0.677180 0.807780 0.114206
H35   H     H_    0.506056 0.733562 0.904972 0.146803
H36   H     H_    0.613596 0.725065 0.023737 0.124450
H37   H     H_    0.584773 0.657690 0.135820 0.124442
H38   H     H_    0.257948 0.771779 0.272674 -0.146409
H39   H     H_    0.325086 0.028506 0.437583 0.111559
H40   H     H_    0.871375 0.963524 0.573712 0.158341
H41   H     H_    0.797901 0.262603 0.546557 0.024734
H42   H     H_    0.393823 0.726732 0.458676 0.063094
H43   H     H_    0.223494 0.995915 0.261919 0.142077
H44   H     H_    0.372892 0.960666 0.315222 0.045740
H45   H     H_    0.259995 0.743130 0.571500 -0.097710
H46   H     H_    0.062563 0.761351 0.606344 0.040226
O1    O     O_2   0.873090 0.425890 0.325140 -0.438845
O2    O     O_3   0.665557 0.802606 0.651341 -0.589713
O3    O     O_3   0.072144 0.845975 0.323885 -0.606402
O4    O     O_2   0.316610 0.574140 0.674900 -0.404798
O5    O     O_3   0.067290 0.565720 0.585630 -0.507187
O6    O     O_3   0.530210 0.372990 0.631200 -0.437299
O7    O     O_3   0.222062 0.737484 0.680045 -0.579569
O8    O     O_3   0.611340 0.366290 0.463630 -0.395946
O9    O     O_3   0.108550 0.314140 0.595200 -0.467344
O10   O     O_2   0.181281 0.126810 0.550115 -0.487928
O11   O     O_3   0.108035 0.161991 0.686324 -0.494864
O12   O     O_3   0.122420 0.434370 0.414380 -0.482128
O13   O     O_3   0.578370 0.633800 0.536380 -0.400650
O14   O     O_2   0.341510 0.231850 0.465510 -0.481532
O15   O     O_3   0.504424 0.159249 0.354308 -0.645394
O16   O     O_2   0.451045 0.479580 0.754530 -0.364263
O17   O     O_3   0.460714 0.283673 0.751361 -0.510088
O18   O     O_3   0.659500 0.627100 0.368810 -0.441931
O19   O     O_2   0.773433 0.553325 0.239896 -0.393776
O20   O     O_3   0.992986 0.258898 0.324439 -0.626751
O21   O     O_3   0.708618 0.737668 0.256417 -0.542570
O22   O     O_2   0.848200 0.768190 0.534530 -0.484945
O23   O     O_3   0.081160 0.685950 0.404810 -0.473648
O24   O     O_2   0.025718 0.872293 0.461606 -0.489484
P1    P     P_3+3 0.041040 0.394770 0.336330 1.047212
P2    P     P_3+3 0.672880 0.754030 0.556100 1.059011
P3    P     P_3+3 0.138670 0.819134 0.406158 0.931126
P4    P     P_3+3 0.148670 0.605320 0.663680 1.046984
P5    P     P_3+3 0.058140 0.180847 0.599068 1.029697
P6    P     P_3+3 0.641266 0.614896 0.273498 1.120370
P7    P     P_3+3 0.526010 0.227224 0.447113 0.978318
P8    P     P_3+3 0.557671 0.397466 0.726030 1.118739
S1    S     S_3+6 0.157307 0.948655 0.720801 -0.024204
O25   O     O_2   0.134806 0.879087 0.775665 -0.211030
O26   O     O_2   0.262484 0.048073 0.756154 -0.273958
O27   O     O_3   0.976371 0.970123 0.696776 -0.575932
H47   H     H_    0.902362 0.952074 0.735630 0.382022
Br1   Br    Br    0.693193 0.606700 0.664431 -0.592166
S2    S     S_3+6 0.610093 0.897055 0.807796 -0.048793
O28   O     O_2   0.575368 0.944997 0.745047 -0.309728
O29   O     O_2   0.458114 0.882109 0.851264 -0.258851
O30   O     O_3   0.756319 0.977653 0.862408 -0.501416
H48   H     H_    0.701472 0.031653 0.891734 0.352299
Br2   Br    Br    0.824834 0.753956 0.846568 -0.564575
Br3   Br    Br    0.143973 0.355534 0.764180 -0.547140
S3    S     S_3+6 0.077969 0.791430 0.181171 -0.061335
O31   O     O_2   0.988313 0.682464 0.174115 -0.287240
O32   O     O_2   0.959590 0.861980 0.175796 -0.288377
O33   O     O_3   0.209651 0.796915 0.112449 -0.561687
H49   H     H_    0.141241 0.785813 0.067674 0.371152
Br4   Br    Br    0.464761 0.423882 0.896434 -0.600082
S4    S     S_3+6 0.430582 0.412465 0.319582 -0.125580
O34   O     O_2   0.587442 0.401820 0.282761 -0.360975
O35   O     O_2   0.458262 0.466355 0.397827 -0.265580
O36   O     O_3   0.315913 0.294438 0.309606 -0.595304
H50   H     H_    0.295435 0.284636 0.359694 0.359756

loop_
_geom_bond_atom_site_label_1
_geom_bond_atom_site_label_2
_ccdc_geom_bond_type
O21   P6    S    
S2    O30   S    
C53   C54   S    
C8    H27   S    
C39   C40   A    
O6    P8    S    
C1    H10   S    
S4    O36   S    
C2    H12   S    
Ba2   O14   S    
C5    C6    S    
Ba2   O5    S    
C51   C52   A    
C10   C11   A    
S1    O26   D    
Ba2   O8    S    
C48   C52   A    
C2    O21   S    
C3    O15   S    
C34   H45   S    
C6    H24   S    
S4    O34   D    
C33   C35   A    
C35   C36   A    
C22   C24   A    
Ba1   Ba2   S    
C3    H14   S    
Ba1   P1    S    
Ba1   O8    S    
C3    C4    S    
Ba2   O9    S    
C56   Br2   S    
C23   H44   S    
C19   C31   A    
O22   P2    D    
C13   C14   A    
C53   H4    S    
C11   H30   S    
C34   C45   S    
O2    P2    S    
C16   C17   A    
C5    O11   S    
Ba1   O18   S    
O18   P6    S    
Ba1   O5    S    
C45   H2    S    
C5    Br3   S    
Ba2   O12   S    
C56   S2    S    
Ba2   O6    S    
O12   P1    S    
C17   C18   A    
C14   C15   A    
S3    O33   S    
C53   H5    S    
O20   P1    S    
Ba2   P4    S    
C21   C22   A    
C54   H6    S    
C46   P3    S    
Ba1   O12   S    
C9    C25   A    
C7    C8    S    
C41   P1    S    
C42   C50   A    
C55   O2    S    
C24   C29   A    
C12   C23   S    
O9    P5    S    
C27   C41   A    
C12   S3    S    
C55   H9    S    
C42   C51   A    
C12   H38   S    
C39   P6    S    
Ba2   O13   S    
C4    H16   S    
C33   H35   S    
C25   C32   A    
S1    O27   S    
C44   C46   A    
C8    H29   S    
O19   P6    D    
C6    H23   S    
C30   C33   A    
C4    H17   S    
C17   C20   A    
C51   P5    S    
Ba1   O22   S    
O3    P3    S    
Ba1   P2    S    
C37   C38   A    
O1    P1    D    
O11   P5    S    
C26   C37   A    
C44   C49   A    
O15   P7    S    
C23   H20   S    
C20   P8    S    
O16   P8    D    
C1    H13   S    
C15   C19   A    
C27   C28   A    
C13   H31   S    
C54   H7    S    
C22   P4    S    
C7    O17   S    
O36   H50   S    
C40   S4    S    
C43   C47   A    
C45   S1    S    
C34   O7    S    
C48   C49   A    
C21   H32   S    
Ba1   O13   S    
O27   H47   S    
O13   P2    S    
C7    H25   S    
C55   Br1   S    
C12   O3    S    
C44   H39   S    
C47   C48   A    
C11   C13   A    
S3    O32   D    
C40   C41   A    
O8    P7    S    
C1    C2    S    
C26   C27   A    
O24   P3    D    
C5    H21   S    
O30   H48   S    
S1    O25   D    
C43   C46   A    
S2    O29   D    
C53   O20   S    
C8    H28   S    
C10   C28   A    
C32   C36   A    
C29   C30   A    
Ba1   O23   S    
C28   H33   S    
C43   H42   S    
C9    C15   A    
C45   H3    S    
C9    C10   A    
C56   H11   S    
C4    H18   S    
C47   P2    S    
O5    P4    S    
S3    O31   D    
C34   H46   S    
C30   C31   A    
S4    O35   D    
C49   C50   A    
C36   C38   A    
C23   H43   S    
C55   C56   S    
C18   C24   A    
C54   H8    S    
C2    H1    S    
Ba2   O4    S    
C42   H41   S    
O10   P5    D    
C31   C32   A    
C35   H36   S    
O17   P8    S    
C3    H15   S    
O23   P3    S    
O4    P4    D    
C16   Br4   S    
C7    H26   S    
O7    P4    S    
C18   C19   A    
C37   C39   A    
C14   C16   A    
C29   H34   S    
C25   C26   A    
C6    H22   S    
C50   P7    S    
C20   C21   A    
C52   H40   S    
C38   H37   S    
O33   H49   S    
O14   P7    D    
S2    O28   D    
Ba1   O1    S    
C1    H19   S    
