data_mof_unit_19132.cif
_audit_creation_date              2012-12-10T16:43:00-0500
_audit_creation_method            fapswitch 2.2
_symmetry_space_group_name_H-M    P1
_symmetry_Int_Tables_number       1
_space_group_crystal_system       triclinic
_cell_length_a                    7.592068
_cell_length_b                    8.703321
_cell_length_c                    13.061199
_cell_angle_alpha                 84.972788
_cell_angle_beta                  79.483832
_cell_angle_gamma                 103.31004
_cell_volume                      818.12972716

loop_
_atom_site_label
_atom_site_type_symbol
_atom_type_description
_atom_site_fract_x
_atom_site_fract_y
_atom_site_fract_z
_atom_type_partial_charge
C1    C     C_R   0.452358 0.199863 0.503570 0.852362
C2    C     C_R   0.547613 0.800111 0.496610 0.854439
C3    C     C_R   0.467680 0.496069 0.700418 0.800551
C4    C     C_R   0.532060 0.503431 0.298723 0.799920
C5    C     C_R   0.546851 0.502481 0.184579 -0.126578
C6    C     C_R   0.453215 0.481225 0.813583 -0.075264
C7    C     C_R   0.279895 0.350209 0.985168 0.291826
C8    C     C_R   0.749997 0.556611 0.011376 0.276283
C9    C     C_R   0.298958 0.373207 0.876833 -0.325318
C10   C     C_R   0.724432 0.544919 0.120323 -0.273230
C11   C     C_R   0.601504 0.557942 0.857371 0.094444
C12   C     C_R   0.389859 0.455088 0.138700 0.091991
C13   C     C_R   0.593062 0.518178 0.965556 -0.016608
C14   C     C_R   0.419244 0.439230 0.030835 0.041721
C15   C     C_2   0.426762 0.031127 0.505333 -0.362720
C16   C     C_2   0.573203 0.968805 0.495192 -0.367987
Cu1   Cu    Cu3+1 0.686350 0.517570 0.488220 0.953905
Cu2   Cu    Cu3+1 0.313650 0.482430 0.511780 0.958047
H1    H     H_    0.845560 0.572097 0.154669 0.179713
H2    H     H_    0.194169 0.303570 0.841710 0.145377
H3    H     H_    0.286399 0.957953 0.514993 0.194847
H4    H     H_    0.713567 0.041983 0.485715 0.189750
N1    N     N_2   0.033570 0.455950 0.529530 0.032071
N2    N     N_2   0.966430 0.544050 0.470470 0.020540
O1    O     O_R   0.621060 0.286250 0.492350 -0.594418
O2    O     O_R   0.378940 0.713750 0.507650 -0.577264
O3    O     O_R   0.306310 0.256580 0.512240 -0.582813
O4    O     O_R   0.693690 0.743420 0.487760 -0.585063
O5    O     O_R   0.631800 0.512400 0.642670 -0.605173
O6    O     O_R   0.368200 0.487600 0.357330 -0.610571
O7    O     O_R   0.317060 0.482730 0.662570 -0.591499
O8    O     O_R   0.682940 0.517270 0.337430 -0.595746
C17   C     C_3   0.194743 0.443379 0.198526 -0.729136
H5    H     H_    0.191065 0.554811 0.232370 0.211753
H6    H     H_    0.092521 0.437750 0.147710 0.239545
H7    H     H_    0.146724 0.337944 0.260184 0.253665
C18   C     C_3   0.748477 0.699620 0.793531 -0.804317
H8    H     H_    0.687381 0.768890 0.740338 0.220852
H9    H     H_    0.806130 0.784651 0.844688 0.234008
H10   H     H_    0.861798 0.659565 0.745728 0.250424
N3    N     N_2   0.129522 0.227086 0.045858 -0.422162
H11   H     H_    0.018837 0.193801 0.009976 0.251380
C19   C     C_3   0.182404 0.091641 0.091874 -0.722761
H12   H     H_    0.056877 0.003124 0.137677 0.219508
H13   H     H_    0.276300 0.128389 0.146121 0.244301
H14   H     H_    0.253020 0.034901 0.029174 0.225406
N4    N     N_2   0.933159 0.579442 0.951272 -0.426542
H15   H     H_    0.951653 0.529105 0.882882 0.259452
C20   C     C_3   0.073083 0.719811 0.959174 -0.718975
H16   H     H_    0.129172 0.791647 0.880508 0.227630
H17   H     H_    0.187801 0.682959 0.988038 0.243322
H18   H     H_    0.015838 0.795800 0.013520 0.226805
N5    N     N_2   0.912812 0.321467 0.590696 -0.304403
H19   H     H_    0.781016 0.328877 0.612367 0.298063
C21   C     C_3   0.965408 0.266544 0.685458 -0.617071
H20   H     H_    0.855206 0.162339 0.729436 0.170507
H21   H     H_    0.978842 0.361695 0.736962 0.209995
H22   H     H_    0.092574 0.224852 0.668813 0.256670
N6    N     N_2   0.092641 0.683636 0.419206 -0.298923
H23   H     H_    0.212898 0.668194 0.378417 0.281038
C22   C     C_3   0.032030 0.801349 0.359002 -0.613500
H24   H     H_    0.148756 0.869229 0.294920 0.158473
H25   H     H_    0.996532 0.890929 0.408970 0.240055
H26   H     H_    0.919880 0.747426 0.320610 0.247400

loop_
_geom_bond_atom_site_label_1
_geom_bond_atom_site_label_2
_ccdc_geom_bond_type
C2    O2    A    
C22   H26   S    
C1    O1    A    
C21   H20   S    
N1    N5    S    
C8    C13   A    
Cu2   O6    S    
Cu1   O5    S    
N3    H11   S    
N5    C21   S    
C9    H2    S    
N4    H15   S    
Cu2   O2    S    
C15   H3    S    
C10   H1    S    
C19   H12   S    
C20   H18   S    
Cu1   O1    S    
C3    C6    S    
C6    C9    A    
C7    N3    S    
Cu1   Cu2   S    
C8    N4    S    
N6    H23   S    
N4    C20   S    
N5    H19   S    
C3    O7    A    
C19   H13   S    
N3    C19   S    
C3    O5    A    
C4    O8    A    
N2    N6    S    
C1    C15   S    
C8    C10   A    
C17   H6    S    
C18   H8    S    
C12   C14   A    
C17   H5    S    
C18   H10   S    
C21   H21   S    
C22   H24   S    
C18   H9    S    
C19   H14   S    
N6    C22   S    
C1    O3    A    
N1    N2    D    
C5    C10   A    
Cu2   N1    S    
Cu1   N2    S    
C7    C9    A    
C11   C13   A    
C17   H7    S    
C2    C16   S    
C5    C12   A    
C22   H25   S    
C20   H16   S    
C21   H22   S    
C6    C11   A    
C11   C18   S    
Cu1   O8    S    
C2    O4    A    
Cu2   O7    S    
C12   C17   S    
C13   C14   A    
Cu1   O4    S    
C7    C14   A    
C4    O6    A    
Cu2   O3    S    
C15   C16   D    
C16   H4    S    
C4    C5    S    
C20   H17   S    
