data_mof_unit_27790.cif
_audit_creation_date              2012-12-10T19:01:53-0500
_audit_creation_method            fapswitch 2.2
_symmetry_space_group_name_H-M    P1
_symmetry_Int_Tables_number       1
_space_group_crystal_system       triclinic
_cell_length_a                    11.673744
_cell_length_b                    10.89624
_cell_length_c                    9.627522
_cell_angle_alpha                 90.38197
_cell_angle_beta                  89.966438
_cell_angle_gamma                 91.69795
_cell_volume                      1224.05499397

loop_
_atom_site_label
_atom_site_type_symbol
_atom_type_description
_atom_site_fract_x
_atom_site_fract_y
_atom_site_fract_z
_atom_type_partial_charge
C1    C     C_R   0.497922 0.262336 0.499357 0.864129
C2    C     C_R   0.494191 0.128171 0.497204 -0.129844
C3    C     C_R   0.476936 0.061271 0.371656 0.044879
C4    C     C_R   0.462376 0.933246 0.375108 0.460831
C5    C     C_R   0.480441 0.869502 0.500044 -0.151753
C6    C     C_R   0.494825 0.935939 0.623431 -0.145505
C7    C     C_3   0.415494 0.935808 0.747025 0.505108
C8    C     C_3   0.433506 0.076447 0.754324 0.865710
C9    C     C_R   0.598447 0.525597 0.072973 0.113370
C10   C     C_R   0.408702 0.452902 0.072717 0.137531
C11   C     C_R   0.405953 0.460286 0.924808 0.608665
C12   C     C_R   0.284261 0.499979 0.499943 0.817447
C13   C     C_R   0.598934 0.523127 0.926383 0.023002
C14   C     C_3   0.678790 0.633014 0.916122 -0.072996
C15   C     C_3   0.676597 0.638351 0.075588 0.269162
C16   C     C_R   0.492279 0.736711 0.500286 0.823874
C17   C     C_R   0.715739 0.499942 0.499961 0.797205
C18   C     C_1   0.162539 0.500202 0.499565 -0.200178
C19   C     C_1   0.059954 0.500240 0.499485 -0.016143
C20   C     C_1   0.940101 0.500072 0.499649 -0.006511
C21   C     C_1   0.837506 0.499894 0.499814 -0.219101
C22   C     C_R   0.503156 0.063410 0.622172 -0.177060
Cu1   Cu    Cu3+1 0.499990 0.499980 0.640670 0.981431
Cu2   Cu    Cu3+1 0.500010 0.500020 0.359330 0.962944
H1    H     H_    0.639891 0.711785 0.863260 0.155164
N1    N     N_R   0.500710 0.500930 0.147930 -0.214419
N2    N     N_R   0.500710 0.500890 0.852020 -0.247488
O1    O     O_R   0.500000 0.319640 0.618810 -0.545570
O2    O     O_R   0.500010 0.319680 0.381230 -0.568552
O3    O     O_R   0.337190 0.499990 0.618790 -0.525549
O4    O     O_R   0.337200 0.500030 0.381210 -0.607605
O5    O     O_R   0.499990 0.680320 0.618770 -0.593065
O6    O     O_R   0.500000 0.680360 0.381190 -0.514316
O7    O     O_R   0.662800 0.499970 0.618790 -0.587064
O8    O     O_R   0.662810 0.500010 0.381210 -0.575737
N3    N     N_3   0.470500 0.122277 0.240317 -0.546884
H2    H     H_    0.390093 0.103137 0.196250 0.231383
H3    H     H_    0.532789 0.086644 0.174578 0.256660
N4    N     N_3   0.788851 0.619651 0.139944 -0.535284
H4    H     H_    0.786346 0.647549 0.243878 0.243186
H5    H     H_    0.808120 0.526451 0.138164 0.216571
N5    N     N_3   0.621838 0.747499 0.130361 -0.519639
H6    H     H_    0.541591 0.754411 0.083723 0.250753
H7    H     H_    0.671033 0.824745 0.100776 0.211116
O9    O     O_3   0.431409 0.871918 0.254113 -0.588207
C23   C     C_3   0.312323 0.845613 0.257270 -0.309899
H8    H     H_    0.288354 0.783326 0.344377 0.172598
H9    H     H_    0.287621 0.797862 0.159164 0.167518
H10   H     H_    0.262732 0.931112 0.264130 0.151975
O10   O     O_3   0.301224 0.900533 0.706592 -0.575211
C24   C     C_3   0.260374 0.789927 0.766729 -0.305848
H11   H     H_    0.240245 0.804272 0.878344 0.149423
H12   H     H_    0.321618 0.714966 0.753811 0.219542
H13   H     H_    0.179731 0.760492 0.713684 0.175806
N6    N     N_3   0.461239 0.871055 0.867769 -0.632535
H14   H     H_    0.547997 0.894287 0.880813 0.197072
H15   H     H_    0.418832 0.901588 0.956649 0.236206
O11   O     O_3   0.331678 0.141389 0.730626 -0.557411
C25   C     C_3   0.261628 0.141173 0.850727 -0.128092
H16   H     H_    0.302949 0.193736 0.937189 0.206803
H17   H     H_    0.239055 0.047021 0.886784 0.131740
H18   H     H_    0.180453 0.186390 0.825318 0.170651
O12   O     O_3   0.492435 0.118355 0.877671 -0.631450
C26   C     C_3   0.610089 0.148739 0.859995 -0.387876
H19   H     H_    0.623035 0.228713 0.790927 0.211659
H20   H     H_    0.658495 0.069172 0.821370 0.151246
H21   H     H_    0.646472 0.175236 0.962645 0.191169
N7    N     N_3   0.316247 0.386105 0.137764 -0.601316
H22   H     H_    0.345858 0.330362 0.216440 0.280801
H23   H     H_    0.254782 0.446825 0.172390 0.232375
O13   O     O_3   0.310584 0.416003 0.852985 -0.528155
C27   C     C_3   0.211561 0.481414 0.889269 -0.331758
H24   H     H_    0.162884 0.501039 0.793698 0.194479
H25   H     H_    0.229622 0.571072 0.942672 0.111641
H26   H     H_    0.154371 0.422884 0.954862 0.175518
N8    N     N_3   0.792313 0.604545 0.860762 -0.554169
H27   H     H_    0.800359 0.642560 0.761766 0.231063
H28   H     H_    0.801696 0.509663 0.850744 0.232784

loop_
_geom_bond_atom_site_label_1
_geom_bond_atom_site_label_2
_ccdc_geom_bond_type
N6    H14   S    
C19   C20   S    
C7    N6    S    
C7    C8    S    
N4    H5    S    
O9    C23   S    
C23   H10   S    
N3    H2    S    
N8    H28   S    
C18   C19   T    
C5    C6    A    
C11   O13   S    
C6    C22   A    
C1    C2    S    
C9    C13   A    
Cu2   O2    S    
C5    C16   S    
C8    O11   S    
N7    H22   S    
C2    C22   A    
C1    O1    A    
C8    C22   S    
Cu1   Cu2   S    
Cu1   N2    S    
C10   N1    A    
C25   H16   S    
C13   C14   S    
N5    H7    S    
C27   H26   S    
C9    N1    A    
C4    O9    S    
C23   H9    S    
C25   H17   S    
Cu2   O8    S    
C24   H11   S    
Cu1   O3    S    
N8    H27   S    
C7    O10   S    
C27   H25   S    
N4    H4    S    
C27   H24   S    
O11   C25   S    
C17   C21   S    
C24   H12   S    
C14   N8    S    
C26   H21   S    
C16   O6    A    
C11   N2    A    
Cu1   O7    S    
C1    O2    A    
O10   C24   S    
Cu1   O1    S    
C15   N4    S    
N6    H15   S    
C12   O4    A    
N5    H6    S    
C3    C4    A    
C23   H8    S    
C25   H18   S    
C12   O3    A    
C15   N5    S    
Cu2   N1    S    
C4    C5    A    
C6    C7    S    
C10   N7    S    
C16   O5    A    
Cu2   O6    S    
C24   H13   S    
Cu1   O5    S    
N3    H3    S    
C2    C3    A    
C9    C15   S    
Cu2   O4    S    
O13   C27   S    
C26   H19   S    
C3    N3    S    
C14   H1    S    
C10   C11   A    
C8    O12   S    
O12   C26   S    
C20   C21   T    
N7    H23   S    
C17   O7    A    
C12   C18   S    
C14   C15   S    
C13   N2    A    
C17   O8    A    
C26   H20   S    
