data_mof_unit_41002.cif
_audit_creation_date              2012-12-11T15:18:34-0500
_audit_creation_method            fapswitch 2.2
_symmetry_space_group_name_H-M    P1
_symmetry_Int_Tables_number       1
_space_group_crystal_system       triclinic
_cell_length_a                    16.071625
_cell_length_b                    16.013148
_cell_length_c                    17.841853
_cell_angle_alpha                 107.649418
_cell_angle_beta                  105.846862
_cell_angle_gamma                 110.114948
_cell_volume                      3725.51476083

loop_
_atom_site_label
_atom_site_type_symbol
_atom_type_description
_atom_site_fract_x
_atom_site_fract_y
_atom_site_fract_z
_atom_type_partial_charge
C1    C     C_R   0.895328 0.895750 0.666174 0.596636
C2    C     C_R   0.921207 0.708804 0.455649 0.547861
C3    C     C_R   0.765936 0.810576 0.250458 0.511948
C4    C     C_R   0.087571 0.286706 0.509852 -0.213060
C5    C     C_R   0.265682 0.979479 0.561356 -0.214858
C6    C     C_R   0.705500 0.721274 0.246453 -0.333976
C7    C     C_R   0.318757 0.021857 0.523153 -0.081879
C8    C     C_R   0.007070 0.699550 0.475686 -0.111624
C9    C     C_R   0.031085 0.082253 0.260609 -0.015411
C10   C     C_1   0.642478 0.038768 0.535105 0.032576
C11   C     C_1   0.576267 0.047399 0.545580 -0.011220
C12   C     C_R   0.009864 0.298091 0.469841 -0.114963
C13   C     C_1   0.492027 0.046817 0.547722 -0.024800
C14   C     C_1   0.414087 0.038038 0.540027 0.008041
C15   C     C_1   0.021103 0.382196 0.456182 -0.022548
C16   C     C_R   0.259908 0.173674 0.734485 0.224966
C17   C     C_1   0.026612 0.455213 0.450189 -0.013553
C18   C     C_1   0.024754 0.540488 0.451158 -0.010966
C19   C     C_1   0.017464 0.613301 0.459123 -0.022360
C20   C     C_1   0.408288 0.333955 0.806666 -0.027232
C21   C     C_2   0.556257 0.463830 0.954425 0.255836
C22   C     C_2   0.536079 0.468610 0.024066 0.248309
C23   C     C_R   0.314206 0.264653 0.739593 -0.150723
C24   C     C_1   0.593029 0.557000 0.103514 0.023326
C25   C     C_1   0.480773 0.392752 0.870767 0.025851
C26   C     C_1   0.641686 0.632162 0.168904 -0.008316
C27   C     C_1   0.043621 0.063239 0.183074 -0.030696
C28   C     C_R   0.745259 0.037102 0.455109 0.220235
C29   C     C_2   0.061341 0.000691 0.037480 0.502411
C30   C     C_2   0.982754 0.919926 0.970201 0.141118
C31   C     C_1   0.971525 0.910064 0.885708 0.079592
C32   C     C_1   0.053943 0.037702 0.117836 -0.126774
C33   C     C_1   0.967617 0.915666 0.819928 0.003987
C34   C     C_R   0.715266 0.020835 0.516941 -0.154824
C35   C     C_R   0.261542 0.270406 0.667323 0.523806
C36   C     C_R   0.749129 0.960786 0.540683 0.491584
C37   C     C_R   0.924913 0.209564 0.436911 0.587232
C38   C     C_R   0.054464 0.995780 0.746444 0.503892
C39   C     C_R   0.970295 0.935118 0.748074 -0.332527
C40   C     C_3   0.798481 0.739293 0.656717 0.197295
C41   C     C_3   0.863485 0.690966 0.639906 -0.314536
C42   C     C_3   0.860440 0.620772 0.682016 -1.000734
C43   C     C_3   0.335572 0.086503 0.384614 0.158332
C44   C     C_3   0.435873 0.158659 0.397630 -0.235987
C45   C     C_R   0.738293 0.729901 0.330609 0.557260
C46   C     C_3   0.462384 0.115360 0.324333 -1.053479
C47   C     C_3   0.850658 0.023833 0.215240 -0.796776
C48   C     C_3   0.193928 0.206593 0.380086 -0.845496
C49   C     C_3   0.806545 0.548678 0.343451 0.208855
C50   C     C_3   0.838316 0.568528 0.273772 -0.383545
C51   C     C_3   0.791888 0.473304 0.190472 -0.974141
C52   C     C_3   0.823456 0.763897 0.147132 0.197401
C53   C     C_3   0.933628 0.807107 0.200518 -0.352917
C54   C     C_3   0.971072 0.734466 0.167005 -1.020420
C55   C     C_3   0.445416 0.390715 0.018541 -1.082040
C56   C     C_R   0.272049 0.064164 0.482150 0.557643
C57   C     C_3   0.646728 0.540768 0.959526 -1.074680
C58   C     C_3   0.896983 0.854532 0.979839 -1.085447
C59   C     C_3   0.229768 0.104668 0.096946 0.178714
C60   C     C_3   0.258935 0.214602 0.144513 -0.284393
C61   C     C_3   0.358039 0.269114 0.222255 -1.033138
C62   C     C_3   0.305591 0.120159 0.772715 -0.818878
C63   C     C_3   0.675606 0.026765 0.373099 -0.878591
C64   C     C_3   0.349990 0.433610 0.690673 0.177150
C65   C     C_3   0.291184 0.470909 0.734732 -0.378008
C66   C     C_3   0.348087 0.582539 0.791238 -0.951395
C67   C     C_R   0.084016 0.791038 0.531859 -0.193903
C68   C     C_3   0.630126 0.824537 0.530400 0.261838
C69   C     C_3   0.578698 0.787601 0.582935 -0.254721
C70   C     C_3   0.487965 0.687455 0.525032 -1.057447
C71   C     C_3   0.802847 0.254835 0.387036 0.177428
C72   C     C_3   0.807281 0.303517 0.478190 -0.358903
C73   C     C_3   0.762379 0.373733 0.482045 -0.980172
C74   C     C_3   0.148411 0.127230 0.882196 0.263511
C75   C     C_3   0.157116 0.217227 0.864515 -0.402535
C76   C     C_3   0.144684 0.290895 0.932476 -0.987008
C77   C     C_3   0.592949 0.602449 0.314110 0.233794
C78   C     C_R   0.945320 0.027485 0.262754 0.258048
C79   C     C_3   0.517663 0.639857 0.291110 -0.366477
C80   C     C_3   0.414985 0.554058 0.233491 -0.971979
C81   C     C_R   0.105627 0.106970 0.335901 0.210746
H1    H     H_    0.159283 0.808228 0.563832 0.141881
H2    H     H_    0.784169 0.562609 0.657065 0.264335
H3    H     H_    0.279438 0.070131 0.322203 0.111631
H4    H     H_    0.335248 0.014753 0.377754 0.081995
H5    H     H_    0.435885 0.228946 0.400543 0.200370
H6    H     H_    0.492327 0.175905 0.460227 0.208661
H7    H     H_    0.466179 0.046851 0.322558 0.276000
H8    H     H_    0.534841 0.169855 0.335102 0.270568
H9    H     H_    0.407213 0.097897 0.260931 0.268796
H10   H     H_    0.863005 0.099275 0.223344 0.224877
H11   H     H_    0.820612 0.974619 0.145057 0.245531
H12   H     H_    0.289253 0.953242 0.608220 0.134950
H13   H     H_    0.797238 0.996985 0.241416 0.255670
H14   H     H_    0.247085 0.205109 0.351862 0.241122
H15   H     H_    0.172227 0.262707 0.370474 0.218154
H16   H     H_    0.228174 0.230935 0.450967 0.294603
H17   H     H_    0.726156 0.500839 0.311861 0.134627
H18   H     H_    0.836477 0.504326 0.367296 0.088237
H19   H     H_    0.816668 0.621919 0.258369 0.202955
H20   H     H_    0.918883 0.600893 0.297595 0.201084
H21   H     H_    0.812995 0.418366 0.203838 0.266958
H22   H     H_    0.817329 0.489528 0.142165 0.267933
H23   H     H_    0.163322 0.336495 0.530644 0.187629
H24   H     H_    0.710988 0.441390 0.162430 0.266073
H25   H     H_    0.811167 0.757496 0.080970 0.141309
H26   H     H_    0.786958 0.687294 0.138785 0.113743
H27   H     H_    0.973737 0.875341 0.195526 0.210059
H28   H     H_    0.949804 0.824567 0.269645 0.199366
H29   H     H_    0.935351 0.665829 0.173570 0.274474
H30   H     H_    0.051199 0.768773 0.205455 0.272473
H31   H     H_    0.956073 0.715259 0.097790 0.272815
H32   H     H_    0.455500 0.393598 0.083566 0.255706
H33   H     H_    0.382103 0.403585 0.993151 0.267204
H34   H     H_    0.721672 0.679515 0.620422 0.124784
H35   H     H_    0.429796 0.315298 0.975730 0.256754
H36   H     H_    0.650507 0.519798 0.895651 0.263616
H37   H     H_    0.646082 0.613213 0.979204 0.258694
H38   H     H_    0.712611 0.547021 0.006825 0.252626
H39   H     H_    0.846478 0.786348 0.918217 0.264587
H40   H     H_    0.923681 0.831950 0.030628 0.260279
H41   H     H_    0.856188 0.894858 0.998103 0.268519
H42   H     H_    0.285619 0.099012 0.073173 0.131677
H43   H     H_    0.231465 0.069459 0.142229 0.084570
H44   H     H_    0.262848 0.249150 0.099344 0.198220
H45   H     H_    0.808433 0.767974 0.724951 0.100133
H46   H     H_    0.203291 0.222872 0.167428 0.209746
H47   H     H_    0.354905 0.237247 0.269208 0.272024
H48   H     H_    0.377637 0.348463 0.255215 0.270621
H49   H     H_    0.415542 0.263454 0.201008 0.269559
H50   H     H_    0.373019 0.130465 0.762731 0.216472
H51   H     H_    0.325583 0.150214 0.843399 0.244766
H52   H     H_    0.255321 0.039449 0.740227 0.258746
H53   H     H_    0.604928 0.959561 0.347402 0.213065
H54   H     H_    0.660668 0.090895 0.385513 0.249454
H55   H     H_    0.702893 0.015750 0.322106 0.269141
H56   H     H_    0.836956 0.648479 0.568919 0.236422
H57   H     H_    0.367998 0.475585 0.652982 0.135936
H58   H     H_    0.421628 0.451625 0.738656 0.120608
H59   H     H_    0.220835 0.453229 0.684554 0.211528
H60   H     H_    0.275058 0.434333 0.776578 0.195613
H61   H     H_    0.418237 0.601768 0.842772 0.267575
H62   H     H_    0.304383 0.607353 0.822460 0.269924
H63   H     H_    0.363309 0.622056 0.751189 0.261382
H64   H     H_    0.646753 0.767184 0.494330 0.169751
H65   H     H_    0.578682 0.835876 0.483004 0.047413
H66   H     H_    0.629349 0.780354 0.634095 0.215815
H67   H     H_    0.940571 0.747528 0.665763 0.197352
H68   H     H_    0.556930 0.842330 0.615114 0.197749
H69   H     H_    0.435278 0.693327 0.474251 0.275988
H70   H     H_    0.451991 0.662735 0.564845 0.276334
H71   H     H_    0.508462 0.631213 0.493473 0.272153
H72   H     H_    0.725310 0.218413 0.339640 0.134279
H73   H     H_    0.841161 0.309836 0.366926 0.108146
H74   H     H_    0.767377 0.245878 0.495416 0.213580
H75   H     H_    0.883928 0.346599 0.528087 0.197546
H76   H     H_    0.805547 0.436256 0.471247 0.269460
H77   H     H_    0.762654 0.403959 0.546941 0.276700
H78   H     H_    0.890259 0.662447 0.753576 0.272833
H79   H     H_    0.685661 0.334071 0.432353 0.261393
H80   H     H_    0.213919 0.152615 0.941564 0.147125
H81   H     H_    0.084489 0.101054 0.897432 0.138340
H82   H     H_    0.230516 0.255978 0.867270 0.218444
H83   H     H_    0.100806 0.193280 0.799347 0.205283
H84   H     H_    0.071069 0.255835 0.931064 0.272049
H85   H     H_    0.152630 0.355551 0.918516 0.273555
H86   H     H_    0.201361 0.317518 0.998223 0.266328
H87   H     H_    0.571797 0.559922 0.350621 0.123643
H88   H     H_    0.591033 0.548155 0.256879 0.094583
H89   H     H_    0.905488 0.584645 0.666746 0.278306
H90   H     H_    0.517262 0.685992 0.351366 0.192627
H91   H     H_    0.536300 0.686422 0.257283 0.211477
H92   H     H_    0.412501 0.506224 0.172218 0.274372
H93   H     H_    0.362734 0.583495 0.217352 0.271339
H94   H     H_    0.392082 0.509345 0.267848 0.261920
N1    N     N_R   0.932430 0.938480 0.620530 -0.126394
N2    N     N_R   0.173120 0.127600 0.665820 -0.089854
N3    N     N_R   0.812300 0.005460 0.456230 -0.098817
N4    N     N_R   0.178530 0.184580 0.620530 -0.106262
N5    N     N_R   0.806890 0.948480 0.501510 -0.112475
N6    N     N_R   0.952060 0.145220 0.456230 -0.093425
N7    N     N_R   0.033360 0.987840 0.665820 -0.131755
N8    N     N_R   0.821470 0.815420 0.379470 -0.127206
N9    N     N_R   0.193110 0.051520 0.498490 -0.091669
N10   N     N_R   0.047940 0.854780 0.543770 -0.077747
N11   N     N_R   0.966640 0.012160 0.334180 -0.082875
N12   N     N_R   0.067570 0.061520 0.379470 -0.084349
N13   N     N_R   0.947010 0.805420 0.498490 -0.089585
N14   N     N_R   0.826880 0.872400 0.334180 -0.137172
N15   N     N_R   0.187700 0.994540 0.543770 -0.064787
N16   N     N_R   0.052990 0.194580 0.501510 -0.068387
Ni1   Ni    Ni4+2 0.878060 0.878060 0.500000 0.256475
Ni2   Ni    Ni4+2 0.121940 0.121940 0.500000 0.226288
Ni3   Ni    Ni4+2 0.109540 0.991270 0.603850 0.182637
Ni4   Ni    Ni4+2 0.890460 0.008730 0.396150 0.195179
O1    O     O_3   0.805310 0.810701 0.624420 -0.636239
O2    O     O_3   0.688072 0.681149 0.369754 -0.631639
O3    O     O_3   0.313378 0.131321 0.453071 -0.664952
O4    O     O_3   0.824831 0.635100 0.412642 -0.650286
O5    O     O_3   0.783114 0.824297 0.182048 -0.655940
O6    O     O_3   0.138980 0.055888 0.023424 -0.699701
O7    O     O_3   0.297259 0.331962 0.630944 -0.675890
O8    O     O_3   0.718554 0.912168 0.587422 -0.639203
O9    O     O_3   0.832772 0.179878 0.375914 -0.687184
O10   O     O_3   0.146715 0.051449 0.813896 -0.658662

loop_
_geom_bond_atom_site_label_1
_geom_bond_atom_site_label_2
_ccdc_geom_bond_type
C1    N1    A    
C72   H75   S    
C38   O10   S    
C11   C13   S    
C41   C42   S    
C42   H78   S    
C70   H69   S    
N10   Ni3   S    
C43   C44   S    
C3    C6    A    
N8    Ni1   S    
C46   H8    S    
C64   H57   S    
C53   C54   S    
C16   N2    A    
C77   H87   S    
N1    N7    A    
C48   H16   S    
C73   H79   S    
C9    C27   S    
C33   C39   S    
C62   H52   S    
C57   H36   S    
C60   H44   S    
C6    C45   A    
C24   C26   T    
C80   H92   S    
C29   C32   S    
C3    N14   A    
C49   O4    S    
C30   C31   S    
N1    Ni1   S    
C40   H34   S    
C66   H63   S    
C20   C25   T    
C45   O2    S    
N9    Ni2   S    
C71   H72   S    
C73   H76   S    
C48   C81   S    
C54   H29   S    
C76   H86   S    
C75   H82   S    
C18   C19   T    
C47   H11   S    
C79   H90   S    
C12   C37   A    
C59   O6    S    
C21   C25   S    
C42   H89   S    
C49   H17   S    
C65   H59   S    
C37   O9    S    
C7    C14   S    
C52   H26   S    
C68   C69   S    
N2    N4    A    
C36   N5    A    
C46   H9    S    
C31   C33   T    
C76   H85   S    
N7    Ni3   S    
C36   O8    S    
C74   O10   S    
C4    C12   A    
C44   H6    S    
C46   H7    S    
C61   H48   S    
C57   H38   S    
C3    O5    S    
C52   H25   S    
C59   C60   S    
C72   H74   S    
C13   C14   T    
N12   Ni2   S    
C68   O8    S    
C59   H42   S    
C43   H3    S    
C4    N16   A    
N4    Ni2   S    
C16   C62   S    
C7    C56   A    
C44   H5    S    
N8    N14   A    
C47   H10   S    
C44   C46   S    
C50   C51   S    
C56   O3    S    
C77   C79   S    
C35   N4    A    
C71   O9    S    
C58   H41   S    
C8    C19   S    
C29   O6    S    
N2    Ni3   S    
C42   H2    S    
C2    O4    S    
C43   H4    S    
C63   H53   S    
C62   H51   S    
N11   Ni4   S    
C1    O1    S    
C70   H71   S    
C74   C75   S    
C48   H14   S    
C74   H81   S    
N15   Ni3   S    
N10   N13   A    
C66   H62   S    
C56   N9    A    
C61   H47   S    
C71   H73   S    
C73   H77   S    
C60   C61   S    
C51   H21   S    
C63   H54   S    
C79   H91   S    
C75   C76   S    
N16   Ni2   S    
C21   C57   S    
C29   C30   D    
C49   H18   S    
C65   H60   S    
N14   Ni4   S    
C5    H12   S    
C20   C23   S    
C51   H24   S    
C37   N6    A    
C58   H39   S    
C17   C18   S    
C6    C26   S    
C54   H31   S    
C76   H84   S    
C10   C34   S    
C61   H49   S    
C50   H20   S    
C78   N11   A    
C40   C41   S    
C65   C66   S    
C12   C15   S    
C23   C35   A    
N5    Ni1   S    
C69   H66   S    
C22   C24   S    
C68   H65   S    
C52   C53   S    
C45   N8    A    
C5    C7    A    
C40   O1    S    
C53   H28   S    
C59   H43   S    
C15   C17   T    
C64   O7    S    
C58   H40   S    
C48   H15   S    
C27   C32   T    
C41   H56   S    
C62   H50   S    
C60   H46   S    
C2    C8    A    
C70   H70   S    
C8    C67   A    
C80   H94   S    
C72   C73   S    
C5    N15   A    
C74   H80   S    
N3    N5    A    
C35   O7    S    
C22   C55   S    
C66   H61   S    
C55   H33   S    
C16   C23   A    
C55   H32   S    
N3    Ni4   S    
C50   H19   S    
C38   N7    A    
N13   Ni1   S    
C69   H68   S    
C63   H55   S    
C80   H93   S    
C71   C72   S    
C52   O5    S    
C64   C65   S    
N6    N16   A    
C53   H27   S    
C38   C39   A    
C41   H67   S    
C28   N3    A    
C51   H22   S    
C30   C58   S    
C47   H13   S    
C54   H30   S    
C4    H23   S    
C43   O3    S    
N9    N15   A    
C9    C78   A    
C69   C70   S    
N6    Ni4   S    
C2    N13   A    
C10   C11   T    
C1    C39   A    
C28   C34   A    
C79   C80   S    
C28   C63   S    
C34   C36   A    
C67   H1    S    
C77   H88   S    
C49   C50   S    
C55   H35   S    
C40   H45   S    
C75   H83   S    
C47   C78   S    
N11   N12   A    
C21   C22   D    
C77   O2    S    
C81   N12   A    
C68   H64   S    
C67   N10   A    
C9    C81   A    
C57   H37   S    
C64   H58   S    
