data_mof_unit_38426.cif
_audit_creation_date              2012-12-10T17:14:44-0500
_audit_creation_method            fapswitch 2.2
_symmetry_space_group_name_H-M    P1
_symmetry_Int_Tables_number       1
_space_group_crystal_system       triclinic
_cell_length_a                    10.622058
_cell_length_b                    12.99075
_cell_length_c                    11.688723
_cell_angle_alpha                 100.028248
_cell_angle_beta                  93.983896
_cell_angle_gamma                 90.400982
_cell_volume                      1584.13008601

loop_
_atom_site_label
_atom_site_type_symbol
_atom_type_description
_atom_site_fract_x
_atom_site_fract_y
_atom_site_fract_z
_atom_type_partial_charge
C1    C     C_R   0.499325 0.299061 0.478530 0.808899
C2    C     C_R   0.501140 0.700922 0.521464 0.816296
C3    C     C_R   0.483967 0.138981 0.563349 -0.266013
C4    C     C_R   0.516099 0.860900 0.436405 -0.275831
C5    C     C_R   0.489286 0.031050 0.554080 0.179564
C6    C     C_R   0.512056 0.968891 0.445949 0.182220
C7    C     C_R   0.381551 0.401913 0.020309 -0.409251
C8    C     C_R   0.617653 0.598875 0.979750 -0.432269
C9    C     C_R   0.392584 0.409916 0.143444 0.673540
C10   C     C_R   0.606926 0.591272 0.855787 0.686440
C11   C     C_R   0.551489 0.542017 0.157279 -0.049331
C12   C     C_R   0.449905 0.456816 0.842542 -0.047446
C13   C     C_R   0.543474 0.534983 0.034349 0.021339
C14   C     C_R   0.458047 0.463689 0.965220 0.014974
C15   C     C_R   0.259383 0.500036 0.500155 0.850262
C16   C     C_R   0.740664 0.499125 0.499732 0.850558
C17   C     C_3   0.049002 0.472759 0.600941 -0.283160
C18   C     C_3   0.951198 0.525122 0.398617 -0.274096
C19   C     C_3   0.959669 0.404715 0.508259 0.522901
C20   C     C_3   0.040398 0.593120 0.491265 0.525440
C21   C     C_3   0.877208 0.499074 0.499358 -0.098939
C22   C     C_3   0.122953 0.498958 0.500295 -0.098408
C23   C     C_3   0.965605 0.568836 0.591819 -0.289304
C24   C     C_3   0.034796 0.428912 0.407756 -0.281616
C25   C     C_R   0.499080 0.814308 0.533707 -0.034317
C26   C     C_R   0.502309 0.185658 0.466356 -0.043253
C27   C     C_R   0.530625 0.015684 0.349163 -0.218056
C28   C     C_R   0.472454 0.984333 0.651274 -0.230337
C29   C     C_R   0.526329 0.123782 0.359489 -0.214815
C30   C     C_R   0.477719 0.876284 0.641195 -0.188906
Cu1   Cu    Cu3+1 0.509400 0.507730 0.615930 0.986102
Cu2   Cu    Cu3+1 0.490600 0.492270 0.384070 0.980687
H1    H     H_    0.091138 0.449732 0.682161 0.152658
H2    H     H_    0.908431 0.547314 0.317236 0.152189
H3    H     H_    0.935696 0.626591 0.665652 0.148480
H4    H     H_    0.067641 0.372690 0.333783 0.166773
H5    H     H_    0.532940 0.813282 0.353210 0.146731
H6    H     H_    0.465516 0.186506 0.646170 0.146156
H7    H     H_    0.463323 0.841189 0.716920 0.160097
H8    H     H_    0.543100 0.158942 0.284320 0.148772
H9    H     H_    0.549219 0.968881 0.266054 0.138646
H10   H     H_    0.455079 0.031188 0.734675 0.132572
H11   H     H_    0.384155 0.401649 0.788690 0.131938
H12   H     H_    0.617332 0.597093 0.211171 0.135813
H13   H     H_    0.312649 0.348933 0.967870 0.140663
H14   H     H_    0.680782 0.654523 0.035549 0.143541
N1    N     N_R   0.523540 0.519360 0.790140 -0.210131
N2    N     N_R   0.476460 0.480640 0.209860 -0.213218
O1    O     O_R   0.506670 0.354460 0.582000 -0.595611
O2    O     O_R   0.493330 0.645540 0.418000 -0.598176
O3    O     O_R   0.490800 0.341410 0.386200 -0.573339
O4    O     O_R   0.509200 0.658590 0.613800 -0.546970
O5    O     O_R   0.324790 0.506500 0.597880 -0.606278
O6    O     O_R   0.675210 0.493500 0.402120 -0.605146
O7    O     O_R   0.308910 0.493440 0.402080 -0.528203
O8    O     O_R   0.691090 0.506560 0.597920 -0.538190
O9    O     O_3   0.908464 0.306434 0.518426 -0.615223
C31   C     C_3   0.004824 0.231580 0.517156 0.052398
H15   H     H_    0.990702 0.186723 0.588110 0.160053
H16   H     H_    0.102460 0.265934 0.534266 0.119301
C32   C     C_3   0.994035 0.155695 0.400951 -0.338377
H17   H     H_    0.902904 0.111610 0.392253 0.227996
H18   H     H_    0.994402 0.199772 0.327870 0.211146
C33   C     C_3   0.102940 0.079306 0.392042 -0.918777
H19   H     H_    0.194454 0.122159 0.395615 0.258103
H20   H     H_    0.090824 0.024216 0.307921 0.259613
H21   H     H_    0.104572 0.033811 0.464261 0.259461
O10   O     O_3   0.090719 0.692100 0.482731 -0.615854
C34   C     C_3   0.993142 0.765794 0.481940 0.054425
H22   H     H_    0.021912 0.836087 0.547522 0.156508
H23   H     H_    0.900260 0.738730 0.506345 0.123032
C35   C     C_3   0.976139 0.797852 0.362105 -0.335018
H24   H     H_    0.063258 0.838885 0.345278 0.227743
H25   H     H_    0.960635 0.727277 0.293537 0.213121
C36   C     C_3   0.863541 0.869452 0.355216 -0.938400
H26   H     H_    0.774442 0.824974 0.357649 0.253733
H27   H     H_    0.860839 0.900768 0.272680 0.257620
H28   H     H_    0.870674 0.935995 0.429311 0.266138
O11   O     O_3   0.673565 0.655244 0.795313 -0.590429
C37   C     C_3   0.767132 0.722678 0.861690 0.018774
H29   H     H_    0.834395 0.742871 0.800198 0.157958
H30   H     H_    0.825495 0.683905 0.923915 0.128862
C38   C     C_3   0.710210 0.825777 0.918519 -0.362844
H31   H     H_    0.667583 0.866191 0.849353 0.224800
H32   H     H_    0.634355 0.811156 0.974667 0.209523
C39   C     C_3   0.811041 0.897449 0.991741 -0.927771
H33   H     H_    0.856393 0.858033 0.060467 0.255667
H34   H     H_    0.767150 0.970338 0.033989 0.254156
H35   H     H_    0.884275 0.918343 0.935898 0.256047
O12   O     O_3   0.310698 0.355163 0.199649 -0.593364
C40   C     C_3   0.306161 0.246571 0.154160 0.023703
H36   H     H_    0.324012 0.204702 0.228550 0.174924
H37   H     H_    0.379537 0.220170 0.092126 0.113595
C41   C     C_3   0.174016 0.214097 0.098179 -0.347276
H38   H     H_    0.103624 0.234517 0.163899 0.217148
H39   H     H_    0.150079 0.256865 0.025521 0.209886
C42   C     C_3   0.164844 0.096804 0.051703 -0.923107
H40   H     H_    0.231109 0.075166 0.982366 0.251311
H41   H     H_    0.067287 0.075320 0.014341 0.256831
H42   H     H_    0.187755 0.052132 0.123030 0.259222

loop_
_geom_bond_atom_site_label_1
_geom_bond_atom_site_label_2
_ccdc_geom_bond_type
C35   H25   S    
C16   C21   S    
C27   C29   A    
C18   C21   S    
Cu1   O4    S    
C42   H40   S    
O9    C31   S    
C19   O9    S    
C17   C23   S    
C18   C24   S    
C15   O5    A    
C19   C21   S    
C12   H11   S    
C37   C38   S    
C5    C6    A    
C39   H34   S    
C31   H16   S    
C34   H23   S    
C32   H18   S    
C2    O2    A    
C15   C22   S    
Cu1   Cu2   S    
C3    H6    S    
O10   C34   S    
Cu1   O8    S    
Cu2   O7    S    
C32   H17   S    
C6    C27   A    
C31   C32   S    
Cu1   N1    S    
C13   C14   A    
Cu2   N2    S    
C11   N2    A    
C41   H38   S    
C17   H1    S    
Cu1   O1    S    
C12   N1    A    
Cu2   O6    S    
C42   H41   S    
C4    C25   A    
C8    H14   S    
C7    C14   A    
C33   H21   S    
C37   H30   S    
C40   H36   S    
C39   H33   S    
C35   H24   S    
C41   C42   S    
C31   H15   S    
C33   H20   S    
C34   C35   S    
C36   H26   S    
C16   O8    A    
Cu2   O3    S    
C40   H37   S    
C5    C28   A    
C18   H2    S    
C27   H9    S    
C38   H31   S    
C20   C23   S    
C11   H12   S    
C24   H4    S    
Cu1   O5    S    
C41   H39   S    
C36   H27   S    
Cu2   O2    S    
C2    O4    A    
C9    N2    A    
C4    C6    A    
C38   H32   S    
C20   C22   S    
C23   H3    S    
C21   C23   S    
C1    C26   S    
C22   C24   S    
C7    H13   S    
C42   H42   S    
C25   C30   A    
C7    C9    A    
C20   O10   S    
C3    C26   A    
C12   C14   A    
C37   H29   S    
C3    C5    A    
C39   H35   S    
C9    O12   S    
C10   O11   S    
C17   C22   S    
C1    O3    A    
C33   H19   S    
C28   C30   A    
C19   C24   S    
C32   C33   S    
C11   C13   A    
C35   C36   S    
O12   C40   S    
C29   H8    S    
C28   H10   S    
C17   C19   S    
C30   H7    S    
C2    C25   S    
C18   C20   S    
C34   H22   S    
C36   H28   S    
C16   O6    A    
O11   C37   S    
C8    C13   A    
C38   C39   S    
C4    H5    S    
C26   C29   A    
C8    C10   A    
C10   N1    A    
C1    O1    A    
C15   O7    A    
C40   C41   S    
