data_mof_unit_25801.cif
_audit_creation_date              2012-12-10T16:59:22-0500
_audit_creation_method            fapswitch 2.2
_symmetry_space_group_name_H-M    P1
_symmetry_Int_Tables_number       1
_space_group_crystal_system       triclinic
_cell_length_a                    19.317852
_cell_length_b                    10.9015
_cell_length_c                    9.841361
_cell_angle_alpha                 90.60529
_cell_angle_beta                  88.167714
_cell_angle_gamma                 89.647016
_cell_volume                      2071.30822569

loop_
_atom_site_label
_atom_site_type_symbol
_atom_type_description
_atom_site_fract_x
_atom_site_fract_y
_atom_site_fract_z
_atom_type_partial_charge
C1    C     C_R   0.509737 0.266633 0.499171 0.809899
C2    C     C_R   0.290887 0.508103 0.507351 -0.164465
C3    C     C_R   0.928739 0.545543 0.520806 0.413448
C4    C     C_R   0.068770 0.536746 0.525402 0.419476
C5    C     C_R   0.809751 0.589638 0.623023 0.108492
C6    C     C_R   0.737549 0.576366 0.612880 -0.265352
C7    C     C_R   0.708538 0.517625 0.500169 -0.158877
C8    C     C_R   0.752712 0.472382 0.394806 0.500906
C9    C     C_R   0.824068 0.489422 0.401036 -0.262796
C10   C     C_R   0.852982 0.543888 0.515084 -0.048066
C11   C     C_2   0.502533 0.937896 0.393181 0.486762
C12   C     C_R   0.367482 0.500977 0.501884 0.805567
C13   C     C_2   0.500401 0.868713 0.505696 -0.463452
C14   C     C_2   0.532687 0.063555 0.390514 0.016378
C15   C     C_2   0.534117 0.137242 0.502652 -0.161996
C16   C     C_2   0.525090 0.414577 0.921609 -0.030211
C17   C     C_2   0.501471 0.403658 0.070584 0.662801
C18   C     C_R   0.497737 0.734910 0.500961 0.834456
C19   C     C_R   0.632422 0.503326 0.498734 0.784180
C20   C     C_R   0.256265 0.528297 0.633413 -0.301717
C21   C     C_R   0.183982 0.540482 0.644390 0.115018
C22   C     C_R   0.145072 0.529222 0.524896 -0.025074
C23   C     C_R   0.179755 0.508339 0.399265 -0.280679
C24   C     C_R   0.251999 0.499774 0.388692 0.497252
Cu1   Cu    Cu3+1 0.500010 0.500020 0.638630 0.946666
Cu2   Cu    Cu3+1 0.499990 0.499980 0.361370 0.999947
H1    H     H_    0.285901 0.536452 0.724558 0.178407
H2    H     H_    0.507852 0.907610 0.604626 0.130839
H3    H     H_    0.560793 0.347396 0.876511 0.075044
H4    H     H_    0.150409 0.495975 0.308143 0.168854
H5    H     H_    0.702922 0.611592 0.692559 0.167452
H6    H     H_    0.857386 0.454062 0.318748 0.168695
N1    N     N_R   0.036417 0.588619 0.419520 -0.248850
N2    N     N_R   0.967610 0.592618 0.416990 -0.237036
N3    N     N_R   0.960908 0.491611 0.625191 -0.249944
N4    N     N_R   0.029640 0.487222 0.627314 -0.245328
N5    N     N_2   0.499250 0.498660 0.846910 -0.013202
N6    N     N_2   0.499230 0.498630 0.153040 -0.173234
O1    O     O_R   0.500010 0.321960 0.617040 -0.584218
O2    O     O_R   0.499990 0.321920 0.382900 -0.531027
O3    O     O_R   0.400160 0.500010 0.617110 -0.561803
O4    O     O_R   0.400130 0.499970 0.382960 -0.511884
O5    O     O_R   0.500010 0.678080 0.617100 -0.607588
O6    O     O_R   0.499990 0.678040 0.382960 -0.557275
O7    O     O_R   0.599870 0.500030 0.617040 -0.601099
O8    O     O_R   0.599840 0.499990 0.382890 -0.557894
C25   C     C_3   0.564501 0.102978 0.254943 -0.283345
C26   C     C_3   0.626038 0.020169 0.210083 -0.396183
C27   C     C_3   0.645832 0.039172 0.060456 -0.881708
H7    H     H_    0.602812 0.009253 0.995843 0.259356
H8    H     H_    0.656863 0.137220 0.040168 0.254172
H9    H     H_    0.692657 0.983700 0.032637 0.250457
H10   H     H_    0.671237 0.040157 0.273129 0.197358
H11   H     H_    0.613511 0.921887 0.223846 0.243761
H12   H     H_    0.524254 0.094996 0.178101 0.263126
H13   H     H_    0.583484 0.198705 0.257802 0.215742
C28   C     C_3   0.579087 0.104863 0.623348 -0.406260
C29   C     C_3   0.644488 0.029185 0.583978 -0.342194
C30   C     C_3   0.686445 0.999454 0.708012 -0.873238
H14   H     H_    0.698934 0.084581 0.764955 0.263628
H15   H     H_    0.656922 0.936270 0.775612 0.251982
H16   H     H_    0.735740 0.954047 0.674378 0.245768
H17   H     H_    0.631276 0.941605 0.533117 0.221832
H18   H     H_    0.677685 0.082428 0.512501 0.207227
H19   H     H_    0.598218 0.190975 0.670280 0.207257
H20   H     H_    0.547832 0.061221 0.705700 0.190230
O9    O     O_3   0.435064 0.532929 0.895336 -0.516271
C31   C     C_3   0.420921 0.656585 0.863097 -0.147536
H21   H     H_    0.386432 0.663215 0.776092 0.169743
H22   H     H_    0.467477 0.713954 0.845443 0.146076
H23   H     H_    0.392095 0.698988 0.951022 0.087350
O10   O     O_3   0.478297 0.292577 0.120878 -0.594804
C32   C     C_3   0.437976 0.230421 0.025009 -0.351021
H24   H     H_    0.471515 0.188248 0.943089 0.149846
H25   H     H_    0.398098 0.291591 0.981616 0.209367
H26   H     H_    0.409994 0.154992 0.077186 0.182568
C33   C     C_3   0.526541 0.619400 0.108250 -0.157633
C34   C     C_3   0.602437 0.647046 0.138607 -0.349293
C35   C     C_3   0.652081 0.550574 0.077921 -0.760115
H27   H     H_    0.638971 0.458190 0.116417 0.287170
H28   H     H_    0.649189 0.549073 0.965406 0.206480
H29   H     H_    0.705757 0.573689 0.105215 0.266130
H30   H     H_    0.616101 0.735444 0.089304 0.176640
H31   H     H_    0.611048 0.665251 0.246880 0.250574
H32   H     H_    0.526528 0.637410 0.001703 0.148259
H33   H     H_    0.491728 0.692197 0.148600 0.217886
C36   C     C_3   0.151542 0.567847 0.784211 -0.385637
C37   C     C_3   0.122117 0.698863 0.794221 -0.349116
C38   C     C_3   0.088475 0.724127 0.934240 -0.821831
H34   H     H_    0.044784 0.660150 0.953494 0.264574
H35   H     H_    0.127029 0.713128 0.014664 0.244703
H36   H     H_    0.068068 0.819572 0.938915 0.243080
H37   H     H_    0.164664 0.765529 0.776082 0.213273
H38   H     H_    0.082697 0.713732 0.716391 0.231022
H39   H     H_    0.111400 0.499147 0.810519 0.223369
H40   H     H_    0.190879 0.558340 0.863671 0.184213
O11   O     O_3   0.283781 0.471218 0.264211 -0.551300
C39   C     C_3   0.282478 0.575553 0.180715 -0.292020
H41   H     H_    0.307741 0.655473 0.229678 0.144047
H42   H     H_    0.228769 0.599650 0.152976 0.137920
H43   H     H_    0.312118 0.554122 0.084958 0.209100
C40   C     C_3   0.841920 0.653781 0.744248 -0.376247
C41   C     C_3   0.790765 0.707122 0.852187 -0.390376
C42   C     C_3   0.828400 0.771322 0.966634 -0.826011
H44   H     H_    0.863410 0.705893 0.016952 0.261750
H45   H     H_    0.859128 0.849364 0.926060 0.255726
H46   H     H_    0.789915 0.807155 0.043621 0.240111
H47   H     H_    0.755628 0.774288 0.805434 0.223684
H48   H     H_    0.759748 0.631537 0.896529 0.227386
H49   H     H_    0.875423 0.586899 0.795938 0.221783
H50   H     H_    0.875108 0.729458 0.705167 0.199591
O12   O     O_3   0.727116 0.410505 0.284952 -0.590401
C43   C     C_3   0.728989 0.284100 0.311580 -0.374098
H51   H     H_    0.688510 0.260703 0.389493 0.156819
H52   H     H_    0.780891 0.252214 0.343325 0.167253
H53   H     H_    0.717806 0.234571 0.216305 0.204412
O13   O     O_3   0.483247 0.888138 0.270160 -0.588374
C44   C     C_3   0.411374 0.906266 0.258437 -0.369194
H54   H     H_    0.396978 0.005167 0.267317 0.170684
H55   H     H_    0.381681 0.852155 0.335549 0.165443
H56   H     H_    0.396354 0.873477 0.156507 0.166805

loop_
_geom_bond_atom_site_label_1
_geom_bond_atom_site_label_2
_ccdc_geom_bond_type
C36   C37   S    
C4    N4    A    
C15   C28   S    
C32   H24   S    
N3    N4    A    
C28   H20   S    
C2    C12   S    
Cu1   O5    S    
C21   C36   S    
O11   C39   S    
C5    C40   S    
C19   O8    A    
Cu2   O6    S    
C7    C8    A    
C33   C34   S    
C26   H11   S    
C13   C18   S    
C8    O12   S    
C5    C6    A    
C11   C14   S    
C44   H54   S    
O12   C43   S    
C12   O4    A    
C9    H6    S    
Cu1   N5    S    
C4    N1    A    
C34   H30   S    
C8    C9    A    
C27   H8    S    
C36   H39   S    
C23   C24   A    
C13   H2    S    
C41   H47   S    
C1    C15   S    
C38   H35   S    
C9    C10   A    
C1    O2    A    
C16   N5    D    
C43   H53   S    
C6    H5    S    
C33   H32   S    
C30   H14   S    
C21   C22   A    
C32   H25   S    
C40   H50   S    
C42   H45   S    
C42   H44   S    
Cu1   Cu2   S    
C29   H18   S    
C26   H10   S    
C37   H38   S    
C30   H15   S    
C2    C20   A    
C24   O11   S    
C23   H4    S    
Cu1   O3    S    
C35   H28   S    
C1    O1    A    
C34   C35   S    
C16   C17   S    
C3    N2    A    
C16   H3    S    
O9    C31   S    
C44   H56   S    
C12   O3    A    
C18   O6    A    
C4    C22   S    
C25   C26   S    
C3    N3    A    
C27   H9    S    
C36   H40   S    
N1    N2    A    
C20   C21   A    
C38   H36   S    
C6    C7    A    
C26   C27   S    
N6    C33   S    
C33   H33   S    
C39   H41   S    
C39   H42   S    
C2    C24   A    
C32   H26   S    
C40   H49   S    
C11   O13   S    
Cu1   O7    S    
Cu2   O4    S    
C25   H12   S    
C43   H51   S    
C29   H17   S    
C37   H37   S    
C30   H16   S    
C14   C15   D    
C31   H21   S    
Cu2   N6    S    
C28   H19   S    
O10   C32   S    
C35   H29   S    
C19   O7    A    
C14   C25   S    
C20   H1    S    
C39   H43   S    
C7    C19   S    
C41   H48   S    
C29   C30   S    
C5    C10   A    
C3    C10   S    
O13   C44   S    
Cu1   O1    S    
C11   C13   D    
Cu2   O2    S    
C28   C29   S    
C31   H23   S    
N5    O9    S    
C17   N6    D    
C40   C41   S    
C44   H55   S    
Cu2   O8    S    
C35   H27   S    
C34   H31   S    
C37   C38   S    
C17   O10   S    
C31   H22   S    
C27   H7    S    
C41   C42   S    
C22   C23   A    
C38   H34   S    
C18   O5    A    
C42   H46   S    
C25   H13   S    
C43   H52   S    
