data_mof_unit_38419.cif
_audit_creation_date              2012-12-10T18:01:43-0500
_audit_creation_method            fapswitch 2.2
_symmetry_space_group_name_H-M    P1
_symmetry_Int_Tables_number       1
_space_group_crystal_system       triclinic
_cell_length_a                    10.839063
_cell_length_b                    9.637322
_cell_length_c                    19.345564
_cell_angle_alpha                 89.896221
_cell_angle_beta                  95.785175
_cell_angle_gamma                 90.000398
_cell_volume                      2010.53295542

loop_
_atom_site_label
_atom_site_type_symbol
_atom_type_description
_atom_site_fract_x
_atom_site_fract_y
_atom_site_fract_z
_atom_type_partial_charge
C1    C     C_R   0.262348 0.499953 0.499829 0.767285
C2    C     C_R   0.737647 0.499953 0.500133 0.767173
C3    C     C_R   0.492865 0.480677 0.930065 0.418913
C4    C     C_R   0.508367 0.481771 0.070107 0.422796
C5    C     C_R   0.511558 0.500082 0.368106 0.815781
C6    C     C_R   0.488461 0.499781 0.631913 0.816281
C7    C     C_R   0.063867 0.373684 0.499919 -0.188745
C8    C     C_R   0.936130 0.625674 0.499678 -0.186234
C9    C     C_R   0.936098 0.373687 0.499856 -0.188525
C10   C     C_R   0.063863 0.625674 0.500213 -0.186052
C11   C     C_R   0.871618 0.499755 0.499851 -0.010826
C12   C     C_R   0.128366 0.499752 0.500028 -0.010903
C13   C     C_R   0.415896 0.074506 0.455778 0.232894
C14   C     C_R   0.585218 0.925617 0.543563 0.234533
C15   C     C_R   0.584217 0.074202 0.544156 0.232349
C16   C     C_R   0.414892 0.925920 0.456380 0.233285
C17   C     C_R   0.538375 0.624231 0.253430 0.125046
C18   C     C_R   0.448595 0.369673 0.742028 0.127524
C19   C     C_R   0.465366 0.622769 0.746862 0.124774
C20   C     C_R   0.548801 0.370560 0.258002 0.134726
C21   C     C_R   0.525515 0.618947 0.179815 0.151585
C22   C     C_R   0.466106 0.362830 0.815366 0.143686
C23   C     C_R   0.481709 0.616703 0.820345 0.148035
C24   C     C_R   0.529960 0.364568 0.184794 0.140318
C25   C     C_R   0.517784 0.488728 0.146177 -0.021196
C26   C     C_R   0.484637 0.486376 0.854028 -0.016242
C27   C     C_R   0.532916 0.498892 0.292449 -0.157688
C28   C     C_R   0.467373 0.497839 0.707634 -0.156172
Cu1   Cu    Cu3+1 0.500000 0.640660 0.500000 0.916819
Cu2   Cu    Cu3+1 0.500000 0.359340 0.500000 0.916321
H1    H     H_    0.111795 0.275088 0.499976 0.151249
H2    H     H_    0.888297 0.724248 0.499052 0.149056
H3    H     H_    0.888158 0.275095 0.499720 0.151180
H4    H     H_    0.111707 0.724248 0.500854 0.149165
N1    N     N_R   0.500000 0.852070 0.500000 -0.189059
N2    N     N_R   0.500000 0.147930 0.500000 -0.189764
N3    N     N_R   0.612192 0.468642 0.036966 -0.226331
N4    N     N_R   0.388985 0.493240 0.963197 -0.221158
N5    N     N_R   0.604589 0.468121 0.967900 -0.235599
N6    N     N_R   0.396588 0.493725 0.032263 -0.234632
O1    O     O_R   0.319640 0.618740 0.500000 -0.587905
O2    O     O_R   0.680360 0.381260 0.500000 -0.592238
O3    O     O_R   0.680360 0.618740 0.500000 -0.588008
O4    O     O_R   0.319640 0.381260 0.500000 -0.592351
O5    O     O_R   0.499980 0.618820 0.400140 -0.581071
O6    O     O_R   0.500020 0.381180 0.599860 -0.578516
O7    O     O_R   0.500020 0.618820 0.599860 -0.580287
O8    O     O_R   0.499980 0.381180 0.400140 -0.577136
C29   C     C_3   0.567168 0.761729 0.289816 -0.799265
H5    H     H_    0.640770 0.747819 0.333524 0.242248
H6    H     H_    0.604891 0.841137 0.256356 0.219671
H7    H     H_    0.482187 0.804738 0.308548 0.239853
C30   C     C_3   0.398018 0.243347 0.701660 -0.790734
H8    H     H_    0.334306 0.274631 0.655727 0.239586
H9    H     H_    0.475001 0.179370 0.685607 0.239181
H10   H     H_    0.340080 0.177464 0.732525 0.220128
C31   C     C_3   0.435748 0.760961 0.711186 -0.800054
H11   H     H_    0.362252 0.748000 0.667377 0.242518
H12   H     H_    0.397059 0.838135 0.745431 0.221285
H13   H     H_    0.520454 0.805577 0.692819 0.239047
C32   C     C_3   0.603468 0.245094 0.297609 -0.794820
H14   H     H_    0.664331 0.276370 0.344585 0.240735
H15   H     H_    0.528798 0.175331 0.311873 0.236435
H16   H     H_    0.665954 0.186247 0.266243 0.221864
C33   C     C_3   0.518264 0.752760 0.137720 -0.835130
H17   H     H_    0.487731 0.738173 0.081868 0.238898
H18   H     H_    0.450057 0.824460 0.157795 0.234441
H19   H     H_    0.610853 0.802916 0.141147 0.231501
C34   C     C_3   0.464831 0.223013 0.851842 -0.841082
H20   H     H_    0.510794 0.225149 0.905651 0.239303
H21   H     H_    0.367727 0.187934 0.853863 0.234192
H22   H     H_    0.516166 0.144842 0.823798 0.233280
C35   C     C_3   0.498053 0.749936 0.862336 -0.835096
H23   H     H_    0.538151 0.733335 0.916684 0.237602
H24   H     H_    0.563162 0.820635 0.838777 0.233658
H25   H     H_    0.407021 0.802049 0.863742 0.233983
C36   C     C_3   0.521636 0.226368 0.146927 -0.845690
H26   H     H_    0.439191 0.225350 0.107885 0.237220
H27   H     H_    0.606295 0.210115 0.120097 0.242598
H28   H     H_    0.509700 0.136890 0.181736 0.232636
C37   C     C_3   0.321143 0.147058 0.404706 -0.776704
H29   H     H_    0.324468 0.259263 0.403067 0.279080
H30   H     H_    0.334166 0.116129 0.350797 0.190937
H31   H     H_    0.225922 0.119445 0.416214 0.197090
C38   C     C_3   0.686022 0.853030 0.590753 -0.785069
H32   H     H_    0.675423 0.742018 0.597259 0.278154
H33   H     H_    0.777391 0.871980 0.571357 0.199436
H34   H     H_    0.689495 0.891650 0.644688 0.187141
C39   C     C_3   0.679435 0.146472 0.594917 -0.780210
H35   H     H_    0.675246 0.258599 0.596954 0.279313
H36   H     H_    0.667781 0.114507 0.648891 0.189198
H37   H     H_    0.774457 0.119774 0.582744 0.198304
C40   C     C_3   0.314375 0.853646 0.409012 -0.786643
H38   H     H_    0.324931 0.742630 0.402670 0.278280
H39   H     H_    0.222811 0.872541 0.428170 0.199635
H40   H     H_    0.311431 0.892599 0.355065 0.187927

loop_
_geom_bond_atom_site_label_1
_geom_bond_atom_site_label_2
_ccdc_geom_bond_type
C40   H38   S    
C32   H16   S    
C35   H23   S    
C37   H29   S    
C30   H8    S    
C19   C31   S    
C30   H10   S    
C16   C40   S    
Cu1   O7    S    
Cu2   O8    S    
C16   N1    A    
C31   H12   S    
C13   C37   S    
C32   H15   S    
C23   C26   A    
C20   C32   S    
C34   H21   S    
C18   C30   S    
C5    C27   S    
C6    C28   S    
C20   C24   A    
C3    N4    A    
C33   H18   S    
C39   H36   S    
C22   C34   S    
C36   H26   S    
C21   C33   S    
C29   H7    S    
C30   H9    S    
C3    N5    A    
C40   H39   S    
Cu1   O3    S    
C9    H3    S    
C35   H24   S    
Cu2   O4    S    
C34   H20   S    
C1    C12   S    
C23   C35   S    
C2    C11   S    
C37   H30   S    
C4    C25   S    
C36   H27   S    
C7    C12   A    
C5    O8    A    
C7    H1    S    
C6    O7    A    
C38   H33   S    
C8    H2    S    
C4    N6    A    
C18   C28   A    
C24   C25   A    
C13   N2    A    
C17   C29   S    
C14   N1    A    
C31   H13   S    
C29   H6    S    
C38   H32   S    
C5    O5    A    
C17   C21   A    
Cu1   O5    S    
C17   C27   A    
C34   H22   S    
C19   C23   A    
Cu1   Cu2   S    
C15   C39   S    
C1    O4    A    
C2    O3    A    
C33   H19   S    
C10   H4    S    
C39   H37   S    
C19   C28   A    
C9    C11   A    
C10   C12   A    
C1    O1    A    
C29   H5    S    
C40   H40   S    
C35   H25   S    
C15   N2    A    
C37   H31   S    
C38   H34   S    
C7    C9    A    
C21   C25   A    
C6    O6    A    
Cu1   O1    S    
C18   C22   A    
Cu2   O6    S    
C3    C26   S    
C14   C38   S    
C20   C27   A    
Cu1   N1    S    
Cu2   N2    S    
N3    N5    A    
N4    N6    A    
C36   H28   S    
C31   H11   S    
C2    O2    A    
C8    C11   A    
C32   H14   S    
C24   C36   S    
C4    N3    A    
C8    C10   A    
C33   H17   S    
C22   C26   A    
C13   C16   A    
C14   C15   A    
Cu2   O2    S    
C39   H35   S    
