data_mof_unit_19373.cif
_audit_creation_date              2012-12-10T17:48:48-0500
_audit_creation_method            fapswitch 2.2
_symmetry_space_group_name_H-M    P1
_symmetry_Int_Tables_number       1
_space_group_crystal_system       triclinic
_cell_length_a                    15.768927
_cell_length_b                    10.495288
_cell_length_c                    9.977416
_cell_angle_alpha                 90.495942
_cell_angle_beta                  91.997477
_cell_angle_gamma                 92.369786
_cell_volume                      1648.75766215

loop_
_atom_site_label
_atom_site_type_symbol
_atom_type_description
_atom_site_fract_x
_atom_site_fract_y
_atom_site_fract_z
_atom_type_partial_charge
C1    C     C_R   0.505363 0.258301 0.498741 0.885535
C2    C     C_R   0.566226 0.039164 0.848447 -0.090168
C3    C     C_R   0.506354 0.938865 0.869596 0.375262
C4    C     C_R   0.338562 0.499803 0.498155 0.860014
C5    C     C_R   0.456310 0.887846 0.758761 -0.027582
C6    C     C_R   0.471714 0.936152 0.628581 -0.022603
C7    C     C_R   0.513113 0.054572 0.616787 0.052478
C8    C     C_R   0.504777 0.119379 0.494351 -0.137032
C9    C     C_R   0.472554 0.053796 0.376463 -0.010075
C10   C     C_R   0.437708 0.929909 0.388760 -0.063578
C11   C     C_R   0.453938 0.866287 0.508459 -0.253101
C12   C     C_3   0.950129 0.408646 0.621889 -0.251632
C13   C     C_R   0.362742 0.392212 0.127661 -0.123356
C14   C     C_R   0.328962 0.272307 0.087563 0.335061
C15   C     C_R   0.342195 0.233055 0.955548 0.309966
C16   C     C_R   0.482422 0.735679 0.500996 0.841044
C17   C     C_R   0.387537 0.317316 0.869890 0.426228
C18   C     C_R   0.442703 0.418703 0.927227 -0.001545
C19   C     C_R   0.437277 0.434555 0.068571 -0.090522
C20   C     C_R   0.559824 0.568910 0.074305 -0.049064
C21   C     C_R   0.556486 0.574291 0.929642 0.583149
C22   C     C_R   0.661290 0.500758 0.502225 0.898574
C23   C     C_3   0.916597 0.499039 0.509779 -0.020473
C24   C     C_3   0.050072 0.393872 0.609159 -0.167274
C25   C     C_3   0.041402 0.469267 0.356624 0.171962
C26   C     C_3   0.943434 0.446323 0.370995 -0.226159
C27   C     C_1   0.749854 0.500944 0.508012 -0.079484
C28   C     C_3   0.082536 0.498869 0.503426 -0.013780
C29   C     C_2   0.099357 0.407648 0.745199 0.598441
C30   C     C_2   0.921844 0.450396 0.759227 0.448477
C31   C     C_2   0.489393 0.102535 0.239847 0.455840
C32   C     C_2   0.628346 0.080816 0.956364 0.536411
C33   C     C_2   0.385696 0.790317 0.774235 0.510301
C34   C     C_3   0.954810 0.636666 0.532206 -0.400329
C35   C     C_2   0.380225 0.866720 0.284500 0.386732
C36   C     C_2   0.628931 0.639654 0.150253 0.467593
C37   C     C_2   0.069762 0.259304 0.561066 0.373150
C38   C     C_2   0.300448 0.492516 0.145574 0.502282
C39   C     C_2   0.076627 0.354026 0.286502 0.584848
C40   C     C_2   0.892917 0.498637 0.252393 0.643614
C41   C     C_2   0.098096 0.745578 0.475603 0.493505
C42   C     C_3   0.053864 0.636061 0.550575 0.385026
C43   C     C_1   0.824948 0.500562 0.511359 -0.032707
C44   C     C_1   0.174634 0.499921 0.497820 -0.107098
C45   C     C_1   0.249796 0.500115 0.495280 -0.119393
C46   C     C_R   0.565160 0.101654 0.725033 -0.175043
H1    H     H_    0.915889 0.315056 0.603871 0.238815
H2    H     H_    0.438923 0.878260 0.014603 0.386608
H3    H     H_    0.336744 0.778544 0.695330 0.048986
H4    H     H_    0.369567 0.764308 0.283735 0.081778
H5    H     H_    0.615952 0.694978 0.238253 0.113758
H6    H     H_    0.135422 0.236398 0.546853 0.111985
H7    H     H_    0.322023 0.591741 0.153785 0.088987
H8    H     H_    0.275602 0.242795 0.257021 0.340964
H9    H     H_    0.281074 0.068836 0.976348 0.418069
H10   H     H_    0.326592 0.240370 0.712885 0.376777
H11   H     H_    0.630380 0.726445 0.916332 0.343670
H12   H     H_    0.934792 0.694642 0.445027 0.214168
H13   H     H_    0.117916 0.588679 0.263355 0.369366
H14   H     H_    0.134687 0.312528 0.322804 0.041028
H15   H     H_    0.893476 0.600394 0.233999 0.112609
H16   H     H_    0.057507 0.740087 0.715705 0.351831
H17   H     H_    0.166957 0.753999 0.477789 0.053122
H18   H     H_    0.608278 0.183164 0.711193 0.200600
H19   H     H_    0.928141 0.341535 0.371100 0.190677
H20   H     H_    0.926559 0.682435 0.620168 0.179734
H21   H     H_    0.071672 0.446251 0.833656 0.124200
H22   H     H_    0.940935 0.543675 0.800060 0.112436
H23   H     H_    0.444935 0.084739 0.156420 0.122166
H24   H     H_    0.636063 0.023613 0.045660 0.136848
N1    N     N_R   0.499210 0.498800 0.142780 -0.134750
N2    N     N_R   0.499180 0.498720 0.857170 -0.091556
O1    O     O_R   0.500000 0.316780 0.614690 -0.566084
O2    O     O_2   0.876872 0.379352 0.825353 -0.456482
O3    O     O_2   0.556777 0.158507 0.217702 -0.553712
O4    O     O_2   0.672417 0.178524 0.946456 -0.494416
O5    O     O_3   0.499870 0.892015 0.997528 -0.829492
O6    O     O_2   0.382478 0.719538 0.870429 -0.588171
O7    O     O_2   0.337714 0.928674 0.206374 -0.567488
O8    O     O_2   0.702246 0.635599 0.115395 -0.543417
O9    O     O_2   0.015000 0.175323 0.538875 -0.529826
O10   O     O_2   0.224378 0.466492 0.144978 -0.576287
O11   O     O_3   0.272877 0.204254 0.165701 -0.685034
O12   O     O_R   0.499990 0.316750 0.385360 -0.571454
O13   O     O_3   0.306494 0.119638 0.903670 -0.755816
O14   O     O_3   0.375240 0.300594 0.734698 -0.689033
O15   O     O_3   0.610407 0.653294 0.858807 -0.703158
O16   O     O_3   0.055815 0.574667 0.272094 -0.735847
O17   O     O_2   0.042752 0.311458 0.182649 -0.455194
O18   O     O_2   0.850718 0.426692 0.177112 -0.458766
O19   O     O_3   0.076803 0.655335 0.687273 -0.807246
O20   O     O_2   0.058517 0.826856 0.416479 -0.511732
O21   O     O_R   0.377150 0.500020 0.614720 -0.526332
O22   O     O_R   0.377140 0.499990 0.385380 -0.678289
O23   O     O_R   0.500010 0.683250 0.614640 -0.575753
O24   O     O_R   0.500000 0.683220 0.385310 -0.662456
O25   O     O_R   0.622860 0.500010 0.614620 -0.558330
O26   O     O_R   0.622850 0.499980 0.385280 -0.607163
O27   O     O_2   0.173530 0.378663 0.757095 -0.560045
Zn1   Zn    Zn3+2 0.500010 0.500020 0.653130 1.079180
Zn2   Zn    Zn3+2 0.499990 0.499980 0.346870 0.971472

loop_
_geom_bond_atom_site_label_1
_geom_bond_atom_site_label_2
_ccdc_geom_bond_type
O1    Zn1   S    
C21   O15   S    
C22   O26   A    
C1    C8    S    
C41   C42   S    
C19   N1    A    
C34   C42   S    
C34   H20   S    
C7    C8    A    
C2    C46   A    
C1    O12   A    
C12   C23   S    
C18   C19   A    
C5    C6    A    
C30   O2    D    
C33   O6    D    
C33   H3    S    
C23   C43   S    
C2    C32   S    
C42   O19   S    
C23   C26   S    
C28   C42   S    
C24   C29   S    
H13   O16   S    
H10   O14   S    
O22   Zn2   S    
C8    C9    A    
C5    C33   S    
C20   N1    A    
C10   C35   S    
C9    C10   A    
C15   O13   S    
N1    Zn2   S    
C22   O25   A    
C29   H21   S    
O24   Zn2   S    
C38   O10   D    
O12   Zn2   S    
C37   O9    D    
C14   O11   S    
C12   H1    S    
H8    O11   S    
C17   C18   A    
C4    C45   S    
C18   N2    A    
C16   O24   A    
C13   C19   A    
C21   N2    A    
C17   O14   S    
C7    C46   A    
C36   O8    D    
C6    C11   A    
C37   H6    S    
C29   O27   D    
O23   Zn1   S    
C32   H24   S    
C25   C26   S    
C28   C44   S    
C25   O16   S    
C40   H15   S    
H11   O15   S    
C46   H18   S    
C25   C28   S    
H2    O5    S    
H9    O13   S    
C11   C16   S    
C31   O3    D    
C23   C34   S    
H16   O19   S    
C35   H4    S    
C24   C37   S    
O21   Zn1   S    
C13   C38   S    
C36   H5    S    
C4    O22   A    
C22   C27   S    
C41   H17   S    
C3    O5    S    
O25   Zn1   S    
C44   C45   T    
N2    Zn1   S    
C15   C17   A    
C16   O23   A    
C12   C30   S    
C26   H19   S    
C24   C28   S    
C3    C5    A    
C32   O4    D    
C6    C7    A    
O26   Zn2   S    
C12   C24   S    
C1    O1    A    
C2    C3    A    
C25   C39   S    
C26   C40   S    
C38   H7    S    
C39   H14   S    
C35   O7    D    
C10   C11   A    
C9    C31   S    
C4    O21   A    
C20   C36   S    
C27   C43   T    
C31   H23   S    
C41   O20   D    
C20   C21   A    
C34   H12   S    
C14   C15   A    
C40   O18   D    
C13   C14   A    
C39   O17   D    
C30   H22   S    
