data_mof_unit_24605.cif
_audit_creation_date              2013-03-05T16:32:07-0500
_audit_creation_method            fapswitch 2.2
_symmetry_space_group_name_H-M    P1
_symmetry_Int_Tables_number       1
_space_group_crystal_system       triclinic
_cell_length_a                    10.783366
_cell_length_b                    10.907912
_cell_length_c                    9.663138
_cell_angle_alpha                 91.557463
_cell_angle_beta                  90.724023
_cell_angle_gamma                 92.532448
_cell_volume                      1134.97849227

loop_
_atom_site_label
_atom_site_type_symbol
_atom_site_description
_atom_site_fract_x
_atom_site_fract_y
_atom_site_fract_z
_atom_type_partial_charge
O1    O     O_R   0.500000 0.319640 0.618810 -0.609496
O2    O     O_R   0.500010 0.319680 0.381230 -0.543765
C1    C     C_R   0.499471 0.263363 0.498300 0.803612
O3    O     O_R   0.317690 0.499960 0.618790 -0.593078
O4    O     O_R   0.317700 0.500000 0.381210 -0.536478
C2    C     C_R   0.259873 0.498372 0.499602 0.776240
Cu1   Cu    Cu3+1 0.499990 0.499980 0.640670 0.970294
Cu2   Cu    Cu3+1 0.500010 0.500020 0.359330 1.006552
O5    O     O_R   0.499990 0.680320 0.618770 -0.535745
O6    O     O_R   0.500000 0.680360 0.381190 -0.597698
O7    O     O_R   0.682300 0.500000 0.618790 -0.590916
O8    O     O_R   0.682310 0.500040 0.381210 -0.589890
C3    C     C_R   0.500843 0.737452 0.501499 0.832004
C4    C     C_R   0.739682 0.501330 0.500610 0.771553
C5    C     C_3   0.063703 0.380229 0.573445 -0.007584
H1    H     H_    0.087612 0.389070 0.684712 0.169632
C6    C     C_3   0.919890 0.378995 0.563167 -0.379292
H2    H     H_    0.882209 0.299910 0.497834 0.176882
H3    H     H_    0.881066 0.367864 0.668432 0.157833
H4    H     H_    0.117938 0.617084 0.687102 0.204862
H5    H     H_    0.906503 0.604112 0.697373 0.189698
C7    C     C_3   0.078236 0.612275 0.580102 -0.420738
C8    C     C_3   0.067395 0.497864 0.351538 -0.296905
C9    C     C_3   0.120970 0.496102 0.500517 0.087626
H6    H     H_    0.110694 0.574748 0.292959 0.203798
H7    H     H_    0.086291 0.409680 0.299442 0.254088
C10   C     C_3   0.877336 0.500002 0.501237 0.089338
C11   C     C_3   0.935067 0.610444 0.587578 -0.344358
C12   C     C_3   0.926820 0.508972 0.351795 -0.398498
H8    H     H_    0.883116 0.435127 0.283062 0.192362
H9    H     H_    0.903696 0.598747 0.308545 0.177640
H10   H     H_    0.112613 0.696322 0.527180 0.183663
H11   H     H_    0.901365 0.697786 0.547522 0.211954
C13   C     C_R   0.529048 0.069943 0.613658 -0.020428
C14   C     C_R   0.498644 0.131204 0.495571 -0.084727
C15   C     C_R   0.466927 0.059826 0.375699 -0.140736
H12   H     H_    0.442378 0.102734 0.280087 0.216308
C16   C     C_R   0.466487 0.930938 0.379010 -0.177434
H13   H     H_    0.441215 0.878754 0.285159 0.203257
C17   C     C_R   0.498562 0.870975 0.501896 -0.087563
C18   C     C_R   0.529065 0.945879 0.618070 0.021634
C19   C     C_3   0.577775 0.953420 0.765587 0.560488
C20   C     C_3   0.575157 0.094830 0.757872 -0.146289
H14   H     H_    0.503781 0.136992 0.823865 0.190685
C21   C     C_R   0.603703 0.536441 0.075868 0.144502
N1    N     N_R   0.500800 0.500930 0.147930 -0.253221
C22   C     C_R   0.405183 0.444745 0.071109 0.430267
C23   C     C_R   0.408112 0.438912 0.923041 0.158773
N2    N     N_R   0.500800 0.500890 0.852020 -0.192642
C24   C     C_R   0.604112 0.535034 0.929591 0.128115
C25   C     C_3   0.673233 0.654610 0.927721 -0.316747
C26   C     C_3   0.671443 0.658183 0.084875 -0.399906
H15   H     H_    0.767572 0.647234 0.884456 0.199140
H16   H     H_    0.614414 0.721510 0.880070 0.262948
H17   H     H_    0.765296 0.653085 0.132075 0.184143
H18   H     H_    0.614264 0.731613 0.129032 0.245842
N3    N     N_R   0.490031 0.904645 0.867305 0.071226
O9    O     O_R   0.391198 0.839154 0.828311 -0.370889
O10   O     O_R   0.507633 0.931845 0.998226 -0.376910
N4    N     N_R   0.703132 0.907829 0.782120 0.088294
O11   O     O_R   0.763267 0.925602 0.899095 -0.342023
O12   O     O_R   0.755889 0.850104 0.680664 -0.434064
C27   C     C_3   0.701484 0.165798 0.765030 -0.753909
H19   H     H_    0.766787 0.129620 0.687431 0.250945
H20   H     H_    0.689475 0.264211 0.746056 0.237269
H21   H     H_    0.742632 0.159923 0.870301 0.267465
N5    N     N_R   0.298201 0.393636 0.137477 0.121207
O13   O     O_R   0.306106 0.292492 0.204424 -0.386122
O14   O     O_R   0.189622 0.425667 0.095359 -0.445221
C28   C     C_3   0.113156 0.256759 0.521999 -0.832525
H22   H     H_    0.075908 0.181980 0.587608 0.247539
H23   H     H_    0.084195 0.234329 0.413406 0.262676
H24   H     H_    0.215891 0.257570 0.529676 0.226209
C29   C     C_3   0.307960 0.359406 0.850823 -0.681394
H25   H     H_    0.330286 0.324968 0.747881 0.245201
H26   H     H_    0.288496 0.274334 0.908850 0.226692
H27   H     H_    0.223109 0.412091 0.846222 0.236736

loop_
_geom_bond_atom_site_label_1
_geom_bond_atom_site_label_2
_geom_bond_distance
_ccdc_geom_bond_type
C27   H20   1.106853 S    
C10   C12   1.549903 S    
C18   C19   1.511794 S    
C14   C15   1.407957 A    
C20   C27   1.536634 S    
Cu1   Cu2   2.718641 S    
C21   N1    1.364712 A    
Cu1   O7    1.979899 S    
C7    H10   1.113391 S    
C8    C12   1.526069 S    
C15   H12   1.082140 S    
O1    C1    1.301379 A    
O4    C2    1.310017 A    
O7    C4    1.305827 A    
N3    O10   1.301189 A    
C5    H1    1.103156 S    
N4    O12   1.301325 A    
C13   C14   1.381110 A    
C8    H7    1.101717 S    
O5    C3    1.307950 A    
C3    C17   1.457654 S    
C29   H27   1.102836 S    
C8    C9    1.545333 S    
C28   H22   1.110952 S    
C4    C10   1.485028 S    
C26   H17   1.109071 S    
C27   H21   1.109247 S    
C7    C11   1.545719 S    
C13   C18   1.355119 A    
O3    Cu1   1.974477 S    
C19   N3    1.466933 S    
C22   N5    1.426270 S    
C6    H2    1.113896 S    
C29   H25   1.087344 S    
N5    O13   1.299499 A    
C6    C10   1.549330 S    
C23   C29   1.506898 S    
Cu1   N2    2.041966 S    
O3    C2    1.302032 A    
C19   N4    1.469144 S    
C21   C26   1.486942 S    
C25   C26   1.518435 S    
N4    O11   1.301621 A    
N5    O14   1.300170 A    
C20   H14   1.112791 S    
C12   H8    1.114233 S    
C22   C23   1.431304 A    
C1    C14   1.440741 S    
Cu2   O8    1.974475 S    
C2    C9    1.497093 S    
C28   H24   1.109001 S    
C24   C25   1.474062 S    
C5    C9    1.570332 S    
C29   H26   1.110672 S    
C23   N2    1.381969 A    
H5    C11   1.111596 S    
O8    C4    1.301714 A    
C11   H11   1.112049 S    
C7    C9    1.554724 S    
C19   C20   1.547788 S    
C5    C6    1.552162 S    
C5    C28   1.542450 S    
N1    C22   1.374715 A    
C17   C18   1.397516 A    
O1    Cu1   1.972730 S    
O2    Cu2   1.984193 S    
C13   C20   1.487590 S    
H4    C7    1.113102 S    
O6    C3    1.303589 A    
O4    Cu2   1.979898 S    
C25   H16   1.094820 S    
C15   C16   1.406935 A    
O2    C1    1.301837 A    
C12   H9    1.112195 S    
C16   C17   1.417516 A    
N3    O9    1.302331 A    
C16   H13   1.082925 S    
C21   C24   1.413229 A    
C6    H3    1.112509 S    
C8    H6    1.113394 S    
Cu2   N1    2.043206 S    
C27   H19   1.111618 S    
Cu1   O5    1.984195 S    
Cu2   O6    1.972730 S    
N2    C24   1.367021 A    
C10   C11   1.549484 S    
C28   H23   1.108838 S    
C25   H15   1.110082 S    
C26   H18   1.111532 S    
