data_mof_unit_15250.cif
_audit_creation_date              2012-12-10T20:03:07-0500
_audit_creation_method            fapswitch 2.2
_symmetry_space_group_name_H-M    P1
_symmetry_Int_Tables_number       1
_space_group_crystal_system       triclinic
_cell_length_a                    8.583533
_cell_length_b                    18.964227
_cell_length_c                    18.426058
_cell_angle_alpha                 91.399697
_cell_angle_beta                  98.390269
_cell_angle_gamma                 89.88233
_cell_volume                      2966.40399838

loop_
_atom_site_label
_atom_site_type_symbol
_atom_type_description
_atom_site_fract_x
_atom_site_fract_y
_atom_site_fract_z
_atom_type_partial_charge
C1    C     C_R   0.499285 0.365324 0.499069 0.988121
C2    C     C_R   0.499498 0.634533 0.500911 1.001682
C3    C     C_R   0.437129 0.975825 0.562330 -0.261321
C4    C     C_R   0.348469 0.026861 0.421150 -0.246036
C5    C     C_R   0.431321 0.048069 0.551920 0.514094
C6    C     C_R   0.369883 0.954702 0.430515 0.530844
C7    C     C_R   0.384370 0.073642 0.480918 0.035876
C8    C     C_R   0.411718 0.929252 0.502041 0.038001
C9    C     C_R   0.594061 0.546151 0.733739 -0.074754
C10   C     C_R   0.385915 0.462374 0.266843 -0.062843
C11   C     C_R   0.596433 0.546910 0.810186 -0.182252
C12   C     C_R   0.379967 0.460118 0.190206 -0.246056
C13   C     C_R   0.500861 0.499940 0.841525 0.228365
C14   C     C_R   0.492502 0.496760 0.157745 0.229408
C15   C     C_R   0.404228 0.453380 0.794942 -0.370387
C16   C     C_R   0.609905 0.534237 0.203721 -0.293900
C17   C     C_R   0.404266 0.453993 0.718273 0.646942
C18   C     C_R   0.610223 0.537096 0.280503 0.641564
C19   C     C_R   0.590358 0.449556 0.966138 0.354125
C20   C     C_R   0.394024 0.542850 0.032052 0.346669
C21   C     C_R   0.588788 0.448879 0.042798 0.243296
C22   C     C_R   0.403954 0.546715 0.956216 0.255859
C23   C     C_R   0.201241 0.500399 0.481296 0.912794
C24   C     C_R   0.798783 0.500701 0.518599 0.988260
C25   C     C_R   0.490200 0.495299 0.076288 -0.197011
C26   C     C_R   0.499731 0.499365 0.922606 -0.196664
C27   C     C_2   0.039147 0.489378 0.472734 0.098676
C28   C     C_2   0.960425 0.513451 0.526309 0.038311
C29   C     C_R   0.328332 0.736563 0.495721 -0.300354
C30   C     C_R   0.332645 0.265116 0.515408 -0.276404
C31   C     C_R   0.304316 0.808618 0.499428 0.431028
C32   C     C_R   0.293638 0.194396 0.505039 0.450088
C33   C     C_R   0.434629 0.853943 0.513245 -0.130219
C34   C     C_R   0.390412 0.149375 0.469592 -0.128728
C35   C     C_R   0.589343 0.827210 0.528710 0.376774
C36   C     C_R   0.517923 0.176610 0.438497 0.372931
C37   C     C_R   0.612778 0.754252 0.518710 0.238144
C38   C     C_R   0.566648 0.246267 0.457070 0.250837
C39   C     C_R   0.481187 0.709873 0.503178 -0.252593
C40   C     C_R   0.470724 0.290414 0.493550 -0.251357
H1    H     H_    0.330800 0.416304 0.818120 0.139016
H2    H     H_    0.701686 0.560609 0.180337 0.155165
H3    H     H_    0.227820 0.701262 0.485549 0.210988
H4    H     H_    0.256244 0.300318 0.541221 0.213918
H5    H     H_    0.465016 0.956286 0.617182 0.160832
H6    H     H_    0.308699 0.046400 0.367094 0.169619
H7    H     H_    0.668222 0.582319 0.709718 0.184530
H8    H     H_    0.299502 0.433488 0.291557 0.188894
H9    H     H_    0.672204 0.583741 0.844592 0.168101
H10   H     H_    0.289377 0.429321 0.156661 0.161609
N1    N     N_R   0.500020 0.499980 0.689440 -0.124880
N2    N     N_R   0.499980 0.500020 0.310560 -0.129318
O1    O     O_R   0.500010 0.398180 0.560840 -0.592022
O2    O     O_R   0.499990 0.601820 0.439160 -0.632434
O3    O     O_R   0.499930 0.398180 0.439210 -0.588197
O4    O     O_R   0.500070 0.601820 0.560790 -0.594331
O5    O     O_R   0.271780 0.500000 0.546590 -0.584268
O6    O     O_R   0.728220 0.500000 0.453410 -0.529759
O7    O     O_R   0.271710 0.499990 0.424960 -0.619220
O8    O     O_R   0.728290 0.500010 0.575040 -0.621080
Zn1   Zn    Zn3+2 0.500050 0.500000 0.581210 1.029306
Zn2   Zn    Zn3+2 0.499950 0.500000 0.418790 1.041103
Cl1   Cl    Cl    0.964174 0.429814 0.399765 -0.504652
Cl2   Cl    Cl    0.036034 0.573755 0.598443 -0.568145
O9    O     O_3   0.321948 0.403542 0.672335 -0.633797
C41   C     C_3   0.158583 0.405223 0.676740 0.097703
H11   H     H_    0.096034 0.413268 0.620563 0.190197
H12   H     H_    0.121198 0.448942 0.712082 0.160987
C42   C     C_3   0.105603 0.334196 0.702338 -0.377804
H13   H     H_    0.142502 0.291081 0.666607 0.270528
H14   H     H_    0.162150 0.325286 0.759510 0.209494
C43   C     C_3   0.926908 0.331685 0.699120 -0.887298
H15   H     H_    0.887048 0.374745 0.733980 0.259441
H16   H     H_    0.891794 0.280377 0.719527 0.257140
H17   H     H_    0.867957 0.337329 0.641724 0.286294
O10   O     O_3   0.732556 0.569519 0.326358 -0.588616
C44   C     C_3   0.735082 0.642980 0.314712 0.054407
H18   H     H_    0.660097 0.670005 0.351117 0.185605
H19   H     H_    0.691464 0.658055 0.257238 0.101296
C45   C     C_3   0.904473 0.669353 0.334322 -0.297576
H20   H     H_    0.949783 0.656550 0.392120 0.270847
H21   H     H_    0.979801 0.642065 0.298201 0.215346
C46   C     C_3   0.915333 0.748786 0.324786 -0.850055
H22   H     H_    0.872891 0.762484 0.267006 0.240623
H23   H     H_    0.039897 0.765973 0.338691 0.297771
H24   H     H_    0.843573 0.777295 0.361594 0.303819
O11   O     O_3   0.691456 0.405633 0.934245 -0.599144
C47   C     C_3   0.617543 0.339762 0.915200 0.144183
H25   H     H_    0.486432 0.343178 0.903304 0.105167
H26   H     H_    0.648468 0.303051 0.961181 0.190721
C48   C     C_3   0.678342 0.309508 0.846941 -0.355753
H27   H     H_    0.655910 0.347882 0.802003 0.235916
H28   H     H_    0.807535 0.300924 0.859412 0.234508
C49   C     C_3   0.597798 0.239889 0.820851 -0.929403
H29   H     H_    0.619573 0.200208 0.864514 0.264179
H30   H     H_    0.645752 0.219522 0.771622 0.268763
H31   H     H_    0.468925 0.247831 0.805914 0.272403
O12   O     O_3   0.298461 0.589407 0.064111 -0.602123
C50   C     C_3   0.142236 0.563469 0.051650 0.140709
H32   H     H_    0.132038 0.515952 0.084831 0.135792
H33   H     H_    0.103646 0.549091 0.992745 0.179285
C51   C     C_3   0.031345 0.620279 0.074420 -0.307144
H34   H     H_    0.057954 0.630376 0.134654 0.215577
H35   H     H_    0.049681 0.670050 0.046139 0.254763
C52   C     C_3   0.859676 0.597618 0.054558 -0.935083
H36   H     H_    0.827572 0.592204 0.994046 0.276123
H37   H     H_    0.781757 0.637717 0.075467 0.265813
H38   H     H_    0.841090 0.546257 0.079493 0.284733
Cl3   Cl    Cl    0.714339 0.390441 0.096740 -0.596191
Cl4   Cl    Cl    0.297284 0.612432 0.903758 -0.579016
Cl5   Cl    Cl    0.109981 0.841014 0.485977 -0.574694
Cl6   Cl    Cl    0.125019 0.163180 0.538459 -0.564551
O13   O     O_3   0.713471 0.874974 0.543322 -0.614939
C53   C     C_3   0.812586 0.863900 0.611088 0.207565
H39   H     H_    0.879592 0.913659 0.624987 0.169464
H40   H     H_    0.903237 0.823631 0.604598 0.239477
C54   C     C_3   0.727478 0.846751 0.676854 -0.484693
H41   H     H_    0.636587 0.886934 0.683211 0.219318
H42   H     H_    0.669584 0.794270 0.668363 0.246682
C55   C     C_3   0.843411 0.845385 0.747955 -0.856788
H43   H     H_    0.935552 0.804877 0.743733 0.287838
H44   H     H_    0.779787 0.832203 0.794184 0.274408
H45   H     H_    0.900133 0.897845 0.759739 0.255372
O14   O     O_3   0.603993 0.131774 0.398670 -0.616641
C56   C     C_3   0.600345 0.155412 0.325739 0.161130
H46   H     H_    0.691618 0.125569 0.300884 0.175945
H47   H     H_    0.632260 0.211842 0.323497 0.202202
C57   C     C_3   0.440619 0.142189 0.277696 -0.473908
H48   H     H_    0.419077 0.084751 0.270174 0.221322
H49   H     H_    0.344134 0.166159 0.304086 0.238551
C58   C     C_3   0.437024 0.173786 0.202073 -0.859285
H50   H     H_    0.453464 0.231889 0.207178 0.281571
H51   H     H_    0.321423 0.162507 0.168228 0.268171
H52   H     H_    0.531377 0.150338 0.173851 0.263244
Cl7   Cl    Cl    0.802488 0.718139 0.518670 -0.594626
Cl8   Cl    Cl    0.756475 0.275407 0.444644 -0.532202
O15   O     O_3   0.468955 0.093692 0.611680 -0.626127
C59   C     C_3   0.630760 0.111855 0.619442 0.095190
H53   H     H_    0.641009 0.169372 0.632271 0.175178
H54   H     H_    0.685850 0.102616 0.568656 0.174648
C60   C     C_3   0.722675 0.071991 0.683127 -0.404097
H55   H     H_    0.673241 0.084667 0.734383 0.239057
H56   H     H_    0.710996 0.014382 0.671827 0.224631
C61   C     C_3   0.897092 0.091351 0.694092 -0.847819
H57   H     H_    0.949787 0.076675 0.644252 0.308612
H58   H     H_    0.959747 0.062231 0.741172 0.254098
H59   H     H_    0.912864 0.148809 0.705779 0.266438
O16   O     O_3   0.338969 0.909364 0.370036 -0.626142
C62   C     C_3   0.481809 0.887091 0.346689 0.067196
H60   H     H_    0.459397 0.835105 0.317973 0.171072
H61   H     H_    0.578959 0.878771 0.392670 0.166025
C63   C     C_3   0.535617 0.939313 0.293313 -0.383907
H62   H     H_    0.437467 0.949327 0.248365 0.236033
H63   H     H_    0.569723 0.989770 0.323119 0.241265
C64   C     C_3   0.677465 0.911275 0.260484 -0.896285
H64   H     H_    0.778167 0.902683 0.304552 0.292040
H65   H     H_    0.713284 0.950267 0.222052 0.267796
H66   H     H_    0.647406 0.860819 0.229792 0.257447

loop_
_geom_bond_atom_site_label_1
_geom_bond_atom_site_label_2
_ccdc_geom_bond_type
O6    Zn2   S    
C41   H12   S    
O11   C47   S    
C53   H40   S    
C64   H65   S    
C9    N1    A    
C62   H60   S    
C58   H52   S    
C10   N2    A    
C57   H48   S    
C17   N1    A    
C54   H42   S    
C53   H39   S    
C18   N2    A    
C4    H6    S    
C44   H18   S    
C23   O7    A    
C52   H37   S    
C35   C37   A    
C19   O11   S    
C45   C46   S    
C41   C42   S    
C20   C25   A    
O12   C50   S    
O3    Zn2   S    
C51   C52   S    
C23   O5    A    
C42   H14   S    
C19   C26   A    
C1    O1    A    
C1    C40   S    
O1    Zn1   S    
C2    C39   S    
C46   H22   S    
C22   Cl4   S    
N1    Zn1   S    
C56   C57   S    
C37   Cl7   S    
C38   Cl8   S    
C55   H45   S    
C3    C5    A    
C41   H11   S    
C38   C40   A    
C29   H3    S    
C64   H66   S    
C29   C31   A    
C30   H4    S    
C42   H13   S    
C61   H59   S    
C55   H44   S    
C44   H19   S    
C52   H38   S    
C24   O6    A    
O10   C44   S    
C15   H1    S    
C61   H58   S    
C3    C8    A    
C2    O2    A    
C60   C61   S    
C48   H27   S    
C5    C7    A    
C43   H15   S    
C6    C8    A    
O2    Zn2   S    
C49   H31   S    
C4    C7    A    
C3    H5    S    
O8    Zn1   S    
C60   H56   S    
C32   C34   A    
C62   C63   S    
C63   C64   S    
C49   H30   S    
C11   H9    S    
C48   H28   S    
C6    O16   S    
C12   H10   S    
C50   H32   S    
C47   C48   S    
C24   O8    A    
C29   C39   A    
C31   C33   A    
C46   H24   S    
C30   C40   A    
C49   H29   S    
O16   C62   S    
C51   H35   S    
C9    C11   A    
C10   C12   A    
C28   Cl2   S    
C43   H16   S    
C46   H23   S    
C47   H26   S    
C9    H7    S    
C23   C27   S    
C13   C15   A    
C10   H8    S    
C56   H46   S    
C7    C34   S    
C14   C16   A    
C13   C26   S    
C54   C55   S    
C4    C6    A    
C20   C22   A    
C58   H50   S    
C57   C58   S    
C16   H2    S    
C64   H64   S    
C42   C43   S    
C55   H43   S    
O13   C53   S    
C52   H36   S    
C44   C45   S    
C15   C17   A    
C21   C25   A    
O7    Zn2   S    
C18   O10   S    
C32   Cl6   S    
C36   O14   S    
C24   C28   S    
C63   H63   S    
C45   H20   S    
C58   H51   S    
C59   C60   S    
C57   H49   S    
C21   Cl3   S    
O5    Zn1   S    
C59   H54   S    
O15   C59   S    
C17   O9    S    
C61   H57   S    
C62   H61   S    
C12   C14   A    
C5    O15   S    
C37   C39   A    
N2    Zn2   S    
C60   H55   S    
C48   C49   S    
C30   C32   A    
C11   C13   A    
C43   H17   S    
C36   C38   A    
C33   C35   A    
C45   H21   S    
C35   O13   S    
C34   C36   A    
C8    C33   S    
C14   C25   S    
C1    O3    A    
C51   H34   S    
C53   C54   S    
C59   H53   S    
C50   C51   S    
C20   O12   S    
C47   H25   S    
C16   C18   A    
O9    C41   S    
C22   C26   A    
C27   C28   D    
C56   H47   S    
C31   Cl5   S    
O4    Zn1   S    
C27   Cl1   S    
C2    O4    A    
C63   H62   S    
C54   H41   S    
C50   H33   S    
O14   C56   S    
C19   C21   A    
