data_mof_unit_40480.cif
_audit_creation_date              2012-12-10T17:47:02-0500
_audit_creation_method            fapswitch 2.2
_symmetry_space_group_name_H-M    P1
_symmetry_Int_Tables_number       1
_space_group_crystal_system       triclinic
_cell_length_a                    9.990488
_cell_length_b                    10.684266
_cell_length_c                    13.607068
_cell_angle_alpha                 93.933539
_cell_angle_beta                  83.233011
_cell_angle_gamma                 90.522309
_cell_volume                      1438.91573989

loop_
_atom_site_label
_atom_site_type_symbol
_atom_type_description
_atom_site_fract_x
_atom_site_fract_y
_atom_site_fract_z
_atom_type_partial_charge
C1    C     C_R   0.502217 0.738061 0.488439 0.910983
C2    C     C_1   0.461053 0.491171 0.788218 -0.200467
C3    C     C_R   0.273430 0.876299 0.426913 -0.253423
C4    C     C_R   0.142114 0.927117 0.448292 0.552432
C5    C     C_R   0.126766 0.038340 0.508455 -0.212543
C6    C     C_R   0.238846 0.107007 0.533208 -0.191413
C7    C     C_R   0.370428 0.059258 0.506068 0.045805
C8    C     C_R   0.383842 0.935160 0.467666 0.063277
C9    C     C_R   0.504075 0.871480 0.478646 -0.200928
C10   C     C_R   0.615966 0.936641 0.508427 -0.302584
C11   C     C_R   0.608026 0.063238 0.532775 0.503091
C12   C     C_R   0.476356 0.497121 0.685071 0.876577
C13   C     C_R   0.489363 0.127295 0.521530 -0.276626
C14   C     C_R   0.831609 0.648790 0.640062 -0.089743
C15   C     C_R   0.875272 0.698480 0.725858 -0.234451
C16   C     C_R   0.009284 0.693281 0.736820 -0.301412
C17   C     C_R   0.106215 0.649341 0.656921 0.542011
C18   C     C_R   0.059114 0.572974 0.574570 -0.033155
C19   C     C_R   0.915216 0.573585 0.570606 0.089926
C20   C     C_R   0.939828 0.431691 0.429289 -0.119920
C21   C     C_R   0.084140 0.436558 0.426707 0.449604
C22   C     C_R   0.496972 0.260889 0.509162 0.893420
C23   C     C_R   0.523955 0.499777 0.314894 0.897239
C24   C     C_1   0.542439 0.496035 0.211464 -0.209954
C25   C     C_2   0.572123 0.482610 0.019162 0.041452
C26   C     C_2   0.456571 0.479204 0.978372 -0.228264
C27   C     C_1   0.455187 0.485297 0.875294 -0.017957
C28   C     C_1   0.558437 0.490553 0.123727 -0.085014
H1    H     H_    0.359669 0.480674 0.024293 0.145180
H2    H     H_    0.729975 0.668939 0.631937 0.204625
H3    H     H_    0.805220 0.745697 0.783054 0.167483
H4    H     H_    0.035275 0.735426 0.806443 0.129141
H5    H     H_    0.707683 0.888778 0.519497 0.217878
H6    H     H_    0.290276 0.789478 0.381894 0.122102
H7    H     H_    0.027141 0.072364 0.536009 0.162806
H8    H     H_    0.220466 0.192887 0.579510 0.169775
N1    N     N_R   0.857120 0.501200 0.500900 -0.147954
N2    N     N_R   0.142720 0.501280 0.500940 -0.156999
O1    O     O_R   0.385310 0.683220 0.500000 -0.545805
O2    O     O_R   0.614640 0.683250 0.500010 -0.663793
O3    O     O_R   0.368830 0.499960 0.640340 -0.566926
O4    O     O_R   0.598160 0.499980 0.640350 -0.642166
O5    O     O_R   0.385360 0.316750 0.499990 -0.595773
O6    O     O_R   0.614690 0.316780 0.500000 -0.569914
O7    O     O_R   0.401840 0.500020 0.359650 -0.605163
O8    O     O_R   0.631170 0.500040 0.359660 -0.619398
Zn1   Zn    Zn3+2 0.346870 0.499980 0.499990 0.998335
Zn2   Zn    Zn3+2 0.653130 0.500020 0.500010 0.934191
O9    O     O_3   0.239464 0.691576 0.653220 -0.550577
C29   C     C_3   0.269838 0.768821 0.737449 0.101787
H9    H     H_    0.260188 0.713134 0.804160 0.129657
H10   H     H_    0.203418 0.852974 0.749502 0.135277
C30   C     C_3   0.413015 0.819920 0.723931 -0.842049
H11   H     H_    0.419030 0.897016 0.673344 0.244829
H12   H     H_    0.440493 0.859473 0.796489 0.200022
H13   H     H_    0.486568 0.745864 0.695053 0.249019
O10   O     O_3   0.166225 0.365302 0.354908 -0.573385
C31   C     C_3   0.165157 0.412461 0.259749 0.127788
H14   H     H_    0.252400 0.474377 0.242282 0.166037
H15   H     H_    0.076991 0.471353 0.251812 0.080006
C32   C     C_3   0.175358 0.303524 0.181087 -0.833718
H16   H     H_    0.093018 0.235085 0.197689 0.268910
H17   H     H_    0.167856 0.338865 0.107061 0.201758
H18   H     H_    0.273638 0.255176 0.179405 0.256071
C33   C     C_R   0.710720 0.478694 0.964683 0.161415
C34   C     C_R   0.811458 0.558069 0.998542 -0.174817
C35   C     C_R   0.945156 0.546651 0.955318 -0.159060
C36   C     C_R   0.980058 0.455880 0.878032 -0.093576
C37   C     C_R   0.881238 0.376661 0.843677 -0.139863
C38   C     C_R   0.747153 0.387407 0.886899 -0.147385
H19   H     H_    0.786799 0.627948 0.059357 0.128959
H20   H     H_    0.021888 0.607831 0.982096 0.118241
H21   H     H_    0.083738 0.446947 0.844762 0.124754
H22   H     H_    0.909582 0.305458 0.784730 0.125268
H23   H     H_    0.672931 0.321913 0.862119 0.120539
O11   O     O_3   0.024728 0.868917 0.421355 -0.622977
C39   C     C_3   0.048463 0.778882 0.340226 0.072752
H24   H     H_    0.094478 0.693243 0.363851 0.136690
H25   H     H_    0.114012 0.817714 0.277477 0.133157
C40   C     C_3   0.915257 0.740325 0.303257 -0.844088
H26   H     H_    0.865276 0.822386 0.277899 0.243194
H27   H     H_    0.934144 0.669943 0.239403 0.185448
H28   H     H_    0.847571 0.699045 0.363253 0.283583
O12   O     O_3   0.717985 0.123011 0.567550 -0.625005
C41   C     C_3   0.691299 0.152682 0.670848 0.117466
H29   H     H_    0.582146 0.163707 0.698971 0.104608
H30   H     H_    0.738935 0.244614 0.687047 0.172368
C42   C     C_3   0.753801 0.054140 0.727245 -0.911397
H31   H     H_    0.704863 0.961728 0.714205 0.255115
H32   H     H_    0.863429 0.045765 0.702189 0.263516
H33   H     H_    0.739437 0.081647 0.807960 0.215170
C43   C     C_R   0.880844 0.337967 0.361169 0.197134
C44   C     C_R   0.843929 0.367902 0.268942 -0.112751
C45   C     C_R   0.796422 0.274692 0.204395 -0.151043
C46   C     C_R   0.786255 0.150757 0.230993 -0.171490
C47   C     C_R   0.826102 0.119843 0.321207 -0.136494
C48   C     C_R   0.875228 0.212746 0.384801 -0.026916
H34   H     H_    0.850993 0.463198 0.246885 0.127078
H35   H     H_    0.767924 0.298493 0.133691 0.153475
H36   H     H_    0.748828 0.078658 0.181414 0.136445
H37   H     H_    0.819338 0.024154 0.342102 0.173108
H38   H     H_    0.909039 0.188110 0.452965 0.160360

loop_
_geom_bond_atom_site_label_1
_geom_bond_atom_site_label_2
_ccdc_geom_bond_type
C44   C45   A    
C23   O7    A    
C30   H12   S    
C46   C47   A    
C2    C12   S    
C7    C8    A    
C30   H11   S    
C25   C28   S    
C20   C43   S    
C26   C27   S    
C18   C19   A    
C5    C6    A    
C40   H26   S    
C30   H13   S    
C31   H15   S    
C33   C38   A    
C35   H20   S    
C32   H17   S    
C12   O4    A    
C19   N1    A    
C1    O2    A    
C36   C37   A    
C22   O6    A    
C21   N2    A    
C22   O5    A    
C16   C17   A    
C29   H10   S    
C23   C24   S    
C2    C27   T    
C9    C10   A    
C48   H38   S    
C39   H24   S    
C32   H16   S    
C31   C32   S    
C39   H25   S    
C34   C35   A    
C23   O8    A    
C47   H37   S    
C37   C38   A    
C14   H2    S    
C40   H28   S    
C43   C48   A    
C29   H9    S    
O7    Zn1   S    
O8    Zn2   S    
C29   C30   S    
C15   C16   A    
C41   H30   S    
C35   C36   A    
C1    C9    S    
O11   C39   S    
C40   H27   S    
C3    C8    A    
C17   O9    S    
C46   H36   S    
C8    C9    A    
C3    H6    S    
C36   H21   S    
C41   H29   S    
C32   H18   S    
C21   O10   S    
C12   O3    A    
C34   H19   S    
C42   H33   S    
C47   C48   A    
C20   C21   A    
C17   C18   A    
O3    Zn1   S    
C25   C33   S    
C37   H22   S    
O4    Zn2   S    
O12   C41   S    
N1    Zn2   S    
N2    Zn1   S    
C42   H32   S    
O9    C29   S    
C31   H14   S    
C3    C4    A    
C41   C42   S    
O1    Zn1   S    
C39   C40   S    
O2    Zn2   S    
C14   C19   A    
C24   C28   T    
C4    C5    A    
C15   H3    S    
C6    C7    A    
C11   O12   S    
C16   H4    S    
C25   C26   D    
C20   N1    A    
C11   C13   A    
O10   C31   S    
C45   H35   S    
C5    H7    S    
C43   C44   A    
C6    H8    S    
C13   C22   S    
C10   H5    S    
C18   N2    A    
C45   C46   A    
C4    O11   S    
C10   C11   A    
C1    O1    A    
C7    C13   A    
C42   H31   S    
C26   H1    S    
C33   C34   A    
C38   H23   S    
C14   C15   A    
O5    Zn1   S    
C44   H34   S    
O6    Zn2   S    
