data_mof_unit_56553.cif
_audit_creation_date              2013-03-05T16:06:02-0500
_audit_creation_method            fapswitch 2.2
_symmetry_space_group_name_H-M    P1
_symmetry_Int_Tables_number       1
_space_group_crystal_system       triclinic
_cell_length_a                    10.922415
_cell_length_b                    9.677094
_cell_length_c                    23.612671
_cell_angle_alpha                 90.291861
_cell_angle_beta                  95.075223
_cell_angle_gamma                 90.235048
_cell_volume                      2485.95087465

loop_
_atom_site_label
_atom_site_type_symbol
_atom_site_description
_atom_site_fract_x
_atom_site_fract_y
_atom_site_fract_z
_atom_type_partial_charge
O1    O     O_R   0.319640 0.618740 0.500000 -0.588841
O2    O     O_R   0.680360 0.381260 0.500000 -0.585818
O3    O     O_R   0.680360 0.618740 0.500000 -0.590873
O4    O     O_R   0.319640 0.381260 0.500000 -0.586944
C1    C     C_R   0.263398 0.500190 0.504558 0.824369
C2    C     C_R   0.736642 0.500575 0.495545 0.829547
O5    O     O_R   0.499960 0.618810 0.417880 -0.587528
O6    O     O_R   0.500040 0.381190 0.582120 -0.574272
O7    O     O_R   0.500040 0.618810 0.582120 -0.586240
O8    O     O_R   0.499960 0.381190 0.417880 -0.573449
C3    C     C_R   0.498620 0.500241 0.391131 0.863126
C4    C     C_R   0.502586 0.500705 0.608795 0.867103
Cu1   Cu    Cu3+1 0.500000 0.640660 0.500000 0.927354
Cu2   Cu    Cu3+1 0.500000 0.359340 0.500000 0.949038
C5    C     C_R   0.615114 0.531049 0.885974 0.563477
C6    C     C_R   0.396937 0.499400 0.113027 0.559566
N1    N     N_R   0.511991 0.493228 0.852343 -0.459782
N2    N     N_R   0.504526 0.495204 0.147428 -0.459239
C7    C     C_R   0.410819 0.442778 0.875586 0.603048
C8    C     C_R   0.613957 0.477508 0.124325 0.602393
C9    C     C_R   0.402440 0.451162 0.934849 -0.120601
C10   C     C_R   0.620255 0.491074 0.065121 -0.115640
C11   C     C_R   0.511491 0.479800 0.970036 -0.095380
C12   C     C_R   0.509446 0.480154 0.029674 -0.096261
C13   C     C_R   0.622280 0.509746 0.945491 -0.050575
C14   C     C_R   0.396276 0.471204 0.054174 -0.051106
C15   C     C_R   0.290059 0.431048 0.959750 0.407777
C16   C     C_R   0.732398 0.514287 0.040760 0.402473
C17   C     C_R   0.287220 0.437817 0.019407 0.050500
C18   C     C_R   0.734448 0.520868 0.981023 0.035190
O9    O     O_2   0.708108 0.592808 0.861755 -0.522530
O10   O     O_2   0.292194 0.535288 0.135455 -0.504190
O11   O     O_2   0.320014 0.384266 0.841058 -0.450670
O12   O     O_2   0.714897 0.444825 0.158568 -0.454392
C19   C     C_R   0.580886 0.595430 0.242317 0.197523
C20   C     C_R   0.418137 0.579752 0.758865 0.197514
C21   C     C_R   0.588026 0.584897 0.302502 0.083304
C22   C     C_R   0.410399 0.571475 0.698588 0.082283
C23   C     C_R   0.500485 0.502926 0.328428 -0.160089
C24   C     C_R   0.504539 0.503678 0.671480 -0.156569
C25   C     C_R   0.410977 0.429896 0.293618 0.297261
C26   C     C_R   0.603487 0.444220 0.704842 0.291518
C27   C     C_R   0.418990 0.421719 0.235347 -0.155553
C28   C     C_R   0.601953 0.437740 0.763530 -0.149710
H1    H     H_    0.354910 0.355607 0.210110 0.204931
H2    H     H_    0.675433 0.384497 0.788239 0.205609
C29   C     C_R   0.502169 0.504264 0.208677 0.217255
C30   C     C_R   0.510341 0.504015 0.791188 0.222779
C31   C     C_R   0.062356 0.375866 0.507634 0.146360
C32   C     C_R   0.937168 0.629581 0.493793 0.145287
C33   C     C_R   0.936260 0.376608 0.490725 0.146903
C34   C     C_R   0.064424 0.628795 0.508745 0.146646
C35   C     C_R   0.871031 0.502613 0.490887 -0.133027
C36   C     C_R   0.129065 0.501624 0.509455 -0.135535
C37   C     C_R   0.424163 0.072673 0.461155 0.184481
C38   C     C_R   0.574287 0.926181 0.539673 0.220022
C39   C     C_R   0.575790 0.074327 0.538965 0.192361
C40   C     C_R   0.425053 0.924597 0.460601 0.224538
N3    N     N_R   0.500000 0.852070 0.500000 -0.190563
N4    N     N_R   0.500000 0.147930 0.500000 -0.190728
Cl1   Cl    Cl    0.148303 0.415806 0.916992 -0.570402
Cl2   Cl    Cl    0.867851 0.557958 0.084631 -0.556661
C41   C     C_3   0.170441 0.398490 0.045891 -0.613362
H3    H     H_    0.192377 0.333813 0.084132 0.237879
H4    H     H_    0.121374 0.493209 0.057458 0.289658
H5    H     H_    0.107207 0.333830 0.017567 0.243375
C42   C     C_3   0.857024 0.530812 0.955648 -0.571151
H6    H     H_    0.860220 0.455006 0.920355 0.258069
H7    H     H_    0.871729 0.637330 0.940329 0.266259
H8    H     H_    0.936158 0.504054 0.985924 0.248125
C43   C     C_3   0.649592 0.709596 0.214748 -0.714223
H9    H     H_    0.638917 0.808604 0.237757 0.218257
H10   H     H_    0.748701 0.684082 0.215538 0.274118
H11   H     H_    0.612789 0.728253 0.170173 0.229069
C44   C     C_3   0.333285 0.674487 0.788232 -0.720433
H12   H     H_    0.329540 0.777195 0.767393 0.223760
H13   H     H_    0.239500 0.629071 0.786253 0.267890
H14   H     H_    0.365733 0.694195 0.833382 0.227650
C45   C     C_3   0.687845 0.660188 0.339138 -0.800312
H15   H     H_    0.730225 0.588590 0.371739 0.214256
H16   H     H_    0.763879 0.697126 0.314988 0.244637
H17   H     H_    0.648226 0.750640 0.359953 0.241919
C46   C     C_3   0.304237 0.636118 0.662863 -0.802419
H18   H     H_    0.268624 0.562851 0.628927 0.213593
H19   H     H_    0.224996 0.661118 0.687226 0.247964
H20   H     H_    0.336437 0.732768 0.643744 0.237181
Cl3   Cl    Cl    0.276600 0.364245 0.319281 -0.640474
Cl4   Cl    Cl    0.738181 0.390041 0.675870 -0.643269
C47   C     C_3   0.119885 0.242714 0.530505 -0.779952
H21   H     H_    0.190959 0.264086 0.566109 0.242310
H22   H     H_    0.050633 0.175547 0.548629 0.226789
H23   H     H_    0.160051 0.184612 0.496347 0.235056
C48   C     C_3   0.876864 0.766183 0.476444 -0.803549
H24   H     H_    0.802467 0.752058 0.442067 0.243631
H25   H     H_    0.841315 0.817273 0.513649 0.239039
H26   H     H_    0.942392 0.837574 0.458051 0.224491
C49   C     C_3   0.877128 0.245153 0.465718 -0.781295
H27   H     H_    0.805540 0.269084 0.430814 0.240438
H28   H     H_    0.945457 0.179813 0.446081 0.227380
H29   H     H_    0.837118 0.184107 0.498996 0.236164
C50   C     C_3   0.125996 0.763313 0.529350 -0.798946
H30   H     H_    0.202830 0.745354 0.561963 0.243462
H31   H     H_    0.158719 0.820979 0.493222 0.236658
H32   H     H_    0.061813 0.829919 0.551038 0.226281
C51   C     C_3   0.339275 0.143066 0.416590 -0.675551
H33   H     H_    0.331426 0.253111 0.422261 0.307175
H34   H     H_    0.370693 0.122262 0.373944 0.244354
H35   H     H_    0.243286 0.107204 0.417585 0.186151
C52   C     C_3   0.651377 0.853589 0.587373 -0.739937
H36   H     H_    0.671347 0.745868 0.579269 0.283071
H37   H     H_    0.745117 0.897026 0.594763 0.187255
H38   H     H_    0.605393 0.861660 0.627353 0.225614
C53   C     C_3   0.662681 0.146376 0.582975 -0.678052
H39   H     H_    0.669362 0.256596 0.578093 0.307991
H40   H     H_    0.634741 0.125148 0.626184 0.239828
H41   H     H_    0.758454 0.112113 0.580103 0.184996
C54   C     C_3   0.343618 0.850898 0.414119 -0.737078
H42   H     H_    0.329044 0.741351 0.420191 0.283524
H43   H     H_    0.248238 0.889478 0.411321 0.185316
H44   H     H_    0.381725 0.865586 0.372493 0.221001

loop_
_geom_bond_atom_site_label_1
_geom_bond_atom_site_label_2
_geom_bond_distance
_ccdc_geom_bond_type
C33   C49   1.517296 S    
C17   C41   1.517364 S    
C48   H24   1.104143 S    
C22   C46   1.511873 S    
C15   C17   1.412934 A    
N1    C30   1.446851 S    
O3    C2    1.308636 A    
C19   C29   1.419263 A    
N2    C29   1.450983 S    
C41   H4    1.108774 S    
C49   H27   1.110721 S    
C23   C25   1.406093 A    
O5    C3    1.306336 A    
C51   H34   1.109933 S    
C50   H30   1.102596 S    
C37   C51   1.506956 S    
O1    C1    1.308525 A    
C19   C21   1.420551 A    
C12   C14   1.412890 A    
C54   H43   1.104686 S    
C5    C13   1.416784 A    
C31   C36   1.414355 A    
C38   C39   1.433852 A    
O7    Cu1   1.951599 S    
C15   Cl1   1.777201 S    
C34   C36   1.420736 A    
C31   C33   1.399700 A    
C32   C34   1.403548 A    
C11   C12   1.410343 A    
C47   H22   1.110780 S    
C18   C42   1.517300 S    
O3    Cu1   1.982218 S    
C53   H41   1.106339 S    
C8    O12   1.347989 S    
C24   C26   1.406684 A    
C9    C15   1.420286 A    
C41   H5    1.107389 S    
C19   C43   1.514745 S    
C50   H31   1.106376 S    
C10   C16   1.416114 A    
C37   N4    1.382618 A    
C25   C27   1.388282 A    
O2    C2    1.314903 A    
C26   C28   1.389088 A    
C49   H28   1.110819 S    
C28   H2    1.083348 S    
C6    C14   1.414229 A    
C25   Cl3   1.754611 S    
C51   H35   1.105278 S    
C34   C50   1.520530 S    
C32   C35   1.421012 A    
C42   H6    1.110387 S    
C1    C36   1.482071 S    
C7    O11   1.347820 S    
C54   H44   1.110344 S    
C45   H16   1.107285 S    
C39   N4    1.384158 A    
C39   C53   1.509779 S    
C40   N3    1.380147 A    
C40   C54   1.522681 S    
C41   H3    1.110484 S    
C33   C35   1.414931 A    
C4    C24   1.478557 S    
C44   H12   1.110587 S    
C20   C44   1.514739 S    
C45   H17   1.109666 S    
C44   H13   1.110086 S    
C46   H18   1.110361 S    
O6    C4    1.313138 A    
C47   H23   1.104144 S    
C3    C23   1.482897 S    
C27   H1    1.083025 S    
C6    N2    1.369028 A    
C46   H19   1.107679 S    
C8    C10   1.412472 A    
C48   H26   1.110030 S    
O8    C3    1.316176 A    
C9    C11   1.416230 A    
O8    Cu2   1.951599 S    
C10   C12   1.412576 A    
C52   H38   1.110425 S    
C26   Cl4   1.757285 S    
C2    C35   1.481692 S    
C20   C22   1.420152 A    
C38   C52   1.521905 S    
C49   H29   1.104881 S    
C43   H10   1.109866 S    
C53   H39   1.076275 S    
C13   C18   1.425703 A    
C5    N1    1.366996 A    
O6    Cu2   1.949457 S    
C7    C9    1.412350 A    
C31   C47   1.516730 S    
O4    C1    1.315195 A    
C43   H11   1.108915 S    
C32   C48   1.521193 S    
C5    O9    1.348034 S    
Cu1   N3    2.045834 S    
C21   C45   1.512650 S    
C6    O10   1.348523 S    
Cu2   N4    2.045835 S    
C51   H33   1.077338 S    
C38   N3    1.379913 A    
C42   H8    1.104359 S    
C52   H37   1.104329 S    
C43   H9    1.110655 S    
C21   C23   1.421447 A    
C54   H42   1.083466 S    
C22   C24   1.419560 A    
C16   C18   1.414459 A    
N1    C7    1.366122 A    
C20   C30   1.417632 A    
N2    C8    1.368071 A    
C11   C13   1.416727 A    
O4    Cu2   1.982219 S    
O2    Cu2   1.980488 S    
C44   H14   1.108646 S    
O7    C4    1.306998 A    
C45   H15   1.109908 S    
O5    Cu1   1.949457 S    
C46   H20   1.109930 S    
O1    Cu1   1.980489 S    
C14   C17   1.420668 A    
C48   H25   1.106567 S    
C37   C40   1.433018 A    
C52   H36   1.085377 S    
C50   H32   1.110412 S    
C42   H7    1.109896 S    
C47   H21   1.110694 S    
Cu1   Cu2   2.722360 S    
C27   C29   1.400162 A    
C28   C30   1.398468 A    
C53   H40   1.110402 S    
C16   Cl2   1.777586 S    
