data_mof_unit_32267.cif
_audit_creation_date              2013-03-05T15:41:55-0500
_audit_creation_method            fapswitch 2.2
_symmetry_space_group_name_H-M    P1
_symmetry_Int_Tables_number       1
_space_group_crystal_system       triclinic
_cell_length_a                    19.425344
_cell_length_b                    7.23679
_cell_length_c                    17.734036
_cell_angle_alpha                 89.979763
_cell_angle_beta                  107.794691
_cell_angle_gamma                 90.018441
_cell_volume                      2373.72895127

loop_
_atom_site_label
_atom_site_type_symbol
_atom_site_description
_atom_site_fract_x
_atom_site_fract_y
_atom_site_fract_z
_atom_type_partial_charge
O1    O     O_R   0.414820 0.494320 0.416790 -0.524619
O2    O     O_R   0.585180 0.994320 0.583210 -0.524093
O3    O     O_R   0.560270 0.819500 0.430140 -0.513444
O4    O     O_R   0.439730 0.319500 0.569860 -0.513349
C1    C     C_R   0.581337 0.655560 0.414956 0.920953
C2    C     C_R   0.418690 0.155491 0.585063 0.921187
O5    O     O_R   0.413840 0.823740 0.407440 -0.538990
O6    O     O_R   0.586160 0.323740 0.592560 -0.539479
O7    O     O_R   0.437710 0.998590 0.560350 -0.541664
O8    O     O_R   0.562290 0.498590 0.439650 -0.541444
C3    C     C_R   0.388198 0.655343 0.384266 0.899515
C4    C     C_R   0.611804 0.155342 0.615730 0.899775
O9    O     O_3   0.508000 0.662290 0.550200 -0.250202
O10   O     O_3   0.492000 0.162290 0.449800 -0.250022
V1    V     V_3+5 0.498520 0.935380 0.490690 1.372382
V2    V     V_3+5 0.501480 0.435380 0.509310 1.372176
C5    C     C_2   0.779013 0.267848 0.797869 -0.123248
C6    C     C_2   0.221019 0.767850 0.202091 -0.125952
C7    C     C_2   0.817726 0.111662 0.820575 -0.243366
C8    C     C_2   0.182281 0.611664 0.179416 -0.244939
H1    H     H_    0.799900 0.395460 0.828578 0.150072
H2    H     H_    0.200151 0.895463 0.171354 0.149963
H3    H     H_    0.796781 0.979885 0.794485 0.120920
H4    H     H_    0.203209 0.479883 0.205528 0.120974
C9    C     C_2   0.705771 0.278364 0.737434 0.315104
C10   C     C_2   0.294260 0.778365 0.262528 0.314387
C11   C     C_2   0.680083 0.143594 0.682518 -0.190744
C12   C     C_2   0.319921 0.643591 0.317475 -0.190936
H5    H     H_    0.711720 0.019894 0.683493 0.097788
H6    H     H_    0.288264 0.519883 0.316523 0.097722
C13   C     C_R   0.313336 0.280668 0.623530 0.301074
C14   C     C_R   0.687174 0.780330 0.377108 0.300985
C15   C     C_R   0.369151 0.147921 0.634592 -0.218803
C16   C     C_R   0.631123 0.648026 0.365695 -0.219402
C17   C     C_R   0.377735 0.008980 0.692945 0.289533
C18   C     C_R   0.622770 0.508840 0.307518 0.289828
C19   C     C_R   0.328734 0.998030 0.737807 -0.044817
C20   C     C_R   0.672417 0.496569 0.263494 -0.043588
C21   C     C_R   0.275239 0.135396 0.729125 -0.024577
C22   C     C_R   0.726319 0.633157 0.272691 -0.029633
C23   C     C_R   0.268392 0.279219 0.673027 -0.012649
C24   C     C_R   0.732766 0.777746 0.328319 -0.016315
C25   C     C_R   0.333286 0.854477 0.792605 0.003442
C26   C     C_R   0.668831 0.350909 0.209896 0.000504
C27   C     C_R   0.285363 0.841769 0.837846 -0.080026
C28   C     C_R   0.718545 0.334727 0.166956 -0.079230
C29   C     C_R   0.232098 0.980971 0.830165 -0.008096
C30   C     C_R   0.770666 0.476277 0.173219 -0.008028
C31   C     C_R   0.228098 0.129005 0.776476 0.107405
C32   C     C_R   0.774106 0.625523 0.226124 0.098835
C33   C     C_R   0.176345 0.270821 0.769506 0.075976
C34   C     C_R   0.825678 0.767764 0.232797 0.062762
C35   C     C_R   0.170960 0.413691 0.714958 -0.106549
C36   C     C_R   0.830927 0.910926 0.287160 -0.129852
C37   C     C_R   0.215322 0.416205 0.666393 -0.032392
C38   C     C_R   0.786145 0.914190 0.335277 -0.042877
C39   C     C_R   0.181898 0.976144 0.873461 -0.109497
C40   C     C_R   0.818682 0.475586 0.127278 -0.104208
C41   C     C_R   0.131625 0.119117 0.867638 -0.090049
C42   C     C_R   0.869120 0.618292 0.133221 -0.090504
C43   C     C_R   0.129859 0.267154 0.816313 -0.117472
C44   C     C_R   0.871949 0.764492 0.185710 -0.121671
H7    H     H_    0.374819 0.750297 0.801074 0.182245
H8    H     H_    0.628326 0.244404 0.202757 0.181199
H9    H     H_    0.181286 0.862991 0.912824 0.069280
H10   H     H_    0.816192 0.368216 0.084317 0.074600
H11   H     H_    0.090704 0.377008 0.811049 0.085523
H12   H     H_    0.911219 0.874157 0.191006 0.086526
H13   H     H_    0.131366 0.522698 0.708834 0.072268
H14   H     H_    0.870534 0.019975 0.293266 0.076537
H15   H     H_    0.207502 0.527344 0.623910 0.135376
H16   H     H_    0.793762 0.025728 0.377530 0.138616
O11   O     O_R   0.937810 0.773680 0.060480 -0.554199
O12   O     O_R   0.062190 0.273680 0.939520 -0.554456
O13   O     O_R   0.086190 0.439740 0.092580 -0.549083
O14   O     O_R   0.913810 0.939740 0.907420 -0.548901
C45   C     C_R   0.113000 0.607952 0.114121 0.841387
C46   C     C_R   0.887004 0.107951 0.885876 0.842158
O15   O     O_R   0.939760 0.444210 0.069890 -0.564445
O16   O     O_R   0.060240 0.944210 0.930110 -0.564346
O17   O     O_R   0.914790 0.269640 0.916760 -0.558365
O18   O     O_R   0.085210 0.769640 0.083240 -0.558558
C47   C     C_R   0.918974 0.612255 0.084580 0.818288
C48   C     C_R   0.081101 0.112348 0.915504 0.817457
O19   O     O_3   0.992050 0.601530 0.949880 -0.285941
O20   O     O_3   0.007950 0.101530 0.050120 -0.286013
V3    V     V_3+5 0.001480 0.328340 0.009300 1.148616
V4    V     V_3+5 0.998520 0.828340 0.990700 1.148533
N1    N     N_R   0.662531 0.438334 0.740108 0.109156
O21   O     O_R   0.692460 0.600885 0.753337 -0.347161
O22   O     O_R   0.597017 0.417745 0.743664 -0.283576
N2    N     N_R   0.337530 0.938340 0.259828 0.108216
O23   O     O_R   0.307630 0.100892 0.246561 -0.348367
O24   O     O_R   0.403048 0.917760 0.256302 -0.286640
N3    N     N_R   0.299630 0.409161 0.558755 0.080287
O25   O     O_R   0.309488 0.585410 0.572054 -0.347888
O26   O     O_R   0.282161 0.348425 0.486314 -0.383701
N4    N     N_R   0.700453 0.909506 0.441555 0.081073
O27   O     O_R   0.717539 0.849582 0.514121 -0.383081
O28   O     O_R   0.690904 0.085680 0.427819 -0.350058
N5    N     N_R   0.438982 0.887006 0.709849 0.096047
O29   O     O_R   0.430075 0.711532 0.694036 -0.288814
O30   O     O_R   0.504158 0.954230 0.734951 -0.318117
N6    N     N_R   0.561218 0.387744 0.290037 0.096256
O31   O     O_R   0.569530 0.212735 0.307087 -0.290164
O32   O     O_R   0.496253 0.455897 0.264029 -0.319877
C49   C     C_2   0.294045 0.683229 0.893643 0.527639
H17   H     H_    0.273889 0.688767 0.944100 0.008782
O33   O     O_2   0.325234 0.542632 0.884258 -0.544858
C50   C     C_2   0.715519 0.165517 0.118105 0.536506
H18   H     H_    0.761559 0.121597 0.100395 -0.018491
O34   O     O_2   0.661307 0.069039 0.098330 -0.524006

loop_
_geom_bond_atom_site_label_1
_geom_bond_atom_site_label_2
_geom_bond_distance
_ccdc_geom_bond_type
C20   C22   1.412464 A    
O4    V2    2.020172 S    
N5    O29   1.300607 A    
C11   H5    1.083150 S    
N3    O25   1.300612 A    
O1    C3    1.332521 A    
O16   C48   1.332474 A    
C35   H13   1.083943 S    
C2    O7    1.310508 A    
O15   V3    2.020846 S    
C25   H7    1.080805 S    
C29   C31   1.419278 A    
C26   H8    1.080739 S    
O5    C3    1.333031 A    
C8    C45   1.483335 S    
C45   O18   1.334062 A    
C17   C19   1.417058 A    
O14   C46   1.333205 A    
C42   C47   1.481402 S    
O18   V4    2.005070 S    
C39   C41   1.404928 A    
C10   N2    1.439792 S    
C42   C44   1.399387 A    
C27   C29   1.420703 A    
C50   H18   1.082321 S    
C23   C37   1.409194 A    
C24   C38   1.409478 A    
C6    C10   1.498891 S    
C40   H10   1.079086 S    
C8    H4    1.083536 S    
C26   C28   1.405639 A    
C38   H16   1.080508 S    
C33   C43   1.401147 A    
C32   C34   1.415700 A    
C49   H17   1.081550 S    
C13   C15   1.416832 A    
O12   V3    1.992797 S    
N1    O22   1.301795 A    
O14   V4    2.013324 S    
C16   C18   1.415498 A    
C30   C32   1.419017 A    
O2    C4    1.332565 A    
O6    V2    2.013418 S    
C49   O33   1.221545 D    
N6    O32   1.301159 A    
N6    O31   1.300594 A    
C34   C36   1.397779 A    
C28   C30   1.420360 A    
C35   C37   1.392222 A    
C36   C38   1.392520 A    
C41   C43   1.399149 A    
C4    C11   1.486293 S    
C41   C48   1.481659 S    
O4    C2    1.309686 A    
C39   H9    1.078246 S    
O20   V3    1.782592 S    
C5    C7    1.349204 D    
C31   C33   1.415579 A    
C5    H1    1.085880 S    
C33   C35   1.397581 A    
C14   C16   1.417034 A    
C19   C25   1.406505 A    
C7    C46   1.483342 S    
C7    H3    1.083536 S    
O11   V4    1.992473 S    
C20   C26   1.407001 A    
C29   C39   1.413959 A    
C25   C27   1.405389 A    
C43   H11   1.084520 S    
C36   H14   1.084069 S    
O6    C4    1.333061 A    
C1    C16   1.489248 S    
N2    O24   1.301796 A    
O1    V2    2.004896 S    
O2    V1    2.004912 S    
O13   C45   1.333164 A    
O17   V3    2.005086 S    
O13   V3    2.013318 S    
C21   C31   1.419776 A    
N4    O28   1.300582 A    
C28   C50   1.490989 S    
C18   C20   1.416984 A    
O3    C1    1.309742 A    
O3    V1    2.020809 S    
N5    O30   1.301172 A    
O19   V4    1.782988 S    
C13   C23   1.414646 A    
C6    H2    1.085878 S    
C9    N1    1.439783 S    
O12   C48   1.332558 A    
C22   C24   1.417346 A    
C17   N5    1.437710 S    
N3    O26   1.300983 A    
C30   C40   1.413587 A    
C9    C11   1.360889 D    
C10   C12   1.360892 D    
C2    C15   1.488992 S    
C44   H12   1.084643 S    
C18   N6    1.437597 S    
C5    C9    1.498880 S    
C12   H6    1.083159 S    
O7    V1    2.005838 S    
C1    O8    1.310536 A    
C19   C21   1.412280 A    
O8    V2    2.005466 S    
O15   C47   1.332154 A    
C46   O17   1.334097 A    
C3    C12   1.486292 S    
C22   C32   1.419631 A    
O5    V1    2.013411 S    
N2    O23   1.301240 A    
C15   C17   1.415496 A    
C14   N4    1.437734 S    
C6    C8    1.349194 D    
C50   O34   1.222068 D    
C13   N3    1.437911 S    
C21   C23   1.417459 A    
O16   V4    2.020210 S    
N4    O27   1.301122 A    
O9    V2    1.784080 S    
C14   C24   1.414818 A    
O10   V1    1.783683 S    
C34   C44   1.401614 A    
N1    O21   1.301239 A    
C40   C42   1.404955 A    
O11   C47   1.332728 A    
C37   H15   1.080411 S    
C27   C49   1.490379 S    
