data_mof_unit_34069.cif
_audit_creation_date              2012-12-10T20:34:52-0500
_audit_creation_method            fapswitch 2.2
_symmetry_space_group_name_H-M    P1
_symmetry_Int_Tables_number       1
_space_group_crystal_system       triclinic
_cell_length_a                    10.635214
_cell_length_b                    10.686402
_cell_length_c                    9.872733
_cell_angle_alpha                 89.775386
_cell_angle_beta                  90.01885
_cell_angle_gamma                 90.409437
_cell_volume                      1122.02022872

loop_
_atom_site_label
_atom_site_type_symbol
_atom_type_description
_atom_site_fract_x
_atom_site_fract_y
_atom_site_fract_z
_atom_type_partial_charge
C1    C     C_R   0.503329 0.260069 0.500191 0.874271
C2    C     C_3   0.878706 0.498152 0.499150 0.182116
C3    C     C_3   0.928741 0.620179 0.564731 -0.400766
C4    C     C_3   0.928541 0.489956 0.351613 -0.385972
C5    C     C_R   0.525996 0.063605 0.622544 0.136255
C6    C     C_R   0.521849 0.128815 0.500335 -0.110037
C7    C     C_R   0.539376 0.065572 0.377679 -0.238063
C8    C     C_R   0.537957 0.936448 0.377336 -0.213909
C9    C     C_R   0.520661 0.871762 0.499772 -0.111521
C10   C     C_R   0.525665 0.935845 0.622271 0.127081
C11   C     C_3   0.440369 0.927895 0.742471 -0.477933
C12   C     C_R   0.257645 0.498726 0.499818 0.829087
C13   C     C_3   0.440632 0.069776 0.742607 -0.488167
C14   C     C_R   0.432298 0.412206 0.071478 0.195391
C15   C     C_R   0.576747 0.578515 0.070892 0.015463
C16   C     C_R   0.576213 0.578545 0.927006 -0.184897
C17   C     C_R   0.432568 0.412033 0.929007 0.220399
C18   C     C_3   0.293982 0.392059 0.922670 -0.518287
C19   C     C_3   0.293446 0.393189 0.076311 -0.514391
C20   C     C_R   0.502871 0.740057 0.499790 0.882348
C21   C     C_R   0.742319 0.499054 0.499804 0.830945
C22   C     C_3   0.071258 0.383369 0.580211 -0.408224
C23   C     C_3   0.926809 0.383524 0.580192 -0.399395
C24   C     C_3   0.073073 0.620005 0.564898 -0.405331
C25   C     C_3   0.071165 0.489742 0.351777 -0.404784
C26   C     C_3   0.121184 0.497942 0.499260 0.190583
H1    H     H_    0.105649 0.386267 0.686570 0.175869
H2    H     H_    0.895663 0.571158 0.290758 0.195337
H3    H     H_    0.109002 0.702938 0.507867 0.156351
H4    H     H_    0.894259 0.703103 0.507454 0.165291
H5    H     H_    0.544914 0.114722 0.281646 0.172656
H6    H     H_    0.541353 0.888612 0.281046 0.183076
H7    H     H_    0.347011 0.886204 0.717883 0.200021
H8    H     H_    0.487985 0.886710 0.832291 0.203619
H9    H     H_    0.347471 0.110682 0.717884 0.195369
H10   H     H_    0.488237 0.110701 0.832573 0.203311
H11   H     H_    0.105869 0.295094 0.534259 0.153814
H12   H     H_    0.635616 0.643378 0.871257 0.148582
H13   H     H_    0.243749 0.472918 0.877294 0.214388
H14   H     H_    0.268881 0.299368 0.879294 0.192033
H15   H     H_    0.243894 0.475438 0.118378 0.212722
H16   H     H_    0.267004 0.301485 0.121980 0.196795
H17   H     H_    0.890784 0.295308 0.534200 0.156359
H18   H     H_    0.892368 0.386582 0.686600 0.181717
H19   H     H_    0.107717 0.627863 0.670992 0.173088
H20   H     H_    0.894087 0.628290 0.670725 0.174324
H21   H     H_    0.105913 0.570798 0.290769 0.176065
H22   H     H_    0.104540 0.402252 0.303066 0.173502
H23   H     H_    0.893122 0.403138 0.301962 0.173770
N1    N     N_R   0.499150 0.499140 0.142800 -0.129577
N2    N     N_R   0.499150 0.499180 0.857150 -0.109735
O1    O     O_R   0.500020 0.316790 0.614690 -0.614267
O2    O     O_R   0.500000 0.316760 0.385350 -0.624377
O3    O     O_R   0.314800 0.500000 0.614670 -0.627581
O4    O     O_R   0.314790 0.499960 0.385330 -0.627619
O5    O     O_R   0.500000 0.683240 0.614650 -0.617938
O6    O     O_R   0.499980 0.683210 0.385310 -0.614685
O7    O     O_R   0.685210 0.500040 0.614670 -0.629178
O8    O     O_R   0.685200 0.500000 0.385330 -0.622587
Zn1   Zn    Zn3+2 0.500010 0.500020 0.653130 0.932945
Zn2   Zn    Zn3+2 0.499990 0.499980 0.346870 0.943031
C27   C     C_1   0.658713 0.664629 0.139934 0.196429
N3    N     N_1   0.725294 0.734267 0.194352 -0.255179

loop_
_geom_bond_atom_site_label_1
_geom_bond_atom_site_label_2
_ccdc_geom_bond_type
C3    H4    S    
C2    C4    S    
C18   H13   S    
C16   N2    A    
O6    Zn2   S    
C6    C7    A    
O1    Zn1   S    
C9    C10   A    
C25   H21   S    
C3    H20   S    
C5    C13   S    
C25   H22   S    
C19   H16   S    
C4    H23   S    
C20   O5    A    
C21   O7    A    
C17   N2    A    
C2    C21   S    
C17   C18   S    
C20   O6    A    
C5    C10   A    
C21   O8    A    
O3    Zn1   S    
C11   C13   S    
C14   C17   A    
C3    C24   S    
C27   N3    T    
C24   H19   S    
O4    Zn2   S    
C4    H2    S    
C15   C27   S    
C24   C26   S    
C4    C25   S    
C2    C3    S    
C22   H1    S    
C11   H8    S    
C5    C6    A    
C1    O1    A    
O8    Zn2   S    
C12   O4    A    
C7    H5    S    
C10   C11   S    
C14   N1    A    
O7    Zn1   S    
C15   C16   A    
C8    H6    S    
C19   H15   S    
C11   H7    S    
C23   H17   S    
C13   H10   S    
C7    C8    A    
C22   C26   S    
C15   N1    A    
C16   H12   S    
C2    C23   S    
N1    Zn2   S    
C18   H14   S    
C22   C23   S    
C18   C19   S    
C1    O2    A    
N2    Zn1   S    
C9    C20   S    
C25   C26   S    
C24   H3    S    
C22   H11   S    
O2    Zn2   S    
C14   C19   S    
C13   H9    S    
C12   O3    A    
C23   H18   S    
O5    Zn1   S    
C12   C26   S    
C8    C9    A    
C1    C6    S    
