data_mof_unit_16171.cif
_audit_creation_date              2012-12-11T17:12:50-0500
_audit_creation_method            fapswitch 2.2
_symmetry_space_group_name_H-M    P1
_symmetry_Int_Tables_number       1
_space_group_crystal_system       triclinic
_cell_length_a                    17.30968
_cell_length_b                    6.876335
_cell_length_c                    14.418418
_cell_angle_alpha                 89.127876
_cell_angle_beta                  110.350749
_cell_angle_gamma                 91.06033
_cell_volume                      1608.7151636

loop_
_atom_site_label
_atom_site_type_symbol
_atom_type_description
_atom_site_fract_x
_atom_site_fract_y
_atom_site_fract_z
_atom_type_partial_charge
O1    O     O_R   0.314130 0.635770 0.168990 -0.541581
O2    O     O_R   0.685870 0.364230 0.831010 -0.541581
O3    O     O_R   0.185870 0.135770 0.331010 -0.544635
O4    O     O_R   0.814130 0.864230 0.668990 -0.544635
O5    O     O_R   0.146800 0.302460 0.139760 -0.538509
O6    O     O_R   0.853200 0.697540 0.860240 -0.538509
O7    O     O_R   0.353200 0.802460 0.360240 -0.535850
O8    O     O_R   0.646800 0.197540 0.639760 -0.535850
C1    C     C_R   0.113965 0.475495 0.112778 0.726598
C2    C     C_R   0.886035 0.524505 0.887222 0.726598
C3    C     C_R   0.386022 0.976193 0.387222 0.729533
C4    C     C_R   0.613978 0.023807 0.612778 0.729533
O9    O     O_R   0.311100 0.305780 0.157130 -0.546698
O10   O     O_R   0.688900 0.694220 0.842870 -0.546697
O11   O     O_R   0.188900 0.805780 0.342870 -0.545138
O12   O     O_R   0.811100 0.194220 0.657130 -0.545137
O13   O     O_R   0.351340 0.139640 0.348510 -0.536386
O14   O     O_R   0.648660 0.860360 0.651490 -0.536386
O15   O     O_R   0.148660 0.639640 0.151490 -0.533582
O16   O     O_R   0.851340 0.360360 0.848510 -0.533581
C5    C     C_R   0.334325 0.477193 0.137537 0.709199
C6    C     C_R   0.665675 0.522807 0.862463 0.709200
C7    C     C_R   0.165405 0.972265 0.362391 0.709839
C8    C     C_R   0.834595 0.027735 0.637609 0.709839
C9    C     C_1   0.533575 0.008472 0.533068 -0.184149
C10   C     C_1   0.466425 0.991528 0.466932 -0.184148
C11   C     C_1   0.966461 0.509323 0.966979 -0.182055
C12   C     C_1   0.033539 0.490677 0.033020 -0.182055
O17   O     O_3   0.263010 0.470920 0.312770 -0.368983
O18   O     O_3   0.736990 0.529080 0.687230 -0.368983
O19   O     O_3   0.236990 0.970920 0.187230 -0.368638
O20   O     O_3   0.763010 0.029080 0.812770 -0.368638
V1    V     V_3+5 0.247590 0.194450 0.238360 1.408832
V2    V     V_3+5 0.752410 0.805550 0.761640 1.408832
V3    V     V_3+5 0.252410 0.694450 0.261640 1.421896
V4    V     V_3+5 0.747590 0.305550 0.738360 1.421896
C13   C     C_R   0.112728 0.968927 0.424740 -0.105089
C14   C     C_R   0.887272 0.031073 0.575259 -0.105090
C15   C     C_R   0.386483 0.499597 0.075181 -0.103051
C16   C     C_R   0.613517 0.500402 0.924819 -0.103051
C17   C     C_R   0.933926 0.216213 0.458667 -0.152610
C18   C     C_R   0.066074 0.783787 0.541333 -0.152610
C19   C     C_R   0.568501 0.286541 0.032995 -0.150583
C20   C     C_R   0.431498 0.713457 0.967004 -0.150584
C21   C     C_R   0.880576 0.190941 0.511134 -0.225441
C22   C     C_R   0.119425 0.809060 0.488866 -0.225441
C23   C     C_R   0.621866 0.329865 0.982202 -0.227403
C24   C     C_R   0.378133 0.670132 0.017797 -0.227403
C25   C     C_R   0.948920 0.891336 0.584726 0.133803
C26   C     C_R   0.051080 0.108664 0.415273 0.133803
C27   C     C_R   0.550322 0.632193 0.920524 0.131772
C28   C     C_R   0.449679 0.367808 0.079477 0.131771
C29   C     C_R   0.003612 0.917920 0.531632 0.107671
C30   C     C_R   0.996388 0.082080 0.468368 0.107671
C31   C     C_R   0.495586 0.587356 0.971808 0.109096
C32   C     C_R   0.504414 0.412644 0.028192 0.109098
H1    H     H_    0.165962 0.700115 0.497754 0.142855
H2    H     H_    0.834038 0.299886 0.502246 0.142855
H3    H     H_    0.330332 0.773254 0.013259 0.140714
H4    H     H_    0.669667 0.226742 0.986739 0.140714
H5    H     H_    0.926190 0.343141 0.411077 0.170225
H6    H     H_    0.073810 0.656859 0.588923 0.170225
H7    H     H_    0.577439 0.152049 0.075237 0.170772
H8    H     H_    0.422560 0.847948 0.924762 0.170772
N1    N     N_3   0.041039 0.273523 0.349954 -0.688365
H9    H     H_    0.094136 0.361010 0.374871 0.247265
H10   H     H_    0.032122 0.224753 0.278598 0.230427
N2    N     N_3   0.958961 0.726476 0.650045 -0.688364
H11   H     H_    0.967876 0.775244 0.721402 0.230428
H12   H     H_    0.905863 0.638990 0.625127 0.247263
N3    N     N_3   0.461281 0.192945 0.138213 -0.687174
H13   H     H_    0.469059 0.229190 0.211102 0.229784
H14   H     H_    0.409077 0.103639 0.109589 0.245639
N4    N     N_3   0.538720 0.807057 0.861789 -0.687175
H15   H     H_    0.590923 0.896364 0.890412 0.245639
H16   H     H_    0.530941 0.770815 0.788899 0.229784

loop_
_geom_bond_atom_site_label_1
_geom_bond_atom_site_label_2
_ccdc_geom_bond_type
C2    C11   S    
C16   C23   A    
C31   C32   A    
O1    C5    A    
C25   N2    S    
O3    C7    A    
C27   N4    S    
C17   H5    S    
C19   H7    S    
C14   C25   A    
C29   C30   A    
C20   H8    S    
O5    C1    A    
C26   C30   A    
N4    H16   S    
O20   V4    S    
C18   C29   A    
O8    V4    S    
O4    C8    A    
O3    V1    S    
O17   V1    S    
C18   C22   A    
C14   C21   A    
C23   H4    S    
C1    O15   A    
C2    O16   A    
N2    H11   S    
N1    H10   S    
O5    V1    S    
O2    C6    A    
C8    C14   S    
O19   V1    S    
C18   H6    S    
O11   C7    A    
C15   C28   A    
O12   C8    A    
O13   V1    S    
O11   V3    S    
O4    V2    S    
C21   H2    S    
N4    H15   S    
O18   V2    S    
N3    H14   S    
C3    C10   S    
C9    C10   T    
C7    C13   S    
O6    V2    S    
O20   V2    S    
O7    C3    A    
O9    V1    S    
C5    C15   S    
O8    C4    A    
C6    C16   S    
O9    C5    A    
O14   V2    S    
C22   H1    S    
O19   V3    S    
O1    V3    S    
C24   H3    S    
O2    V4    S    
C3    O13   A    
O7    V3    S    
O10   V2    S    
O6    C2    A    
C16   C27   A    
O17   V3    S    
O18   V4    S    
C4    C9    S    
O10   C6    A    
N3    H13   S    
C28   N3    S    
O15   V3    S    
O12   V4    S    
C13   C26   A    
C20   C31   A    
C25   C29   A    
C27   C31   A    
C26   N1    S    
C17   C30   A    
O16   V4    S    
C20   C24   A    
C19   C32   A    
N2    H12   S    
N1    H9    S    
C4    O14   A    
C11   C12   T    
C17   C21   A    
C13   C22   A    
C19   C23   A    
C28   C32   A    
C1    C12   S    
C15   C24   A    
