data_mof_unit_37376.cif
_audit_creation_date              2012-12-10T19:07:01-0500
_audit_creation_method            fapswitch 2.2
_symmetry_space_group_name_H-M    P1
_symmetry_Int_Tables_number       1
_space_group_crystal_system       triclinic
_cell_length_a                    27.786881
_cell_length_b                    10.814621
_cell_length_c                    9.531892
_cell_angle_alpha                 89.88787
_cell_angle_beta                  89.793359
_cell_angle_gamma                 90.142956
_cell_volume                      2864.34418623

loop_
_atom_site_label
_atom_site_type_symbol
_atom_type_description
_atom_site_fract_x
_atom_site_fract_y
_atom_site_fract_z
_atom_type_partial_charge
C1    C     C_R   0.501130 0.262244 0.500053 0.804450
C2    C     C_R   0.278335 0.510701 0.377298 -0.102664
C3    C     C_R   0.253442 0.497543 0.504429 0.359382
C4    C     C_R   0.101667 0.497634 0.514612 -0.045138
C5    C     C_R   0.127246 0.386939 0.534242 -0.038709
C6    C     C_R   0.102136 0.277810 0.563392 -0.179945
C7    C     C_R   0.127301 0.608653 0.492656 -0.019354
C8    C     C_R   0.354409 0.498954 0.501354 -0.039698
C9    C     C_R   0.645471 0.499639 0.500954 -0.038013
C10   C     C_R   0.974276 0.384613 0.512622 0.036624
C11   C     C_R   0.974592 0.612342 0.519266 0.041977
C12   C     C_R   0.407422 0.499739 0.500263 0.798995
C13   C     C_R   0.949160 0.498675 0.515275 0.075765
C14   C     C_R   0.947773 0.276173 0.483049 -0.187065
C15   C     C_R   0.897785 0.277197 0.477272 -0.140620
C16   C     C_R   0.872471 0.387577 0.495202 -0.022930
C17   C     C_R   0.898091 0.499083 0.511452 -0.046313
C18   C     C_R   0.872617 0.611063 0.522490 -0.022490
C19   C     C_R   0.822104 0.609074 0.520353 0.537288
C20   C     C_R   0.821973 0.389830 0.492971 0.539261
C21   C     C_R   0.720515 0.456679 0.621153 -0.097979
C22   C     C_R   0.670334 0.457129 0.619730 -0.213284
C23   C     C_R   0.501006 0.737699 0.499733 0.808625
C24   C     C_R   0.671650 0.542532 0.384287 -0.211630
C25   C     C_R   0.721831 0.542653 0.386171 -0.094938
C26   C     C_R   0.746385 0.499519 0.504455 0.353510
C27   C     C_R   0.025125 0.383840 0.531687 -0.010524
C28   C     C_R   0.050592 0.497553 0.517567 0.060735
C29   C     C_R   0.025484 0.611571 0.507458 0.049448
C30   C     C_R   0.051931 0.275611 0.566762 -0.034323
C31   C     C_R   0.102142 0.719384 0.476249 -0.137679
C32   C     C_R   0.948053 0.723081 0.533510 -0.202298
C33   C     C_R   0.898013 0.722141 0.535764 -0.137507
C34   C     C_R   0.592539 0.500044 0.499996 0.801957
C35   C     C_R   0.052228 0.721153 0.484184 -0.195392
C36   C     C_R   0.512623 0.063154 0.623887 0.105362
C37   C     C_R   0.506516 0.129217 0.499087 -0.117380
C38   C     C_R   0.508025 0.064709 0.371072 -0.188914
C39   C     C_R   0.507993 0.935881 0.370725 -0.208372
C40   C     C_R   0.506240 0.870666 0.498395 -0.092853
C41   C     C_R   0.512085 0.935863 0.623258 0.103746
C42   C     C_3   0.485166 0.928161 0.758969 -0.496120
C43   C     C_3   0.486032 0.069081 0.760453 -0.227817
C44   C     C_R   0.522368 0.592752 0.073159 0.250620
C45   C     C_R   0.177782 0.388853 0.529825 0.544639
C46   C     C_R   0.473569 0.416394 0.074947 -0.053966
C47   C     C_R   0.473452 0.416654 0.925923 -0.054353
C48   C     C_R   0.522273 0.592922 0.925705 0.247501
C49   C     C_3   0.574179 0.627203 0.918486 -0.480077
C50   C     C_3   0.574448 0.625593 0.077586 -0.505161
C51   C     C_R   0.177794 0.606304 0.488048 0.536532
C52   C     C_R   0.278963 0.485024 0.629926 -0.103579
C53   C     C_R   0.329125 0.485980 0.628613 -0.217510
C54   C     C_R   0.328549 0.511058 0.375560 -0.215443
Cu1   Cu    Cu3+1 0.500000 0.499980 0.640670 0.949814
Cu2   Cu    Cu3+1 0.500000 0.500020 0.359330 0.951930
H1    H     H_    0.347056 0.521296 0.276016 0.157871
H2    H     H_    0.259846 0.475037 0.728513 0.138679
H3    H     H_    0.120971 0.805756 0.457648 0.190727
H4    H     H_    0.653461 0.577908 0.292754 0.147598
H5    H     H_    0.879295 0.809364 0.546821 0.191233
H6    H     H_    0.741693 0.576266 0.295830 0.142309
H7    H     H_    0.506553 0.112949 0.271491 0.180824
H8    H     H_    0.448376 0.889215 0.745948 0.197589
H9    H     H_    0.258720 0.520346 0.279950 0.139302
H10   H     H_    0.453029 0.347056 0.131217 0.137342
H11   H     H_    0.452716 0.347770 0.870321 0.129061
H12   H     H_    0.596948 0.553500 0.872018 0.221141
H13   H     H_    0.579741 0.721001 0.873282 0.196939
H14   H     H_    0.580771 0.718103 0.124785 0.196480
H15   H     H_    0.121714 0.193884 0.588060 0.192661
H16   H     H_    0.651018 0.423080 0.710862 0.155875
H17   H     H_    0.879095 0.191067 0.456980 0.190019
H18   H     H_    0.965096 0.190058 0.457184 0.156330
H19   H     H_    0.348045 0.476185 0.727132 0.155950
N1    N     N_R   0.201868 0.497413 0.506464 -0.470085
N2    N     N_R   0.797951 0.499456 0.506215 -0.470712
N3    N     N_R   0.500300 0.500930 0.147930 -0.184635
N4    N     N_R   0.500310 0.500890 0.852020 -0.184541
O1    O     O_R   0.500000 0.319640 0.618810 -0.582949
O2    O     O_2   0.797048 0.283542 0.477043 -0.526721
O3    O     O_2   0.202682 0.712058 0.466728 -0.530708
O4    O     O_2   0.797287 0.715629 0.532830 -0.528683
O5    O     O_R   0.500010 0.319680 0.381230 -0.581441
O6    O     O_R   0.430260 0.500000 0.618780 -0.587442
O7    O     O_R   0.430270 0.500040 0.381190 -0.584874
O8    O     O_R   0.499990 0.680320 0.618770 -0.577590
O9    O     O_R   0.500000 0.680360 0.381190 -0.587096
O10   O     O_R   0.569730 0.499960 0.618810 -0.583629
O11   O     O_R   0.569740 0.500000 0.381220 -0.578671
O12   O     O_2   0.202691 0.283096 0.548173 -0.531717
H20   H     H_    0.965058 0.812001 0.546768 0.156014
H21   H     H_    0.035425 0.809650 0.467180 0.148960
H22   H     H_    0.506625 0.888201 0.270968 0.165096
H23   H     H_    0.506857 0.883204 0.842610 0.193827
H24   H     H_    0.449973 0.112837 0.752454 0.145213
C55   C     C_1   0.516297 0.119877 0.872935 0.285586
N5    N     N_1   0.540161 0.159596 0.961409 -0.298215
H25   H     H_    0.596722 0.549439 0.120461 0.219617
H26   H     H_    0.739352 0.423379 0.712964 0.143015
C56   C     C_1   0.030349 0.165302 0.625954 0.226089
N6    N     N_1   0.013347 0.076856 0.673772 -0.289760

loop_
_geom_bond_atom_site_label_1
_geom_bond_atom_site_label_2
_ccdc_geom_bond_type
C10   C27   A    
Cu1   Cu2   S    
C40   C41   A    
C56   N6    T    
C49   H12   S    
C41   C42   S    
C47   N4    A    
C21   C26   A    
C2    H9    S    
C55   N5    T    
C32   H20   S    
C1    O5    A    
C50   H25   S    
C20   N2    A    
C45   N1    A    
C14   H18   S    
C48   N4    A    
C16   C20   A    
C46   H10   S    
C5    C6    A    
C9    C22   A    
Cu2   O9    S    
C31   H3    S    
C23   C40   S    
Cu2   N3    S    
C18   C19   A    
C22   H16   S    
C19   N2    A    
C16   C17   A    
C1    C37   S    
Cu2   O11   S    
C49   H13   S    
C21   C22   A    
C27   C30   A    
C36   C41   A    
C53   H19   S    
C4    C7    A    
C19   O4    S    
C47   H11   S    
C4    C28   A    
Cu2   O5    S    
C35   H21   S    
C6    H15   S    
C26   N2    S    
C7    C31   A    
C42   H23   S    
C24   C25   A    
C2    C54   A    
C8    C54   A    
C39   C40   A    
C46   N3    A    
C21   H26   S    
C25   C26   A    
C5    C45   A    
Cu1   O6    S    
C34   O11   A    
C39   H22   S    
C37   C38   A    
Cu1   N4    S    
Cu2   O7    S    
C8    C12   S    
C17   C18   A    
C51   N1    A    
C3    N1    S    
C51   O3    S    
C52   H2    S    
C12   O6    A    
C33   H5    S    
C48   C49   S    
C6    C30   A    
C11   C32   A    
C23   O9    A    
C10   C14   A    
C9    C34   S    
C31   C35   A    
C42   C43   S    
C42   H8    S    
C52   C53   A    
C38   H7    S    
C44   C50   S    
C1    O1    A    
C46   C47   A    
C28   C29   A    
C15   H17   S    
C43   C55   S    
C4    C5    A    
C10   C13   A    
C8    C53   A    
C3    C52   A    
C9    C24   A    
C13   C17   A    
C29   C35   A    
C12   O7    A    
C32   C33   A    
C44   N3    A    
C2    C3    A    
C50   H14   S    
C34   O10   A    
C7    C51   A    
Cu1   O10   S    
Cu1   O1    S    
C11   C13   A    
C38   C39   A    
C30   C56   S    
C25   H6    S    
Cu1   O8    S    
C45   O12   S    
C18   C33   A    
C44   C48   A    
C11   C29   A    
C36   C37   A    
C49   C50   S    
C27   C28   A    
C43   H24   S    
C14   C15   A    
C36   C43   S    
C23   O8    A    
C24   H4    S    
C20   O2    S    
C15   C16   A    
C54   H1    S    
