data_mof_unit_52190.cif
_audit_creation_date              2012-12-10T20:05:01-0500
_audit_creation_method            fapswitch 2.2
_symmetry_space_group_name_H-M    P1
_symmetry_Int_Tables_number       1
_space_group_crystal_system       triclinic
_cell_length_a                    15.840784
_cell_length_b                    15.840784
_cell_length_c                    26.257398
_cell_angle_alpha                 90.000129
_cell_angle_beta                  90.000129
_cell_angle_gamma                 90.003896
_cell_volume                      6588.78035865

loop_
_atom_site_label
_atom_site_type_symbol
_atom_type_description
_atom_site_fract_x
_atom_site_fract_y
_atom_site_fract_z
_atom_type_partial_charge
C1    C     C_R   1.000000 0.500005 0.446591 0.028348
C2    C     C_R   0.499999 1.000000 0.609584 0.555308
C3    C     C_2   0.122212 0.649991 0.917506 0.627082
C4    C     C_2   0.649993 0.122209 0.082493 0.627088
C5    C     C_2   0.344940 0.116702 0.918229 0.628883
C6    C     C_2   0.883297 0.655060 0.081771 0.628882
C7    C     C_2   0.877790 0.350007 0.917507 0.627088
C8    C     C_2   0.849838 0.377967 0.582470 0.627133
C9    C     C_2   0.154910 0.383136 0.418208 0.628819
C10   C     C_2   0.616864 0.845089 0.581792 0.628819
C11   C     C_2   0.622033 0.150162 0.417530 0.627133
C12   C     C_2   0.150139 0.622056 0.582475 0.627141
C13   C     C_R   0.000000 0.500001 0.390416 0.555308
C14   C     C_2   0.845106 0.616891 0.418205 0.628827
C15   C     C_2   0.383109 0.154894 0.581795 0.628827
C16   C     C_2   0.377944 0.849861 0.417525 0.627140
C17   C     C_R   0.999999 0.499999 0.609615 0.557451
C18   C     C_R   0.000000 0.500000 0.890384 0.557524
C19   C     C_R   0.000000 0.500000 0.109583 0.555231
C20   C     C_R   0.500000 1.000000 0.890417 0.555231
C21   C     C_R   0.500000 1.000000 0.109616 0.557524
C22   C     C_R   0.340019 0.159980 0.250000 0.522447
C23   C     C_R   0.659974 0.840026 0.750000 0.552992
C24   C     C_R   0.840020 0.340020 0.250000 0.521557
C25   C     C_R   0.999998 0.500003 0.553490 0.029177
C26   C     C_R   0.159973 0.659973 0.750000 0.555469
C27   C     C_R   0.659980 0.840020 0.250000 0.522444
C28   C     C_R   0.340026 0.159974 0.750000 0.552993
C29   C     C_R   0.159980 0.659980 0.250000 0.521559
C30   C     C_R   0.840027 0.340027 0.750000 0.555461
C31   C     C_R   0.340020 0.840020 0.750000 0.521559
C32   C     C_R   0.659973 0.159973 0.250000 0.555462
C33   C     C_R   0.840020 0.659980 0.750000 0.522447
C34   C     C_R   0.159974 0.340026 0.250000 0.552992
C35   C     C_R   0.659980 0.159980 0.750000 0.521557
C36   C     C_R   0.499997 0.000002 0.446510 0.029177
C37   C     C_R   0.340027 0.840027 0.250000 0.555469
C38   C     C_R   0.159980 0.340020 0.750000 0.522444
C39   C     C_R   0.840026 0.659974 0.250000 0.552993
C40   C     C_1   0.276706 0.776706 0.250000 0.047493
C41   C     C_1   0.723312 0.223312 0.750000 0.023058
C42   C     C_1   0.223295 0.276705 0.250000 0.047158
C43   C     C_1   0.776688 0.723312 0.750000 0.023983
C44   C     C_1   0.723294 0.223294 0.250000 0.047492
C45   C     C_1   0.276688 0.776688 0.750000 0.023056
C46   C     C_1   0.776705 0.723295 0.250000 0.047159
C47   C     C_R   0.499995 1.000000 0.553408 0.028348
C48   C     C_1   0.223312 0.276688 0.750000 0.023986
C49   C     C_1   0.276705 0.223295 0.750000 0.047159
C50   C     C_1   0.723312 0.776688 0.250000 0.023986
C51   C     C_1   0.223294 0.723294 0.750000 0.047493
C52   C     C_1   0.776688 0.276688 0.250000 0.023058
C53   C     C_1   0.723295 0.776705 0.750000 0.047158
C54   C     C_1   0.276688 0.223312 0.250000 0.023983
C55   C     C_1   0.776706 0.276706 0.750000 0.047492
C56   C     C_1   0.223312 0.723312 0.250000 0.023056
C57   C     C_R   0.348679 0.948438 0.045011 0.034193
C58   C     C_R   0.500000 0.999999 0.946594 0.028325
C59   C     C_R   0.653377 0.954644 0.955216 0.033903
C60   C     C_R   0.045356 0.346623 0.044784 0.033903
C61   C     C_R   0.051562 0.651321 0.954989 0.034193
C62   C     C_R   0.651322 0.051557 0.045012 0.034195
C63   C     C_R   0.346621 0.045351 0.955215 0.033905
C64   C     C_R   0.954649 0.653378 0.044784 0.033905
C65   C     C_R   0.948443 0.348678 0.954988 0.034195
C66   C     C_R   0.848606 0.448641 0.545003 0.034183
C67   C     C_R   0.153319 0.454467 0.455210 0.033909
C68   C     C_R   0.545533 0.846681 0.544790 0.033909
C69   C     C_R   0.500000 0.999999 0.053493 0.029203
C70   C     C_R   0.551359 0.151394 0.454997 0.034183
C71   C     C_R   0.151384 0.551383 0.545006 0.034188
C72   C     C_R   0.846685 0.545560 0.455208 0.033913
C73   C     C_R   0.454440 0.153315 0.544792 0.033913
C74   C     C_R   0.448617 0.848616 0.454994 0.034188
C75   C     C_R   0.271991 0.968196 0.021006 -0.145940
C76   C     C_R   0.729165 0.977973 0.979093 -0.146465
C77   C     C_R   0.022027 0.270835 0.020907 -0.146465
C78   C     C_R   0.031804 0.728009 0.978994 -0.145940
C79   C     C_R   0.728010 0.031794 0.021007 -0.145939
C80   C     C_R   0.000001 0.500000 0.946507 0.029203
C81   C     C_R   0.270834 0.022018 0.979092 -0.146466
C82   C     C_R   0.977982 0.729166 0.020908 -0.146466
C83   C     C_R   0.968206 0.271990 0.978993 -0.145939
C84   C     C_R   0.771945 0.468518 0.521001 -0.145954
C85   C     C_R   0.229137 0.477697 0.479090 -0.146453
C86   C     C_R   0.522303 0.770863 0.520910 -0.146453
C87   C     C_R   0.531482 0.228055 0.478999 -0.145954
C88   C     C_R   0.228049 0.531519 0.521004 -0.145955
C89   C     C_R   0.770865 0.522342 0.479088 -0.146444
C90   C     C_R   0.477658 0.229135 0.520912 -0.146444
C91   C     C_R   0.000001 0.500000 0.053406 0.028326
C92   C     C_R   0.468481 0.771951 0.478996 -0.145955
C93   C     C_R   0.923752 0.512188 0.474640 -0.003225
C94   C     C_R   0.075710 0.515072 0.525487 -0.003255
C95   C     C_R   0.484928 0.924290 0.474513 -0.003255
C96   C     C_R   0.487812 0.076248 0.525360 -0.003225
C97   C     C_R   0.076247 0.487827 0.474641 -0.003229
C98   C     C_R   0.924285 0.484941 0.525486 -0.003255
C99   C     C_R   0.515059 0.075715 0.474514 -0.003255
C100  C     C_R   0.512173 0.923753 0.525358 -0.003229
C101  C     C_R   0.423736 0.012084 0.974645 -0.003223
C102  C     C_R   0.500001 0.000000 0.390385 0.557451
C103  C     C_R   0.575693 0.015157 0.025491 -0.003256
C104  C     C_R   0.984843 0.424307 0.974509 -0.003256
C105  C     C_R   0.987916 0.576264 0.025355 -0.003223
C106  C     C_R   0.576263 0.987913 0.974645 -0.003227
C107  C     C_R   0.424307 0.984839 0.025491 -0.003259
C108  C     C_R   0.015161 0.575693 0.974509 -0.003259
C109  C     C_R   0.012087 0.423737 0.025355 -0.003227
C110  C     C_2   0.350009 0.877788 0.082494 0.627082
C111  C     C_2   0.655057 0.883295 0.918228 0.628876
C112  C     C_2   0.116705 0.344943 0.081772 0.628876
H1    H     H_    0.787311 0.057001 0.034694 0.115695
H2    H     H_    0.710568 0.545034 0.465387 0.115684
H3    H     H_    0.454966 0.289431 0.534613 0.115684
H4    H     H_    0.443348 0.712618 0.465309 0.115691
H5    H     H_    0.712609 0.443394 0.534689 0.115703
H6    H     H_    0.289436 0.455015 0.465387 0.115686
H7    H     H_    0.544985 0.710564 0.534613 0.115686
H8    H     H_    0.556605 0.287391 0.465311 0.115703
H9    H     H_    0.239860 0.910258 0.116720 0.295685
H10   H     H_    0.763376 0.920180 0.883517 0.295261
H11   H     H_    0.079820 0.236624 0.116483 0.295261
H12   H     H_    0.210506 0.044623 0.965391 0.115680
H13   H     H_    0.089742 0.760140 0.883280 0.295685
H14   H     H_    0.760148 0.089748 0.116716 0.295682
H15   H     H_    0.236610 0.079830 0.883523 0.295258
H16   H     H_    0.920170 0.763390 0.116477 0.295258
H17   H     H_    0.910251 0.239852 0.883284 0.295682
H18   H     H_    0.739753 0.410592 0.616715 0.295675
H19   H     H_    0.263271 0.419913 0.383503 0.295278
H20   H     H_    0.580087 0.736729 0.616497 0.295278
H21   H     H_    0.589407 0.260247 0.383285 0.295675
H22   H     H_    0.260247 0.589468 0.616709 0.295668
H23   H     H_    0.955377 0.789494 0.034609 0.115680
H24   H     H_    0.736715 0.580162 0.383514 0.295273
H25   H     H_    0.419837 0.263285 0.616486 0.295273
H26   H     H_    0.410531 0.739753 0.383291 0.295668
H27   H     H_    0.942999 0.212689 0.965306 0.115695
H28   H     H_    0.212691 0.942987 0.034692 0.115700
H29   H     H_    0.789492 0.955364 0.965392 0.115687
H30   H     H_    0.044636 0.210508 0.034607 0.115687
H31   H     H_    0.057013 0.787309 0.965308 0.115700
H32   H     H_    0.287382 0.556651 0.534690 0.115691
O1    O     O_3   0.500000 0.000000 0.250000 -0.468949
O2    O     O_R   0.500000 0.930770 0.634140 -0.535106
O3    O     O_R   0.930770 0.500000 0.365860 -0.535106
O4    O     O_R   0.069230 0.500000 0.634140 -0.534993
O5    O     O_R   0.000000 0.430770 0.865860 -0.534979
O6    O     O_R   0.000000 0.569230 0.134140 -0.535116
O7    O     O_R   0.569230 0.000000 0.865860 -0.535118
O8    O     O_R   0.430770 1.000000 0.134140 -0.534981
O9    O     O_R   0.000000 0.569230 0.865860 -0.534981
O10   O     O_R   0.000000 0.430770 0.134140 -0.535117
O11   O     O_R   0.430770 0.000000 0.865860 -0.535115
O12   O     O_3   0.500000 0.000000 0.750000 -0.468882
O13   O     O_R   0.569230 1.000000 0.134140 -0.534979
O14   O     O_R   0.402550 0.166630 0.280410 -0.532798
O15   O     O_R   0.597450 0.833370 0.719590 -0.510036
O16   O     O_R   0.833370 0.402550 0.280410 -0.533590
O17   O     O_R   0.166630 0.597450 0.719590 -0.511589
O18   O     O_R   0.597450 0.833370 0.280410 -0.532800
O19   O     O_R   0.402550 0.166630 0.719590 -0.510051
O20   O     O_R   0.166630 0.597450 0.280410 -0.533596
O21   O     O_R   0.833370 0.402550 0.719590 -0.511579
O22   O     O_R   0.402550 0.833370 0.719590 -0.533596
O23   O     O_3   0.000000 0.500000 0.250000 -0.468882
O24   O     O_R   0.597450 0.166630 0.280410 -0.511579
O25   O     O_R   0.833370 0.597450 0.719590 -0.532798
O26   O     O_R   0.166630 0.402550 0.280410 -0.510036
O27   O     O_R   0.597450 0.166630 0.719590 -0.533590
O28   O     O_R   0.402550 0.833370 0.280410 -0.511589
O29   O     O_R   0.166630 0.402550 0.719590 -0.532800
O30   O     O_R   0.833370 0.597450 0.280410 -0.510051
O31   O     O_R   0.902550 0.666630 0.780410 -0.532763
O32   O     O_R   0.097450 0.333370 0.219590 -0.509978
O33   O     O_R   0.333370 0.902550 0.780410 -0.533625
O34   O     O_3   0.000000 0.500000 0.750000 -0.468949
O35   O     O_R   0.666630 0.097450 0.219590 -0.511663
O36   O     O_R   0.097450 0.333370 0.780410 -0.532763
O37   O     O_R   0.902550 0.666630 0.219590 -0.509978
O38   O     O_R   0.666630 0.097450 0.780410 -0.533628
O39   O     O_R   0.333370 0.902550 0.219590 -0.511658
O40   O     O_R   0.902550 0.333370 0.219590 -0.533628
O41   O     O_R   0.097450 0.666630 0.780410 -0.511658
O42   O     O_R   0.333370 0.097450 0.219590 -0.532763
O43   O     O_R   0.666630 0.902550 0.780410 -0.509978
O44   O     O_R   0.097450 0.666630 0.219590 -0.533625
O45   O     O_R   0.500000 0.930770 0.365860 -0.534993
O46   O     O_R   0.902550 0.333370 0.780410 -0.511662
O47   O     O_R   0.666630 0.902550 0.219590 -0.532763
O48   O     O_R   0.333370 0.097450 0.780410 -0.509978
O49   O     O_2   0.410862 0.830515 0.083935 -0.449718
O50   O     O_R   0.282735 0.862916 0.115829 -0.646647
O51   O     O_2   0.596380 0.833309 0.917232 -0.448504
O52   O     O_R   0.722697 0.870954 0.884785 -0.644954
O53   O     O_2   0.166690 0.403620 0.082767 -0.448504
O54   O     O_R   0.129046 0.277303 0.115215 -0.644954
O55   O     O_2   0.169484 0.589138 0.916065 -0.449718
O56   O     O_R   0.500000 0.069230 0.634140 -0.535106
O57   O     O_R   0.137084 0.717265 0.884171 -0.646647
O58   O     O_2   0.589139 0.169479 0.083935 -0.449720
O59   O     O_R   0.717270 0.137087 0.115826 -0.646648
O60   O     O_2   0.403621 0.166683 0.917231 -0.448505
O61   O     O_R   0.277294 0.129052 0.884791 -0.644956
O62   O     O_2   0.833317 0.596379 0.082769 -0.448506
O63   O     O_R   0.870948 0.722706 0.115209 -0.644956
O64   O     O_2   0.830521 0.410861 0.916064 -0.449720
O65   O     O_R   0.862913 0.282730 0.884174 -0.646648
O66   O     O_2   0.910619 0.330601 0.583895 -0.449682
O67   O     O_R   0.069230 0.500000 0.365860 -0.535106
O68   O     O_R   0.782552 0.363184 0.615811 -0.646592
O69   O     O_2   0.096173 0.333222 0.417203 -0.448535
O70   O     O_R   0.222536 0.370732 0.384763 -0.644996
O71   O     O_2   0.666778 0.903827 0.582797 -0.448535
O72   O     O_R   0.629267 0.777464 0.615237 -0.644996
O73   O     O_2   0.669399 0.089381 0.416105 -0.449682
O74   O     O_R   0.636816 0.217447 0.384189 -0.646592
O75   O     O_2   0.089342 0.669400 0.583908 -0.449693
O76   O     O_R   0.217428 0.636861 0.615810 -0.646601
O77   O     O_2   0.903862 0.666782 0.417193 -0.448544
O78   O     O_R   0.930770 0.500000 0.634140 -0.534993
O79   O     O_R   0.777473 0.629324 0.384770 -0.645004
O80   O     O_2   0.333218 0.096138 0.582807 -0.448544
O81   O     O_R   0.370676 0.222527 0.615230 -0.645004
O82   O     O_2   0.330599 0.910658 0.416092 -0.449693
O83   O     O_R   0.363139 0.782572 0.384190 -0.646601
O84   O     O_R   0.500000 0.069230 0.365860 -0.534993
Zn1   Zn    Zn3+2 0.401050 0.000000 0.206670 1.001979
Zn2   Zn    Zn3+2 0.098950 0.500000 0.293330 1.000717
Zn3   Zn    Zn3+2 0.500000 0.901050 0.706670 1.000718
Zn4   Zn    Zn3+2 0.500000 0.098950 0.293330 1.001966
Zn5   Zn    Zn3+2 0.098950 0.500000 0.706670 1.001963
Zn6   Zn    Zn3+2 0.901050 0.500000 0.293330 1.000719
Zn7   Zn    Zn3+2 0.500000 0.098950 0.706670 1.000719
Zn8   Zn    Zn3+2 0.500000 0.901050 0.293330 1.001963
Zn9   Zn    Zn3+2 0.598950 1.000000 0.793330 1.000707
Zn10  Zn    Zn3+2 0.000000 0.401050 0.206670 1.000707
Zn11  Zn    Zn3+2 0.000000 0.598950 0.793330 1.001979
Zn12  Zn    Zn3+2 0.598950 0.000000 0.206670 1.001977
Zn13  Zn    Zn3+2 0.401050 1.000000 0.793330 1.000714
Zn14  Zn    Zn3+2 0.000000 0.598950 0.206670 1.000713
Zn15  Zn    Zn3+2 1.000000 0.401050 0.793330 1.001977
Zn16  Zn    Zn3+2 0.901050 0.500000 0.706670 1.001966

loop_
_geom_bond_atom_site_label_1
_geom_bond_atom_site_label_2
_ccdc_geom_bond_type
C101  C107  A    
O23   Zn6   S    
O33   Zn13  S    
O1    Zn12  S    
C16   O83   S    
C8    C66   S    
O22   Zn3   S    
O67   Zn2   S    
C24   O40   A    
C68   C86   A    
C13   O67   A    
C14   O77   D    
H18   O68   S    
C34   C42   S    
O56   Zn7   S    
C93   C98   A    
C63   C101  A    
C33   O25   A    
C102  O45   A    
C5    O60   D    
C83   H27   S    
C69   C107  A    
C11   C70   S    
C64   C105  A    
C22   C54   S    
O42   Zn1   S    
O27   Zn7   S    
O37   Zn14  S    
C35   O38   A    
C16   O82   D    
C15   O81   S    
C16   C74   S    
C36   C102  S    
C20   O11   A    
C73   C90   A    
O8    Zn1   S    
C37   C40   S    
C75   H28   S    
C27   O18   A    
C104  C109  A    
C26   O41   A    
H22   O76   S    
C10   O71   D    
C65   C83   A    
C7    C65   S    
C45   C51   T    
O12   Zn7   S    
C6    C64   S    
C37   O39   A    
C96   C99   A    
C4    C62   S    
C15   O80   D    
C19   O6    A    
C35   O27   A    
C5    C63   S    
O20   Zn2   S    
O4    Zn5   S    
C21   O8    A    
C74   C92   A    
C82   H23   S    
C61   C108  A    
O45   Zn8   S    
C91   C105  A    
C77   H30   S    
C41   C55   T    
H25   O81   S    
C60   C109  A    
H11   O54   S    
C11   O73   D    
O43   Zn9   S    
O44   Zn14  S    
C43   C53   T    
O23   Zn10  S    
C84   H5    S    
C40   C56   T    
C23   O15   A    
C110  O50   S    
O48   Zn13  S    
C3    O55   D    
C47   C96   A    
C76   C79   A    
C32   O35   A    
C86   H7    S    
C17   O78   A    
H16   O63   S    
C66   C84   A    
C36   C99   A    
C18   O5    A    
O39   Zn1   S    
C12   O75   D    
C38   C48   S    
C34   O26   A    
C27   C50   S    
C111  O52   S    
O18   Zn8   S    
C76   H29   S    
C44   C52   T    
C69   C103  A    
O46   Zn15  S    
O16   Zn6   S    
H19   O70   S    
C31   O33   A    
C29   O20   A    
H26   O83   S    
C27   O47   A    
C37   O28   A    
C39   O30   A    
C8    O66   D    
C70   C87   A    
O30   Zn6   S    
C2    C47   S    
O40   Zn10  S    
O34   Zn11  S    
C7    O65   S    
O29   Zn5   S    
O32   Zn10  S    
C23   C53   S    
O36   Zn15  S    
O34   Zn16  S    
O2    Zn3   S    
C3    C61   S    
O7    Zn9   S    
C105  C108  A    
C60   C77   A    
C67   C85   A    
C59   C106  A    
C38   O36   A    
O9    Zn11  S    
C81   H12   S    
C33   C43   S    
C14   O79   S    
C17   O4    A    
C19   C91   S    
O41   Zn11  S    
O14   Zn4   S    
O21   Zn16  S    
O78   Zn16  S    
C95   C100  A    
C75   C81   A    
C4    O59   S    
C22   O14   A    
C94   C97   A    
C9    O69   D    
C78   H31   S    
C1    C93   A    
C47   C100  A    
C21   C69   S    
C91   C109  A    
C58   C106  A    
C3    O57   S    
O15   Zn3   S    
C8    O68   S    
C22   O42   A    
C9    C67   S    
C34   O32   A    
O35   Zn12  S    
C60   C112  S    
H17   O65   S    
O24   Zn4   S    
C28   C49   S    
C78   C82   A    
O13   Zn12  S    
C59   C111  S    
C57   C110  S    
C31   O22   A    
O6    Zn14  S    
C61   C78   A    
O5    Zn15  S    
O23   Zn14  S    
H13   O57   S    
C110  O49   D    
C102  O84   A    
C80   C108  A    
C32   C44   S    
C10   O72   S    
C58   C101  A    
C90   H3    S    
C92   H4    S    
C11   O74   S    
C64   C82   A    
C6    O63   S    
C39   O37   A    
C18   O9    A    
C39   C46   S    
H20   O72   S    
C72   C93   A    
O11   Zn13  S    
C74   C95   A    
C48   C49   T    
C15   C73   S    
O1    Zn4   S    
C80   C104  A    
C32   O24   A    
C9    O70   S    
H14   O59   S    
C2    O56   A    
O1    Zn8   S    
C1    C13   S    
C84   C89   A    
C13   O3    A    
O25   Zn16  S    
C1    C97   A    
C112  O53   D    
O84   Zn4   S    
C70   C99   A    
C85   C88   A    
O23   Zn2   S    
O34   Zn15  S    
O28   Zn8   S    
O47   Zn12  S    
O1    Zn1   S    
C89   H2    S    
C24   C52   S    
C63   C81   A    
C57   C107  A    
C21   O13   A    
C68   C100  A    
C12   C71   S    
C30   O21   A    
H10   O52   S    
C7    O64   D    
C38   O29   A    
C62   C103  A    
O34   Zn5   S    
C29   O44   A    
C33   O31   A    
C29   C56   S    
C10   C68   S    
O12   Zn9   S    
C2    O2    A    
C30   C55   S    
C46   C50   T    
C26   O17   A    
H21   O74   S    
C73   C96   A    
C20   O7    A    
C14   C72   S    
C57   C75   A    
C79   H1    S    
H15   O61   S    
C17   C25   S    
C87   H8    S    
C86   C92   A    
C4    O58   D    
C42   C54   T    
C23   O43   A    
C72   C89   A    
C36   C95   A    
C66   C98   A    
O10   Zn10  S    
H24   O79   S    
O31   Zn11  S    
O26   Zn2   S    
C12   O76   S    
C103  C106  A    
C30   O46   A    
C85   H6    S    
C35   C41   S    
C62   C79   A    
C6    O62   D    
O19   Zn7   S    
O12   Zn13  S    
C67   C97   A    
C5    O61   S    
C71   C88   A    
O3    Zn6   S    
C25   C98   A    
C25   C94   A    
C24   O16   A    
O17   Zn5   S    
O38   Zn9   S    
C112  O54   S    
C18   C80   S    
H9    O50   S    
C31   C45   S    
C87   C90   A    
C19   O10   A    
C77   C83   A    
C28   O48   A    
C71   C94   A    
O12   Zn3   S    
C65   C104  A    
C26   C51   S    
C20   C58   S    
C59   C76   A    
C88   H32   S    
C28   O19   A    
C111  O51   D    
