data_mof_unit_19648.cif
_audit_creation_date              2012-12-10T19:25:47-0500
_audit_creation_method            fapswitch 2.2
_symmetry_space_group_name_H-M    P1
_symmetry_Int_Tables_number       1
_space_group_crystal_system       triclinic
_cell_length_a                    9.752301
_cell_length_b                    10.493294
_cell_length_c                    16.730662
_cell_angle_alpha                 89.921448
_cell_angle_beta                  84.603765
_cell_angle_gamma                 89.558388
_cell_volume                      1704.47275931

loop_
_atom_site_label
_atom_site_type_symbol
_atom_type_description
_atom_site_fract_x
_atom_site_fract_y
_atom_site_fract_z
_atom_type_partial_charge
C1    C     C_R   0.499448 0.742557 0.499902 0.863590
C2    C     C_R   0.500564 0.257465 0.499999 0.859306
C3    C     C_3   0.368967 0.961025 0.499744 -0.143034
C4    C     C_3   0.631039 0.039082 0.500007 -0.140256
C5    C     C_3   0.446261 0.043188 0.433745 -0.180875
C6    C     C_3   0.553752 0.956940 0.566005 -0.181605
C7    C     C_3   0.501716 0.122370 0.499923 0.033707
C8    C     C_3   0.498298 0.877713 0.499841 0.030006
C9    C     C_3   0.424590 0.042930 0.565918 -0.176377
C10   C     C_3   0.575421 0.957173 0.433837 -0.175782
C11   C     C_3   0.942963 0.587125 0.547261 -0.071086
C12   C     C_3   0.057043 0.412859 0.452738 -0.069291
C13   C     C_3   0.051619 0.608595 0.476102 -0.072278
C14   C     C_3   0.948375 0.391394 0.523895 -0.073516
C15   C     C_3   0.037194 0.478496 0.571222 -0.078854
C16   C     C_3   0.962801 0.521484 0.428775 -0.076936
C17   C     C_R   0.480153 0.497928 0.653233 0.868600
C18   C     C_R   0.519849 0.493314 0.347132 0.865833
C19   C     C_R   0.466970 0.477614 0.739538 -0.062737
C20   C     C_R   0.533660 0.452466 0.263943 -0.053501
C21   C     C_R   0.582319 0.491882 0.782154 -0.215773
C22   C     C_R   0.430521 0.376327 0.236555 -0.218064
C23   C     C_R   0.576136 0.456553 0.861964 -0.217994
C24   C     C_R   0.445417 0.328368 0.159310 -0.223874
C25   C     C_R   0.454435 0.405702 0.900603 0.160414
C26   C     C_R   0.561447 0.359604 0.107401 0.163294
C27   C     C_R   0.335922 0.396415 0.859042 0.241963
C28   C     C_R   0.668991 0.430754 0.135673 0.247281
C29   C     C_R   0.343465 0.431326 0.778220 -0.274897
C30   C     C_R   0.655105 0.475239 0.214700 -0.274058
C31   C     C_2   0.447861 0.373239 0.985959 -0.216005
C32   C     C_2   0.559651 0.337402 0.021359 -0.236151
H1    H     H_    0.678267 0.528564 0.753496 0.157885
H2    H     H_    0.338784 0.352515 0.275165 0.154657
H3    H     H_    0.889846 0.660423 0.587017 0.114328
H4    H     H_    0.110187 0.339573 0.412977 0.110891
H5    H     H_    0.073342 0.460338 0.631197 0.112877
H6    H     H_    0.926592 0.539574 0.368801 0.115563
H7    H     H_    0.736850 0.531028 0.236585 0.145403
H8    H     H_    0.253721 0.419119 0.745494 0.151305
H9    H     H_    0.656395 0.316776 0.986030 0.174344
H10   H     H_    0.352186 0.394730 0.022116 0.178530
H11   H     H_    0.363455 0.271300 0.138850 0.148747
H12   H     H_    0.666937 0.470700 0.893204 0.153703
H13   H     H_    0.402853 0.083338 0.379996 0.129479
H14   H     H_    0.597250 0.916940 0.619756 0.129190
H15   H     H_    0.262153 0.925179 0.499627 0.133906
H16   H     H_    0.737846 0.074950 0.500123 0.133819
H17   H     H_    0.363532 0.082797 0.619605 0.130123
H18   H     H_    0.636520 0.917379 0.380147 0.130040
H19   H     H_    0.100013 0.700014 0.455969 0.115268
H20   H     H_    0.899969 0.299988 0.544046 0.115420
N1    N     N_3   0.136700 0.499970 0.500060 -0.070708
N2    N     N_3   0.863300 0.500030 0.499940 -0.070999
O1    O     O_R   0.383390 0.686040 0.500000 -0.624309
O2    O     O_R   0.616610 0.313960 0.500000 -0.625594
O3    O     O_R   0.616650 0.686050 0.499970 -0.620067
O4    O     O_R   0.383350 0.313950 0.500030 -0.623714
O5    O     O_R   0.369590 0.500020 0.615820 -0.621042
O6    O     O_R   0.630410 0.499980 0.384180 -0.619293
O7    O     O_R   0.602840 0.500020 0.615790 -0.618259
O8    O     O_R   0.397160 0.499980 0.384210 -0.618074
Zn1   Zn    Zn3+2 0.344250 0.499990 0.500020 0.931557
Zn2   Zn    Zn3+2 0.655750 0.500010 0.499980 0.933651
N3    N     N_2   0.211226 0.346364 0.897089 -0.318070
H21   H     H_    0.165956 0.280976 0.862012 0.222059
C33   C     C_3   0.113716 0.442638 0.928378 -0.838853
H22   H     H_    0.077322 0.500023 0.878500 0.239203
H23   H     H_    0.161306 0.506715 0.970587 0.247198
H24   H     H_    0.023626 0.395839 0.961374 0.255270
N4    N     N_2   0.786978 0.464220 0.083635 -0.330747
H25   H     H_    0.877750 0.454672 0.110242 0.221417
C34   C     C_3   0.776115 0.587619 0.045979 -0.830066
H26   H     H_    0.775362 0.664478 0.091677 0.241646
H27   H     H_    0.680461 0.594391 0.015007 0.257658
H28   H     H_    0.865658 0.601661 0.000857 0.243610

loop_
_geom_bond_atom_site_label_1
_geom_bond_atom_site_label_2
_ccdc_geom_bond_type
C25   C31   S    
C26   C32   S    
C31   H10   S    
C27   C29   A    
C1    C8    S    
N1    Zn1   S    
C34   H26   S    
C2    C7    S    
C6    C9    S    
C20   C30   A    
C27   N3    S    
C15   N1    S    
C19   C21   A    
C24   C26   A    
C21   H1    S    
C3    H15   S    
C15   H5    S    
C17   O7    A    
C13   H19   S    
C11   C15   S    
C14   H20   S    
C12   C16   S    
N3    C33   S    
O1    Zn1   S    
C32   H9    S    
O2    Zn2   S    
C12   H4    S    
C12   N1    S    
C34   H27   S    
C4    C7    S    
C13   N1    S    
C22   H2    S    
C33   H22   S    
C9    H17   S    
C4    C6    S    
C3    C8    S    
C5    C7    S    
C18   O8    A    
C6    C8    S    
C5    H13   S    
C23   H12   S    
C33   H23   S    
O7    Zn2   S    
O8    Zn1   S    
C3    C9    S    
C1    O3    A    
C31   C32   D    
C11   N2    S    
C17   O5    A    
C18   O6    A    
C14   N2    S    
C12   C14   S    
C21   C23   A    
C34   H28   S    
C22   C24   A    
C28   N4    S    
C4    C10   S    
C19   C29   A    
O3    Zn2   S    
N4    C34   S    
C4    H16   S    
O4    Zn1   S    
C7    C9    S    
C6    H14   S    
C26   C28   A    
C20   C22   A    
C3    C5    S    
C2    O4    A    
C25   C27   A    
O5    Zn1   S    
O6    Zn2   S    
C33   H24   S    
C11   H3    S    
C1    O1    A    
N4    H25   S    
C2    O2    A    
C11   C13   S    
N2    Zn2   S    
C29   H8    S    
C28   C30   A    
C17   C19   S    
C30   H7    S    
C18   C20   S    
C23   C25   A    
C16   N2    S    
C5    C10   S    
C8    C10   S    
N3    H21   S    
C13   C16   S    
C24   H11   S    
C14   C15   S    
C16   H6    S    
C10   H18   S    
