data_mof_unit_8046.cif
_audit_creation_date              2012-12-10T18:02:11-0500
_audit_creation_method            fapswitch 2.2
_symmetry_space_group_name_H-M    P1
_symmetry_Int_Tables_number       1
_space_group_crystal_system       triclinic
_cell_length_a                    10.827228
_cell_length_b                    9.498437
_cell_length_c                    23.529724
_cell_angle_alpha                 90.003799
_cell_angle_beta                  90.183707
_cell_angle_gamma                 90.001385
_cell_volume                      2419.8253851

loop_
_atom_site_label
_atom_site_type_symbol
_atom_type_description
_atom_site_fract_x
_atom_site_fract_y
_atom_site_fract_z
_atom_type_partial_charge
C1    C     C_R   0.262003 0.499997 0.499962 0.787249
C2    C     C_R   0.737997 0.500000 0.500042 0.787304
C3    C     C_R   0.530733 0.392340 0.235403 -0.163408
C4    C     C_R   0.467150 0.393089 0.764531 -0.162294
C5    C     C_R   0.538593 0.384234 0.294556 0.380047
C6    C     C_R   0.459107 0.385213 0.705376 0.380490
C7    C     C_R   0.503811 0.502470 0.327889 -0.201477
C8    C     C_R   0.496427 0.502461 0.672072 -0.201707
C9    C     C_R   0.467841 0.627474 0.300300 -0.366126
C10   C     C_R   0.535198 0.626370 0.699655 -0.365409
C11   C     C_R   0.462260 0.635455 0.240826 0.494558
C12   C     C_R   0.541057 0.634134 0.759124 0.494354
C13   C     C_R   0.495469 0.517483 0.208560 0.189011
C14   C     C_R   0.505222 0.517166 0.791386 0.188182
C15   C     C_R   0.063862 0.372032 0.499988 -0.176469
C16   C     C_R   0.936139 0.627959 0.500034 -0.177818
C17   C     C_R   0.936133 0.372033 0.500036 -0.176512
C18   C     C_R   0.063866 0.627958 0.499972 -0.177608
C19   C     C_R   0.871800 0.499997 0.500048 -0.018521
C20   C     C_R   0.128200 0.499995 0.499964 -0.018539
C21   C     C_R   0.423927 0.074481 0.464270 -0.000856
C22   C     C_R   0.576074 0.925516 0.535731 -0.014412
C23   C     C_R   0.576079 0.074496 0.535727 -0.000856
C24   C     C_R   0.423932 0.925501 0.464266 -0.014988
C25   C     C_R   0.502546 0.500045 0.390768 0.827093
C26   C     C_R   0.497481 0.500058 0.609218 0.826134
C27   C     C_R   0.613371 0.528917 0.881161 0.616989
C28   C     C_R   0.387603 0.532376 0.118793 0.617281
C29   C     C_R   0.393083 0.536358 0.879568 0.607293
C30   C     C_R   0.607987 0.533391 0.120375 0.606854
C31   C     C_R   0.388826 0.553186 0.939115 -0.184775
C32   C     C_R   0.612608 0.550060 0.060829 -0.184837
C33   C     C_R   0.501418 0.552940 0.969887 -0.104112
C34   C     C_R   0.500045 0.553002 0.030058 -0.104132
C35   C     C_R   0.615337 0.548302 0.940580 -0.188771
C36   C     C_R   0.386061 0.551688 0.059367 -0.188845
C37   C     C_R   0.275909 0.568387 0.968915 0.407422
C38   C     C_R   0.725823 0.562017 0.031029 0.406489
C39   C     C_R   0.274489 0.567261 0.028249 0.403445
C40   C     C_R   0.727218 0.560747 0.971695 0.402339
Cu1   Cu    Cu3+1 0.500000 0.640660 0.500000 0.951041
Cu2   Cu    Cu3+1 0.500000 0.359340 0.500000 0.956748
H1    H     H_    0.557092 0.302305 0.209902 0.187787
H2    H     H_    0.438787 0.303850 0.790025 0.188479
H3    H     H_    0.445274 0.719958 0.325030 0.178619
H4    H     H_    0.559845 0.718149 0.674918 0.178007
H5    H     H_    0.111929 0.272007 0.499969 0.150511
H6    H     H_    0.888074 0.727985 0.500064 0.150894
H7    H     H_    0.888061 0.272008 0.500061 0.150426
H8    H     H_    0.111936 0.727984 0.499937 0.150962
H9    H     H_    0.363036 0.130771 0.435684 0.129443
H10   H     H_    0.636955 0.869225 0.564326 0.113976
H11   H     H_    0.636976 0.130798 0.564310 0.129023
H12   H     H_    0.363055 0.869198 0.435669 0.114119
N1    N     N_R   0.503856 0.526444 0.852277 -0.431439
N2    N     N_R   0.497035 0.526711 0.147670 -0.431594
N3    N     N_R   0.500000 0.852070 0.500000 -0.158909
N4    N     N_R   0.500000 0.147930 0.500000 -0.164099
O1    O     O_R   0.319640 0.618740 0.500000 -0.587973
O2    O     O_R   0.680360 0.381260 0.500000 -0.592919
O3    O     O_R   0.680360 0.618740 0.500000 -0.588125
O4    O     O_R   0.319640 0.381260 0.500000 -0.592854
O5    O     O_R   0.499960 0.618810 0.417880 -0.577304
O6    O     O_R   0.500040 0.381190 0.582120 -0.571109
O7    O     O_R   0.500040 0.618810 0.582120 -0.576848
O8    O     O_R   0.499960 0.381190 0.417880 -0.571064
O9    O     O_2   0.719193 0.507476 0.852320 -0.522040
O10   O     O_2   0.281337 0.514158 0.147649 -0.521240
O11   O     O_2   0.287930 0.526298 0.848932 -0.502132
O12   O     O_2   0.712889 0.520293 0.151006 -0.502006
O13   O     O_3   0.164822 0.590169 0.941581 -0.588454
H13   H     H_    0.177843 0.667524 0.913959 0.347715
O14   O     O_3   0.837347 0.580720 0.058359 -0.586440
H14   H     H_    0.825992 0.658409 0.085990 0.349073
O15   O     O_3   0.162086 0.588101 0.054258 -0.586895
H15   H     H_    0.174223 0.661696 0.083611 0.339358
O16   O     O_3   0.840045 0.578349 0.945683 -0.585379
H16   H     H_    0.829512 0.652148 0.916290 0.340616
O17   O     O_3   0.584283 0.261337 0.317543 -0.705113
H17   H     H_    0.637263 0.286433 0.350374 0.336338
O18   O     O_3   0.410676 0.263665 0.682375 -0.704251
H18   H     H_    0.359414 0.290000 0.649133 0.335885
O19   O     O_3   0.436459 0.760794 0.212951 -0.567850
C41   C     C_3   0.319755 0.813212 0.229382 0.060195
H19   H     H_    0.326936 0.868706 0.270854 0.144764
H20   H     H_    0.249135 0.727973 0.232375 0.171946
C42   C     C_3   0.275668 0.918718 0.185133 -0.694549
H21   H     H_    0.267809 0.866754 0.142989 0.238955
H22   H     H_    0.183823 0.960780 0.197359 0.210450
H23   H     H_    0.342129 0.007478 0.182081 0.255443
O20   O     O_3   0.569825 0.758647 0.786985 -0.567977
C43   C     C_3   0.688022 0.806933 0.770752 0.059352
H24   H     H_    0.682740 0.862271 0.729191 0.143691
H25   H     H_    0.756405 0.719305 0.768019 0.172993
C44   C     C_3   0.734412 0.911247 0.814971 -0.693717
H26   H     H_    0.740334 0.859433 0.857206 0.239121
H27   H     H_    0.827508 0.949936 0.802932 0.210446
H28   H     H_    0.670357 0.002331 0.817726 0.255840

loop_
_geom_bond_atom_site_label_1
_geom_bond_atom_site_label_2
_ccdc_geom_bond_type
C23   N4    A    
C38   C40   A    
C42   H21   S    
C9    H3    S    
C8    C26   S    
Cu1   Cu2   S    
C12   O20   S    
C44   H26   S    
C41   C42   S    
Cu1   O3    S    
C1    O4    A    
C16   H6    S    
C22   N3    A    
O18   H18   S    
C28   N2    A    
C44   H28   S    
O16   H16   S    
C3    H1    S    
C28   O10   S    
C41   H20   S    
C1    O1    A    
C25   O5    A    
C2    O2    A    
C24   H12   S    
C15   C17   A    
O14   H14   S    
C26   O6    A    
C33   C35   A    
C24   N3    A    
C10   H4    S    
C31   C33   A    
C32   C38   A    
C5    O17   S    
Cu2   O4    S    
C18   C20   A    
C3    C13   A    
C2    O3    A    
C13   N2    S    
C14   N1    S    
C6    O18   S    
Cu2   N4    S    
C30   O12   S    
C23   H11   S    
C29   O11   S    
C15   C20   A    
C41   H19   S    
Cu1   O1    S    
C4    C6    A    
Cu2   O2    S    
O20   C43   S    
C5    C7    A    
C15   H5    S    
C6    C8    A    
C4    H2    S    
C27   C35   A    
C30   N2    A    
C43   C44   S    
C31   C37   A    
C32   C34   A    
O15   H15   S    
O19   C41   S    
C29   C31   A    
C43   H25   S    
C33   C34   A    
C9    C11   A    
C10   C12   A    
C16   C18   A    
C12   C14   A    
C39   O15   S    
C37   O13   S    
C42   H23   S    
Cu1   O5    S    
C17   H7    S    
Cu2   O6    S    
C21   H9    S    
C18   H8    S    
C22   H10   S    
C7    C9    A    
C1    C20   S    
C2    C19   S    
C40   O16   S    
C26   O7    A    
C36   C39   A    
C25   O8    A    
C3    C5    A    
Cu1   O7    S    
C44   H27   S    
C29   N1    A    
C27   N1    A    
C7    C25   S    
C11   O19   S    
C42   H22   S    
C35   C40   A    
Cu1   N3    S    
C21   N4    A    
C37   C39   A    
C30   C32   A    
C11   C13   A    
C16   C19   A    
C43   H24   S    
C17   C19   A    
C34   C36   A    
C4    C14   A    
C27   O9    S    
O17   H17   S    
O13   H13   S    
C28   C36   A    
C8    C10   A    
C21   C24   A    
Cu2   O8    S    
C22   C23   A    
C38   O14   S    
