data_mof_unit_45423.cif
_audit_creation_date              2012-12-11T14:15:31-0500
_audit_creation_method            fapswitch 2.2
_symmetry_space_group_name_H-M    P1
_symmetry_Int_Tables_number       1
_space_group_crystal_system       triclinic
_cell_length_a                    11.179043
_cell_length_b                    12.70327
_cell_length_c                    23.618896
_cell_angle_alpha                 90.819969
_cell_angle_beta                  96.565541
_cell_angle_gamma                 68.878916
_cell_volume                      3106.97341345

loop_
_atom_site_label
_atom_site_type_symbol
_atom_type_description
_atom_site_fract_x
_atom_site_fract_y
_atom_site_fract_z
_atom_type_partial_charge
C1    C     C_R   0.148861 0.616061 0.428953 0.554851
C2    C     C_R   0.651597 0.563090 0.308337 0.164017
C3    C     C_R   0.696313 0.737453 0.318452 0.197946
C4    C     C_R   0.706025 0.740079 0.258683 -0.021353
C5    C     C_R   0.690267 0.651166 0.225503 -0.071862
C6    C     C_R   0.699241 0.650438 0.166805 0.188215
C7    C     C_R   0.708924 0.836986 0.170068 0.138705
C8    C     C_R   0.735179 0.824329 0.230118 0.220967
C9    C     C_1   0.241618 0.155962 0.124234 0.098674
C10   C     C_2   0.212679 0.206801 0.231912 0.167875
C11   C     C_2   0.122521 0.185679 0.258573 0.196853
C12   C     C_R   0.748475 0.604341 0.403622 0.575966
C13   C     C_1   0.115888 0.208813 0.318508 0.008889
C14   C     C_1   0.226166 0.182939 0.172686 0.112357
C15   C     C_1   0.110684 0.235890 0.367611 0.044968
C16   C     C_1   0.183848 0.763435 0.127856 0.085789
C17   C     C_2   0.213440 0.726476 0.239122 0.288392
C18   C     C_2   0.181122 0.645990 0.262338 0.157057
C19   C     C_1   0.187098 0.633443 0.323003 0.124550
C20   C     C_1   0.193424 0.745517 0.178314 0.090733
C21   C     C_1   0.179873 0.625452 0.372940 0.104155
C22   C     C_1   0.532100 0.790184 0.851702 0.078312
C23   C     C_R   0.100650 0.282296 0.423409 0.555010
C24   C     C_2   0.577655 0.768842 0.743674 0.180203
C25   C     C_2   0.585285 0.675857 0.714226 0.175168
C26   C     C_1   0.633497 0.658131 0.659142 0.102571
C27   C     C_1   0.550251 0.780724 0.802186 0.088622
C28   C     C_1   0.681326 0.637844 0.614993 0.100714
C29   C     C_R   0.221089 0.157643 0.847813 -0.030192
C30   C     C_R   0.095688 0.226733 0.638460 -0.013810
C31   C     C_R   0.987386 0.280068 0.722512 0.231636
C32   C     C_R   0.980141 0.266523 0.664568 0.145190
C33   C     C_R   0.213165 0.173932 0.671073 0.162127
C34   C     C_R   0.110738 0.596283 0.595714 0.556466
C35   C     C_R   0.218281 0.178638 0.730484 -0.032813
C36   C     C_R   0.100715 0.218572 0.756082 -0.046700
C37   C     C_R   0.100368 0.196545 0.814402 0.233875
C38   C     C_R   0.333333 0.150736 0.823176 -0.116452
C39   C     C_R   0.334478 0.155870 0.765474 0.207556
C40   C     C_R   0.109431 0.736834 0.860942 -0.019397
C41   C     C_R   0.134140 0.607457 0.658339 -0.037005
C42   C     C_R   0.249487 0.533620 0.752014 0.205942
C43   C     C_R   0.238880 0.525972 0.692577 0.151936
C44   C     C_R   0.043002 0.697105 0.685222 0.140093
C45   C     C_R   0.748124 0.602411 0.565489 0.565348
C46   C     C_R   0.063754 0.711954 0.744077 -0.021571
C47   C     C_R   0.167375 0.628477 0.777194 -0.043357
C48   C     C_R   0.193424 0.646247 0.834925 -0.138325
C49   C     C_R   0.990952 0.802004 0.831251 0.281151
C50   C     C_R   0.980753 0.804932 0.772110 0.219592
C51   C     C_R   0.266160 0.109957 0.069298 0.565236
C52   C     C_R   0.601610 0.774918 0.081281 0.591550
C53   C     C_R   0.190636 0.789021 0.069972 0.563662
C54   C     C_R   0.244554 0.110865 0.905995 0.570194
C55   C     C_R   0.511479 0.798225 0.910737 0.552357
C56   C     C_R   0.097787 0.277899 0.584213 0.567851
C57   C     C_R   0.160114 0.783638 0.910310 0.561476
C58   C     C_R   0.679009 0.752647 0.138404 -0.009834
C59   C     C_R   0.689323 0.639347 0.343852 0.018013
C60   C     C_R   0.655924 0.568588 0.250144 -0.118368
Cr1   Cr    Cr6+3 0.189770 0.415650 0.511620 1.165913
Cr2   Cr    Cr6+3 0.930400 0.667320 0.496770 1.184552
Cr3   Cr    Cr6+3 0.879870 0.417010 0.491650 1.158521
Cr4   Cr    Cr6+3 0.149500 0.973980 0.985330 1.167477
Cr5   Cr    Cr6+3 0.457000 0.976510 0.994660 1.111100
Cr6   Cr    Cr6+3 0.411170 0.724270 0.995270 1.134517
H1    H     H_    0.425953 0.133317 0.848381 0.211705
H2    H     H_    0.283090 0.595045 0.859266 0.204003
H3    H     H_    0.629564 0.508404 0.223705 0.205684
O1    O     O_R   0.196340 0.303200 0.448500 -0.462655
O2    O     O_R   0.811960 0.658090 0.547150 -0.468209
O3    O     O_R   0.757930 0.506140 0.547110 -0.462996
O4    O     O_R   0.988670 0.321620 0.556040 -0.480742
O5    O     O_3   0.000020 0.499990 0.500010 -0.346138
O6    O     O_R   0.113660 0.883270 0.047820 -0.457130
O7    O     O_R   0.186930 0.068530 0.043990 -0.471350
O8    O     O_R   0.377770 0.089040 0.054220 -0.472849
O9    O     O_R   0.562800 0.872960 0.056970 -0.471532
O10   O     O_R   0.555390 0.700940 0.062700 -0.442446
O11   O     O_R   0.295020 0.731920 0.049950 -0.495903
O12   O     O_R   0.199310 0.519670 0.454880 -0.477926
O13   O     O_R   0.094290 0.884230 0.921550 -0.424650
O14   O     O_R   0.168980 0.069410 0.926940 -0.431781
O15   O     O_R   0.358400 0.089990 0.927950 -0.535028
O16   O     O_R   0.544850 0.873850 0.939920 -0.484129
O17   O     O_R   0.536020 0.701900 0.936430 -0.442059
O18   O     O_R   0.277070 0.732810 0.932890 -0.539373
O19   O     O_3   0.339220 0.891590 0.991750 -0.337734
O20   O     O_R   0.045660 0.691380 0.441680 -0.469050
O21   O     O_R   0.811930 0.659460 0.430950 -0.453249
O22   O     O_R   0.757900 0.507620 0.421760 -0.448041
O23   O     O_R   0.988630 0.322990 0.439840 -0.491401
O24   O     O_R   0.196380 0.301720 0.573850 -0.447533
O25   O     O_R   0.199350 0.518300 0.571080 -0.455952
O26   O     O_R   0.045700 0.689900 0.567030 -0.442923
S1    S     S_3+6 0.760182 0.520313 0.131553 0.102089
O27   O     O_2   0.657991 0.469163 0.120010 -0.228712
O28   O     O_2   0.804917 0.538021 0.076027 -0.176406
O29   O     O_3   0.887653 0.431477 0.173259 -0.433626
H4    H     H_    0.851419 0.407443 0.204847 0.351221
S2    S     S_3+6 0.282682 0.811251 0.281223 0.030388
O30   O     O_2   0.180470 0.894244 0.312347 -0.253015
O31   O     O_2   0.388552 0.738301 0.324172 -0.287636
O32   O     O_3   0.343507 0.880840 0.239415 -0.523289
H5    H     H_    0.361061 0.938648 0.263999 0.382907
Br1   Br    Br    0.552540 0.554269 0.747336 -0.300846
Br2   Br    Br    0.617382 0.886251 0.711783 -0.254424
S3    S     S_3+6 0.955534 0.204000 0.843358 0.115993
O33   O     O_2   0.943749 0.271688 0.896544 -0.224233
O34   O     O_2   0.834423 0.254735 0.802899 -0.135141
O35   O     O_3   0.964877 0.073160 0.859794 -0.468165
H6    H     H_    0.888378 0.083917 0.879863 0.400844
Br3   Br    Br    0.890802 0.429066 0.746626 -0.331922
Br4   Br    Br    0.493775 0.155098 0.741473 -0.141464
Br5   Br    Br    0.809123 0.298670 0.625501 -0.233418
Br6   Br    Br    0.351921 0.076448 0.631386 -0.278923
Br7   Br    Br    0.726430 0.963420 0.132173 -0.265427
S4    S     S_3+6 0.848868 0.843632 0.865816 0.069592
O36   O     O_2   0.742493 0.939726 0.833633 -0.213616
O37   O     O_2   0.809465 0.742558 0.866325 -0.262676
O38   O     O_3   0.871386 0.880362 0.933759 -0.493108
H7    H     H_    0.787911 0.894812 0.948778 0.377316
Br8   Br    Br    0.373863 0.412061 0.800074 -0.337798
Br9   Br    Br    0.909421 0.956367 0.739182 -0.210119
Br10  Br    Br    0.374191 0.404640 0.661430 -0.224787
Br11  Br    Br    0.878252 0.787424 0.644290 -0.310180
Br12  Br    Br    0.836923 0.904203 0.268527 -0.235287
S5    S     S_3+6 0.590123 0.463372 0.333297 0.110596
O39   O     O_2   0.517803 0.508509 0.383598 -0.198212
O40   O     O_2   0.499739 0.440347 0.286881 -0.201845
O41   O     O_3   0.712503 0.341546 0.352830 -0.422205
H8    H     H_    0.776266 0.333908 0.325707 0.337710
S6    S     S_3+6 0.653452 0.862706 0.358808 0.107917
O42   O     O_2   0.772792 0.876925 0.388426 -0.169305
O43   O     O_2   0.579079 0.964752 0.320834 -0.227375
O44   O     O_3   0.561324 0.853742 0.408780 -0.471067
H9    H     H_    0.471865 0.880659 0.389361 0.384236
S7    S     S_3+6 0.005794 0.136538 0.221814 0.079537
O45   O     O_2   0.948565 0.202520 0.166812 -0.181789
O46   O     O_2   0.068098 0.014723 0.207816 -0.208520
O47   O     O_3   0.886843 0.150697 0.262252 -0.442144
H10   H     H_    0.929647 0.102394 0.296694 0.380096
Br13  Br    Br    0.338735 0.259456 0.272319 -0.272344
Br14  Br    Br    0.105564 0.554472 0.216606 -0.413878

loop_
_geom_bond_atom_site_label_1
_geom_bond_atom_site_label_2
_ccdc_geom_bond_type
Cr1   O1    S    
Cr2   O20   S    
C1    C21   S    
S2    O30   D    
C45   O2    A    
C6    C58   A    
C12   O22   A    
O35   H6    S    
C9    C51   S    
C24   C27   S    
C4    C8    A    
S5    O39   D    
C43   Br10  S    
C54   O15   A    
C7    C8    A    
Cr6   O10   S    
C44   Br11  S    
C12   O21   A    
C36   C37   A    
C19   C21   T    
C11   S7    S    
C31   C36   A    
Cr6   O19   S    
C5    C6    A    
Cr1   O24   S    
C29   C54   S    
C1    O12   A    
C40   C49   A    
S1    O29   S    
C17   C20   S    
S3    O33   D    
C18   C19   S    
C17   S2    S    
S4    O36   D    
C54   O14   A    
C16   C53   S    
C12   C59   S    
O29   H4    S    
Cr4   O19   S    
S1    O28   D    
C29   C38   A    
C42   Br8   S    
S6    O44   S    
Cr5   O9    S    
C52   O10   A    
C7    C58   A    
C5    C60   A    
C10   Br13  S    
C15   C23   S    
S2    O31   D    
Cr2   O26   S    
C45   O3    A    
C41   C43   A    
C23   O1    A    
C53   O6    A    
C34   C41   S    
C52   O9    A    
O32   H5    S    
C44   C46   A    
C25   Br1   S    
C56   O24   A    
C28   C45   S    
Cr5   O8    S    
C53   O11   A    
C50   Br9   S    
C34   O26   A    
C37   S3    S    
C10   C14   S    
Cr6   O18   S    
C2    C59   A    
O44   H9    S    
Cr5   O15   S    
Cr3   O4    S    
C25   C26   S    
C30   C56   S    
C48   H2    S    
C57   O18   A    
C3    S6    S    
S4    O38   S    
C55   O16   A    
C35   C39   A    
C9    C14   T    
C51   O8    A    
Cr4   O14   S    
C8    Br12  S    
C47   C48   A    
C16   C20   T    
C39   Br4   S    
S1    O27   D    
C17   C18   D    
Cr4   O7    S    
C24   Br2   S    
C24   C25   D    
Cr4   O13   S    
O38   H7    S    
C52   C58   S    
Cr3   O23   S    
S2    O32   S    
C6    S1    S    
C22   C27   T    
C13   C15   T    
S6    O42   D    
C41   C44   A    
C42   C43   A    
C29   C37   A    
O41   H8    S    
S5    O41   S    
C40   C57   S    
Cr5   O19   S    
C23   O23   A    
C40   C48   A    
C46   C47   A    
C33   Br6   S    
C1    O20   A    
C56   O4    A    
C30   C33   A    
Cr1   O25   S    
C31   C32   A    
C34   O25   A    
C4    C5    A    
S7    O47   S    
S5    O40   D    
Cr6   O17   S    
Cr5   O16   S    
C22   C55   S    
S7    O46   D    
Cr3   O5    S    
Cr1   O5    S    
Cr6   O11   S    
C46   C50   A    
C26   C28   T    
C7    Br7   S    
S3    O35   S    
C10   C11   D    
C55   O17   A    
C18   Br14  S    
Cr1   O12   S    
O47   H10   S    
C30   C32   A    
C11   C13   S    
C38   C39   A    
C60   H3    S    
Cr2   O21   S    
Cr3   O3    S    
C33   C35   A    
Cr4   O6    S    
S3    O34   D    
Cr2   O2    S    
C2    C60   A    
C42   C47   A    
C32   Br5   S    
S4    O37   D    
S7    O45   D    
C49   S4    S    
C38   H1    S    
C49   C50   A    
Cr3   O22   S    
C51   O7    A    
S6    O43   D    
C57   O13   A    
Cr2   O5    S    
C35   C36   A    
C31   Br3   S    
C3    C4    A    
C3    C59   A    
C2    S5    S    
