data_mof_unit_46676.cif
_audit_creation_date              2012-12-10T17:37:20-0500
_audit_creation_method            fapswitch 2.2
_symmetry_space_group_name_H-M    P1
_symmetry_Int_Tables_number       1
_space_group_crystal_system       triclinic
_cell_length_a                    12.346268
_cell_length_b                    13.014026
_cell_length_c                    15.796461
_cell_angle_alpha                 77.852588
_cell_angle_beta                  100.296954
_cell_angle_gamma                 116.283431
_cell_volume                      2214.10875211

loop_
_atom_site_label
_atom_site_type_symbol
_atom_type_description
_atom_site_fract_x
_atom_site_fract_y
_atom_site_fract_z
_atom_type_partial_charge
C1    C     C_R   0.855332 0.285522 0.503819 0.825662
C2    C     C_R   0.227043 0.837962 0.471754 -0.057832
C3    C     C_R   0.815845 0.071220 0.528183 -0.068114
C4    C     C_R   0.001158 0.502912 0.659519 0.886877
C5    C     C_R   0.731732 0.953507 0.538206 -0.003606
C6    C     C_R   0.608133 0.925447 0.521959 -0.201324
C7    C     C_R   0.564173 0.010183 0.487678 0.085080
C8    C     C_R   0.648722 0.126262 0.465879 0.098646
C9    C     C_R   0.437810 0.980710 0.469018 0.094484
C10   C     C_R   0.397634 0.062681 0.417619 0.142806
C11   C     C_R   0.482574 0.172265 0.386376 -0.238957
C12   C     C_3   0.001227 0.504873 0.916322 0.097030
C13   C     C_R   0.605990 0.203384 0.409513 -0.179708
C14   C     C_R   0.350034 0.871128 0.499509 -0.240892
C15   C     C_R   0.188018 0.919864 0.421338 -0.141016
C16   C     C_R   0.144780 0.714348 0.487828 0.783808
C17   C     C_R   0.773742 0.160102 0.497570 -0.196465
C18   C     C_R   0.307667 0.283651 0.584817 -0.183933
C19   C     C_R   0.773287 0.662557 0.396864 0.036959
C20   C     C_R   0.686242 0.707244 0.379539 0.392842
C21   C     C_R   0.575469 0.644888 0.415370 -0.259026
C22   C     C_R   0.551538 0.538179 0.469552 -0.092847
C23   C     C_3   0.098867 0.488715 0.043092 -0.130240
C24   C     C_R   0.645934 0.498614 0.489905 0.133043
C25   C     C_R   0.437832 0.468635 0.505726 0.001711
C26   C     C_R   0.412444 0.352375 0.542292 0.114689
C27   C     C_R   0.499077 0.310319 0.544732 -0.288626
C28   C     C_R   0.000984 0.500096 0.340191 0.808404
C29   C     C_R   0.619593 0.391111 0.546779 0.441419
C30   C     C_R   0.348099 0.507844 0.507606 0.064149
C31   C     C_R   0.227813 0.330203 0.590462 0.124202
C32   C     C_3   0.899266 0.415474 0.028632 -0.181421
C33   C     C_3   0.905481 0.518104 0.956838 0.011340
C34   C     C_3   0.001897 0.502148 0.082798 0.141783
C35   C     C_1   0.001159 0.504964 0.748923 -0.051536
C36   C     C_1   0.002648 0.500144 0.250648 -0.146343
C37   C     C_3   0.996450 0.402334 0.987206 -0.163928
C38   C     C_2   0.798838 0.536370 0.906753 0.883018
C39   C     C_2   0.946086 0.097401 0.548977 0.904987
C40   C     C_2   0.768293 0.855456 0.564481 0.900522
C41   C     C_3   0.103491 0.591259 0.970815 -0.146316
C42   C     C_3   0.006591 0.604939 0.012181 -0.189521
C43   C     C_1   0.001183 0.505482 0.824490 0.002963
C44   C     C_1   0.002728 0.500804 0.174852 -0.031071
C45   C     C_R   0.272937 0.032386 0.395604 -0.165817
Cu1   Cu    Cu3+1 0.098270 0.475420 0.519690 0.980775
Cu2   Cu    Cu3+1 0.901730 0.524580 0.480310 1.005120
H1    H     H_    0.375120 0.808974 0.544832 0.156795
H2    H     H_    0.508282 0.679500 0.398417 0.175255
H3    H     H_    0.010035 0.687657 0.023687 0.163824
H4    H     H_    0.187157 0.663083 0.945798 0.160087
H5    H     H_    0.178650 0.476526 0.080246 0.152511
H6    H     H_    0.992603 0.319523 0.975570 0.164818
H7    H     H_    0.092836 0.896087 0.399589 0.195742
H8    H     H_    0.453615 0.234429 0.343862 0.156114
H9    H     H_    0.241497 0.094488 0.355918 0.159252
H10   H     H_    0.739500 0.636993 0.813832 0.366359
H11   H     H_    0.075084 0.071446 0.637138 0.324011
H12   H     H_    0.547835 0.834473 0.528860 0.163382
H13   H     H_    0.724223 0.690940 0.623013 0.374413
H14   H     H_    0.867222 0.012466 0.309810 0.382727
H15   H     H_    0.603961 0.315248 0.782627 0.394319
H16   H     H_    0.667001 0.286731 0.378768 0.173642
H17   H     H_    0.147152 0.278174 0.623483 0.144741
H18   H     H_    0.479476 0.222040 0.575945 0.191706
H19   H     H_    0.289858 0.195907 0.615893 0.145202
H20   H     H_    0.357110 0.592436 0.475339 0.123662
H21   H     H_    0.858640 0.710946 0.368582 0.167162
H22   H     H_    0.815510 0.343727 0.053622 0.174712
N1    N     N_R   0.246280 0.438200 0.549540 -0.195534
N2    N     N_R   0.754330 0.561180 0.450980 -0.244286
O1    O     O_R   0.972510 0.318130 0.524770 -0.568554
O2    O     O_R   0.818173 0.634101 0.843639 -0.717430
O3    O     O_2   0.014931 0.144708 0.491756 -0.578261
O4    O     O_R   0.987497 0.059387 0.632524 -0.750133
O5    O     O_2   0.862459 0.863042 0.543352 -0.546435
O6    O     O_R   0.691543 0.751972 0.611000 -0.765032
O7    O     O_2   0.707473 0.827541 0.220046 -0.271627
O8    O     O_2   0.629729 0.888900 0.323569 -0.306617
O9    O     O_3   0.860139 0.936018 0.341913 -0.529957
O10   O     O_2   0.755395 0.320814 0.676816 -0.324969
O11   O     O_2   0.748312 0.507012 0.681498 -0.299569
O12   O     O_R   0.806530 0.359650 0.491510 -0.585099
O13   O     O_3   0.563774 0.316931 0.722497 -0.527467
O14   O     O_R   0.082970 0.479240 0.637550 -0.596328
O15   O     O_R   0.916990 0.520750 0.604290 -0.484318
O16   O     O_R   0.193470 0.640350 0.508490 -0.597706
O17   O     O_R   0.027490 0.681870 0.475230 -0.582586
O18   O     O_R   0.083010 0.479250 0.395710 -0.565402
O19   O     O_R   0.917030 0.520760 0.362450 -0.593897
O20   O     O_2   0.695800 0.466012 0.921209 -0.584245
S1    S     S_3+6 0.717779 0.842371 0.313367 -0.009072
S2    S     S_3+6 0.678186 0.386996 0.658234 0.010315

loop_
_geom_bond_atom_site_label_1
_geom_bond_atom_site_label_2
_ccdc_geom_bond_type
C8    C13   A    
C27   C29   A    
C41   C42   S    
C19   N2    A    
C19   C20   A    
C34   C42   S    
C21   H2    S    
C7    C8    A    
Cu1   O18   S    
C20   S1    S    
C26   C27   A    
C33   C42   S    
C12   C43   S    
C5    C6    A    
C4    O15   A    
H14   O9    S    
C39   O3    D    
H10   O2    S    
C12   C37   S    
C24   C29   A    
C31   N1    A    
C45   H9    S    
C22   C25   A    
C18   C26   A    
C16   O16   A    
C28   O18   A    
Cu2   O12   S    
C35   C43   T    
C9    C10   A    
Cu1   O1    S    
C30   H20   S    
Cu1   O14   S    
C37   H6    S    
C4    C35   S    
C3    C39   S    
O11   S2    D    
C21   C22   A    
C6    H12   S    
C30   N1    A    
H11   O4    S    
H13   O6    S    
C1    O1    A    
Cu2   O15   S    
C34   C44   S    
C14   H1    S    
C4    O14   A    
O7    S1    D    
C25   C26   A    
C23   C37   S    
C38   O20   D    
C40   O5    D    
C32   C34   S    
O9    S1    S    
C9    C14   A    
C15   H7    S    
C12   C41   S    
C27   H18   S    
O10   S2    D    
C13   H16   S    
C23   C34   S    
C10   C45   A    
C19   H21   S    
C32   C37   S    
C2    C15   A    
Cu2   N2    S    
O8    S1    D    
C32   H22   S    
C42   H3    S    
C39   O4    S    
Cu2   O19   S    
C22   C24   A    
C36   C44   T    
C18   H19   S    
C15   C45   A    
C11   H8    S    
Cu1   O16   S    
C25   C30   A    
C7    C9    A    
H15   O13   S    
Cu1   Cu2   S    
C31   H17   S    
C33   C38   S    
C3    C5    A    
C6    C7    A    
C2    C16   S    
C1    O12   A    
C1    C17   S    
C8    C17   A    
C23   C41   S    
C32   C33   S    
Cu2   O17   S    
C29   S2    S    
C11   C13   A    
C23   H5    S    
C3    C17   A    
O13   S2    S    
C2    C14   A    
Cu1   N1    S    
C10   C11   A    
C20   C21   A    
C28   C36   S    
C5    C40   S    
C16   O17   A    
C40   O6    S    
C28   O19   A    
C18   C31   A    
C12   C33   S    
C41   H4    S    
C24   N2    A    
C38   O2    S    
