data_mof_unit_43819.cif
_audit_creation_date              2012-12-10T19:15:11-0500
_audit_creation_method            fapswitch 2.2
_symmetry_space_group_name_H-M    P1
_symmetry_Int_Tables_number       1
_space_group_crystal_system       triclinic
_cell_length_a                    10.873022
_cell_length_b                    9.959927
_cell_length_c                    22.486243
_cell_angle_alpha                 86.851982
_cell_angle_beta                  87.98119
_cell_angle_gamma                 86.433045
_cell_volume                      2425.51497235

loop_
_atom_site_label
_atom_site_type_symbol
_atom_type_description
_atom_site_fract_x
_atom_site_fract_y
_atom_site_fract_z
_atom_type_partial_charge
C1    C     C_R   0.259268 0.503489 0.497110 1.048049
C2    C     C_R   0.282777 0.274715 0.982900 0.688116
C3    C     C_R   0.282239 0.280228 0.044710 -0.187322
C4    C     C_R   0.280401 0.404672 0.071177 -0.116560
C5    C     C_R   0.267500 0.525007 0.035535 -0.012091
C6    C     C_R   0.263281 0.650420 0.062014 -0.011454
C7    C     C_R   0.248033 0.769841 0.026185 -0.092971
C8    C     C_R   0.247261 0.765115 0.964339 -0.076057
C9    C     C_R   0.301388 0.412222 0.131861 0.642336
C10   C     C_R   0.285929 0.652743 0.122943 0.626740
C11   C     C_R   0.495121 0.494272 0.218610 0.365006
C12   C     C_R   0.500287 0.503097 0.388306 0.888399
C13   C     C_R   0.540107 0.468769 0.277202 0.218316
C14   C     C_R   0.464577 0.513624 0.325983 -0.201230
C15   C     C_R   0.344903 0.568838 0.316608 -0.229229
C16   C     C_R   0.296220 0.576116 0.260558 -0.076953
C17   C     C_R   0.369385 0.537763 0.211719 0.110007
C18   C     C_R   0.275919 0.478036 0.744231 0.484223
C19   C     C_R   0.329043 0.472109 0.686767 -0.241784
C20   C     C_R   0.454024 0.495928 0.674942 -0.225185
C21   C     C_R   0.527124 0.528739 0.722312 0.391082
C22   C     C_R   0.473365 0.535499 0.779459 -0.208606
C23   C     C_R   0.743169 0.497226 0.496585 1.094505
C24   C     C_R   0.349636 0.510201 0.790718 0.076146
C25   C     C_3   0.067658 0.648212 0.475846 1.056491
C26   C     C_3   0.074243 0.468247 0.558601 0.969571
C27   C     C_3   0.925187 0.644205 0.473494 0.673587
C28   C     C_3   0.934032 0.450611 0.557667 0.674062
C29   C     C_3   0.085570 0.401206 0.451027 -0.618258
C30   C     C_3   0.123625 0.506796 0.495432 -0.617239
C31   C     C_3   0.882558 0.495093 0.493235 -0.703053
C32   C     C_3   0.943975 0.398351 0.447265 1.046753
C33   C     C_3   0.380275 0.090696 0.480484 0.350028
C34   C     C_3   0.388646 0.933438 0.470647 0.414832
C35   C     C_3   0.591978 0.079678 0.454831 -0.432245
C36   C     C_3   0.604941 0.918610 0.462792 -0.411847
C37   C     C_3   0.534640 0.062477 0.559495 0.755929
C38   C     C_3   0.503741 0.906966 0.560932 0.732329
C39   C     C_R   0.497210 0.497514 0.611873 1.013656
C40   C     C_R   0.279919 0.634480 0.875625 0.602633
C41   C     C_R   0.300307 0.393768 0.884419 0.638277
C42   C     C_R   0.280888 0.394597 0.946450 -0.179572
C43   C     C_R   0.267312 0.520062 0.973059 -0.084643
C44   C     C_R   0.261982 0.640933 0.937348 -0.029325
H1    H     H_    0.272409 0.449565 0.650689 0.264807
H2    H     H_    0.527977 0.558347 0.816531 0.204911
H3    H     H_    0.127167 0.424883 0.406013 0.246084
H4    H     H_    0.123139 0.298474 0.465083 0.319248
H5    H     H_    0.353285 0.145325 0.437979 0.117591
H6    H     H_    0.393636 0.919730 0.421722 0.091493
H7    H     H_    0.289608 0.186502 0.071525 0.225370
H8    H     H_    0.564375 0.109069 0.408512 0.221751
H9    H     H_    0.609799 0.876715 0.418028 0.230083
H10   H     H_    0.683136 0.122162 0.459253 0.329518
H11   H     H_    0.693328 0.886904 0.483961 0.343450
H12   H     H_    0.242875 0.867348 0.045535 0.211655
H13   H     H_    0.241049 0.859176 0.937744 0.239749
H14   H     H_    0.286479 0.600753 0.353737 0.232802
H15   H     H_    0.200750 0.610998 0.255010 0.223127
N1    N     N_R   0.303390 0.512610 0.851000 -0.342119
N2    N     N_R   0.313355 0.534685 0.155122 -0.335504
N3    N     N_3   0.499750 0.138610 0.498760 -0.238061
N4    N     N_3   0.499750 0.861390 0.498760 -0.241087
O1    O     O_R   0.314910 0.616040 0.499990 -0.489293
O2    O     O_R   0.314910 0.383960 0.499990 -0.559493
O3    O     O_R   0.500080 0.616070 0.416130 -0.609569
O4    O     O_R   0.500080 0.383930 0.416130 -0.633850
O5    O     O_R   0.685320 0.616040 0.499970 -0.502098
O6    O     O_R   0.685320 0.383960 0.499970 -0.576352
O7    O     O_R   0.500150 0.616010 0.583820 -0.518345
O8    O     O_R   0.500150 0.383990 0.583820 -0.539941
O9    O     O_2   0.278519 0.748933 0.840552 -0.456751
O10   O     O_2   0.320772 0.276028 0.857726 -0.407547
O11   O     O_2   0.316088 0.298248 0.166871 -0.490927
O12   O     O_2   0.288675 0.771489 0.148842 -0.499186
Zn1   Zn    Zn3+2 0.500150 0.654960 0.499970 1.142440
Zn2   Zn    Zn3+2 0.500150 0.345040 0.499970 1.096408
F1    F     F_    0.290731 0.151768 0.959289 -0.607923
S1    S     S_3+6 0.686355 0.552471 0.714058 0.141867
O13   O     O_2   0.738804 0.579382 0.772966 -0.252455
O14   O     O_2   0.750152 0.427013 0.691420 -0.182423
O15   O     O_3   0.710984 0.682997 0.665805 -0.363089
H16   H     H_    0.792305 0.713939 0.675708 0.444535
F2    F     F_    0.123247 0.688744 0.422095 -0.620183
F3    F     F_    0.140134 0.352904 0.580426 -0.556479
F4    F     F_    0.094162 0.742990 0.515575 -0.456757
F5    F     F_    0.094809 0.567514 0.596693 -0.593514
F6    F     F_    0.875587 0.732281 0.515164 -0.525947
F7    F     F_    0.875563 0.535944 0.597661 -0.527552
S2    S     S_3+6 0.873529 0.715467 0.400660 0.149888
O16   O     O_2   0.869370 0.866442 0.401779 -0.196924
O17   O     O_2   0.959705 0.673799 0.350225 -0.168172
O18   O     O_3   0.733494 0.668465 0.385033 -0.577123
H17   H     H_    0.713980 0.715824 0.346303 0.388425
S3    S     S_3+6 0.909005 0.280394 0.587477 0.237288
O19   O     O_2   0.946343 0.268533 0.651335 -0.138375
O20   O     O_2   0.776660 0.253680 0.585919 -0.145767
O21   O     O_3   0.993349 0.161413 0.551052 -0.385510
H18   H     H_    0.971793 0.074730 0.571252 0.442287
F8    F     F_    0.911980 0.436246 0.389876 -0.580279
F9    F     F_    0.906820 0.268683 0.457203 -0.564549
F10   F     F_    0.287701 0.123072 0.521765 -0.511603
F11   F     F_    0.280349 0.879010 0.489589 -0.465925
F12   F     F_    0.661993 0.059795 0.562515 -0.558538
F13   F     F_    0.602856 0.836077 0.587002 -0.520693
S4    S     S_3+6 0.489799 0.133203 0.632359 0.200721
O22   O     O_2   0.365955 0.208824 0.630426 -0.198637
O23   O     O_2   0.486072 0.027486 0.682187 -0.185077
O24   O     O_3   0.597088 0.229310 0.656609 -0.446156
H19   H     H_    0.577274 0.238853 0.699587 0.377482
S5    S     S_3+6 0.366673 0.861436 0.609559 0.199917
O25   O     O_2   0.412380 0.805900 0.668877 -0.234835
O26   O     O_2   0.276470 0.978787 0.619532 -0.126939
O27   O     O_3   0.281684 0.742229 0.587783 -0.418718
H20   H     H_    0.224212 0.726918 0.622224 0.424667
S6    S     S_3+6 0.593252 0.479119 0.153408 0.107189
O28   O     O_2   0.722527 0.512667 0.165526 -0.179138
O29   O     O_2   0.594415 0.336956 0.134009 -0.234292
O30   O     O_3   0.542956 0.584726 0.097352 -0.563515
H21   H     H_    0.580090 0.546734 0.060597 0.388632
S7    S     S_3+6 0.686091 0.380086 0.288771 0.154827
O31   O     O_2   0.715532 0.282637 0.240897 -0.135658
O32   O     O_2   0.784346 0.479968 0.286802 -0.168321
O33   O     O_3   0.690316 0.288830 0.353648 -0.507090
H22   H     H_    0.719126 0.349167 0.382837 0.405059
S8    S     S_3+6 0.119771 0.439552 0.756866 0.155226
O34   O     O_2   0.068812 0.488008 0.815425 -0.278592
O35   O     O_2   0.042444 0.504216 0.708012 -0.135166
O36   O     O_3   0.112470 0.271459 0.756901 -0.425000
H23   H     H_    0.027016 0.254147 0.770543 0.413094

loop_
_geom_bond_atom_site_label_1
_geom_bond_atom_site_label_2
_ccdc_geom_bond_type
O18   H17   S    
C40   N1    A    
C41   C42   A    
C23   O6    A    
N3    Zn2   S    
O6    Zn2   S    
S3    O19   D    
O4    Zn2   S    
O27   H20   S    
S3    O21   S    
C7    C8    A    
N4    Zn1   S    
S8    O34   D    
C29   H3    S    
C28   S3    S    
C9    N2    A    
C1    C30   S    
C37   C38   S    
O36   H23   S    
C29   C32   S    
C5    C6    A    
S4    O22   D    
C33   H5    S    
C15   C16   A    
S6    O28   D    
C27   S2    S    
C18   C19   A    
C34   N4    S    
S7    O33   S    
C36   H9    S    
C17   N2    S    
C19   C20   A    
C33   N3    S    
C25   F2    S    
C1    O2    A    
C28   F7    S    
C18   C24   A    
C35   N3    S    
C36   N4    S    
C5    C43   A    
C21   C22   A    
C35   H10   S    
C7    H12   S    
C37   N3    S    
C12   O4    A    
C34   H6    S    
O2    Zn2   S    
C29   H4    S    
C27   C31   S    
C33   F10   S    
S1    O14   D    
C20   C39   S    
C3    H7    S    
C26   F5    S    
S8    O36   S    
C12   O3    A    
O15   H16   S    
C32   F8    S    
C16   H15   S    
C23   C31   S    
C23   O5    A    
C43   C44   A    
C29   C30   S    
C2    F1    S    
C8    H13   S    
S1    O15   S    
C13   S7    S    
C10   O12   S    
S2    O17   D    
C31   C32   S    
C24   N1    S    
O3    Zn1   S    
C21   S1    S    
S3    O20   D    
C33   C34   S    
O1    Zn1   S    
S5    O26   D    
C11   S6    S    
S7    O31   D    
C22   H2    S    
C12   C14   S    
C26   C30   S    
O7    Zn1   S    
C15   H14   S    
C22   C24   A    
C10   N2    A    
C25   C27   S    
C42   C43   A    
C3    C4    A    
C1    O1    A    
O8    Zn2   S    
S2    O18   S    
C38   N4    S    
C25   C30   S    
C11   C17   A    
S8    O35   D    
C40   O9    S    
S5    O25   D    
C14   C15   A    
C28   C31   S    
C8    C44   A    
C41   N1    A    
C4    C5    A    
C6    C10   A    
C37   F12   S    
O30   H21   S    
C19   H1    S    
C6    C7    A    
O5    Zn1   S    
C26   C28   S    
C34   F11   S    
S6    O30   S    
C38   F13   S    
C2    C3    A    
C38   S5    S    
C37   S4    S    
C36   H11   S    
O24   H19   S    
C18   S8    S    
C11   C13   A    
S2    O16   D    
C16   C17   A    
S4    O23   D    
C2    C42   A    
C26   F3    S    
C25   F4    S    
C39   O7    A    
S6    O29   D    
S5    O27   S    
C27   F6    S    
S7    O32   D    
C41   O10   S    
S1    O13   D    
C40   C44   A    
C20   C21   A    
O21   H18   S    
C9    O11   S    
C35   H8    S    
C39   O8    A    
C32   F9    S    
C35   C36   S    
C4    C9    A    
C13   C14   A    
O33   H22   S    
S4    O24   S    
