data_mof_unit_41777.cif
_audit_creation_date              2012-12-10T18:22:29-0500
_audit_creation_method            fapswitch 2.2
_symmetry_space_group_name_H-M    P1
_symmetry_Int_Tables_number       1
_space_group_crystal_system       triclinic
_cell_length_a                    23.486715
_cell_length_b                    10.619706
_cell_length_c                    9.455205
_cell_angle_alpha                 90.21976
_cell_angle_beta                  91.134512
_cell_angle_gamma                 90.159017
_cell_volume                      2357.84697558

loop_
_atom_site_label
_atom_site_type_symbol
_atom_type_description
_atom_site_fract_x
_atom_site_fract_y
_atom_site_fract_z
_atom_type_partial_charge
C1    C     C_R   0.501016 0.259721 0.499859 0.788503
C2    C     C_R   0.498974 0.740280 0.500141 0.788563
C3    C     C_R   0.238310 0.540844 0.379912 -0.130108
C4    C     C_R   0.761687 0.459035 0.620020 -0.130102
C5    C     C_R   0.297643 0.540614 0.380081 -0.218124
C6    C     C_R   0.702355 0.459310 0.619868 -0.218245
C7    C     C_R   0.328607 0.499056 0.498923 -0.030591
C8    C     C_R   0.671391 0.500906 0.501047 -0.030566
C9    C     C_R   0.299356 0.458763 0.618952 -0.233332
C10   C     C_R   0.700643 0.541187 0.381010 -0.233255
C11   C     C_R   0.240004 0.458774 0.618819 -0.110027
C12   C     C_R   0.759994 0.541139 0.381132 -0.110031
C13   C     C_R   0.209276 0.499645 0.499182 0.365973
C14   C     C_R   0.790722 0.500234 0.500755 0.365999
C15   C     C_3   0.535442 0.039814 0.602151 0.064096
C16   C     C_3   0.464532 0.960191 0.397855 0.064033
C17   C     C_3   0.552697 0.955495 0.477001 -0.229601
C18   C     C_3   0.447279 0.044512 0.523003 -0.229626
C19   C     C_3   0.498643 0.877048 0.500232 -0.019225
C20   C     C_3   0.501334 0.122956 0.499771 -0.019221
C21   C     C_3   0.481740 0.959481 0.626525 -0.205319
C22   C     C_3   0.518235 0.040522 0.373478 -0.205438
C23   C     C_R   0.391118 0.499573 0.499230 0.793703
C24   C     C_R   0.608881 0.500425 0.500766 0.793714
C25   C     C_3   0.504824 0.613369 0.051744 -0.085982
C26   C     C_3   0.495177 0.386627 0.948254 -0.085998
C27   C     C_3   0.458151 0.566243 0.946581 -0.084733
C28   C     C_3   0.541849 0.433754 0.053418 -0.084785
C29   C     C_3   0.546473 0.546986 0.954505 0.130406
C30   C     C_3   0.453525 0.453009 0.045490 0.130478
C31   C     C_R   0.880428 0.612648 0.500114 0.526575
C32   C     C_R   0.119570 0.387232 0.499871 0.526577
C33   C     C_R   0.880102 0.387549 0.501591 0.527434
C34   C     C_R   0.119896 0.612327 0.498344 0.527444
C35   C     C_R   0.939819 0.385123 0.501474 -0.012122
C36   C     C_R   0.060180 0.614756 0.498488 -0.012120
C37   C     C_R   0.969955 0.499980 0.500233 -0.019501
C38   C     C_R   0.030043 0.499899 0.499745 -0.019505
C39   C     C_R   0.940148 0.614918 0.499477 -0.012425
C40   C     C_R   0.059850 0.384961 0.500510 -0.012418
C41   C     C_R   0.969970 0.271032 0.502116 -0.166340
C42   C     C_R   0.030029 0.728848 0.497852 -0.166336
C43   C     C_R   0.029369 0.270951 0.501625 -0.166758
C44   C     C_R   0.970629 0.728927 0.498362 -0.166759
Cu1   Cu    Cu3+1 0.500010 0.499990 0.643150 0.942590
Cu2   Cu    Cu3+1 0.499990 0.500010 0.356850 0.942592
H1    H     H_    0.947803 0.181470 0.502979 0.187542
H2    H     H_    0.052196 0.818410 0.496978 0.187538
H3    H     H_    0.423954 0.623811 0.896657 0.118586
H4    H     H_    0.576048 0.376185 0.103336 0.118656
H5    H     H_    0.509877 0.708679 0.098797 0.135311
H6    H     H_    0.490139 0.291311 0.901202 0.135365
H7    H     H_    0.051277 0.181331 0.502150 0.187305
H8    H     H_    0.948722 0.818547 0.497843 0.187306
H9    H     H_    0.214870 0.572884 0.287143 0.133630
H10   H     H_    0.785127 0.426970 0.712782 0.133602
H11   H     H_    0.319438 0.574031 0.288027 0.169621
H12   H     H_    0.680557 0.425901 0.711919 0.169570
H13   H     H_    0.322293 0.426459 0.712430 0.160624
H14   H     H_    0.677705 0.573509 0.287538 0.160633
H15   H     H_    0.217844 0.427409 0.711718 0.138233
H16   H     H_    0.782154 0.572517 0.288240 0.138240
H17   H     H_    0.595729 0.916134 0.459200 0.136345
H18   H     H_    0.404248 0.083880 0.540809 0.136305
H19   H     H_    0.466478 0.922158 0.728339 0.122476
H20   H     H_    0.533488 0.077844 0.271653 0.122502
N1    N     N_R   0.851770 0.500135 0.500895 -0.469029
N2    N     N_R   0.148228 0.499742 0.499052 -0.469026
N3    N     N_3   0.500040 0.499970 0.858290 -0.171264
N4    N     N_3   0.499960 0.500030 0.141710 -0.171250
O1    O     O_R   0.500030 0.316850 0.620870 -0.575177
O2    O     O_R   0.499970 0.683150 0.379130 -0.575172
O3    O     O_R   0.500000 0.316860 0.379090 -0.598356
O4    O     O_R   0.500000 0.683140 0.620910 -0.598312
O5    O     O_R   0.417890 0.499960 0.620920 -0.588109
O6    O     O_R   0.582110 0.500040 0.379080 -0.588101
O7    O     O_R   0.417870 0.499970 0.379140 -0.564714
O8    O     O_R   0.582130 0.500030 0.620860 -0.564705
O9    O     O_2   0.851190 0.721862 0.501004 -0.542506
O10   O     O_2   0.148808 0.278020 0.499017 -0.542528
O11   O     O_2   0.850526 0.278408 0.501250 -0.543648
O12   O     O_2   0.149473 0.721466 0.498647 -0.543656
C45   C     C_R   0.600661 0.609451 0.908808 0.127791
C46   C     C_R   0.598846 0.726032 0.839387 -0.116639
C47   C     C_R   0.649309 0.786515 0.802189 -0.143656
C48   C     C_R   0.701920 0.734003 0.839309 -0.072246
C49   C     C_R   0.704160 0.620709 0.913615 -0.147149
C50   C     C_R   0.653817 0.558049 0.947384 -0.194363
H21   H     H_    0.558584 0.771448 0.816825 0.136953
H22   H     H_    0.647752 0.874856 0.746127 0.152212
H23   H     H_    0.740919 0.781507 0.811369 0.150451
H24   H     H_    0.744929 0.580414 0.943341 0.132209
H25   H     H_    0.656681 0.469820 0.003761 0.117295
C51   C     C_R   0.399330 0.390543 0.091162 0.127653
C52   C     C_R   0.346176 0.441847 0.052386 -0.194383
C53   C     C_R   0.295834 0.379208 0.086197 -0.147224
C54   C     C_R   0.298070 0.266048 0.160762 -0.072208
C55   C     C_R   0.350679 0.213609 0.198043 -0.143612
C56   C     C_R   0.401143 0.274043 0.160758 -0.116514
H26   H     H_    0.343310 0.529962 0.995779 0.117273
H27   H     H_    0.255066 0.419407 0.056278 0.132211
H28   H     H_    0.259069 0.218582 0.188760 0.150459
H29   H     H_    0.352238 0.125353 0.254285 0.152032
H30   H     H_    0.441401 0.228647 0.183391 0.137052
C57   C     C_R   0.576673 0.086560 0.714278 0.109708
C58   C     C_R   0.563762 0.077743 0.858341 -0.163769
C59   C     C_R   0.603333 0.117488 0.961604 -0.145082
C60   C     C_R   0.656217 0.164665 0.922051 -0.118208
C61   C     C_R   0.669484 0.172846 0.779043 -0.141034
C62   C     C_R   0.629538 0.136076 0.675235 -0.161796
H31   H     H_    0.523210 0.040737 0.891184 0.103822
H32   H     H_    0.593180 0.111066 0.072348 0.116434
H33   H     H_    0.686979 0.194445 0.002187 0.129117
H34   H     H_    0.710826 0.207460 0.748659 0.148111
H35   H     H_    0.640273 0.143534 0.564705 0.127845
C63   C     C_R   0.423308 0.913404 0.285736 0.109722
C64   C     C_R   0.436281 0.921912 0.141690 -0.163456
C65   C     C_R   0.396748 0.881986 0.038426 -0.145072
C66   C     C_R   0.343834 0.834959 0.077955 -0.118083
C67   C     C_R   0.330497 0.827126 0.220946 -0.140864
C68   C     C_R   0.370407 0.864066 0.324763 -0.162014
H36   H     H_    0.476866 0.958763 0.108869 0.103743
H37   H     H_    0.406960 0.888116 0.927698 0.116300
H38   H     H_    0.313108 0.805014 0.997815 0.129018
H39   H     H_    0.289133 0.792623 0.251310 0.148127
H40   H     H_    0.359622 0.856853 0.435281 0.127914

loop_
_geom_bond_atom_site_label_1
_geom_bond_atom_site_label_2
_ccdc_geom_bond_type
C57   C62   A    
C64   C65   A    
Cu1   O1    S    
C18   C21   S    
C59   H32   S    
C6    H12   S    
C36   C42   A    
C52   C53   A    
C49   C50   A    
Cu2   O6    S    
C54   C55   A    
C66   H38   S    
C60   C61   A    
C31   N1    A    
C1    O1    A    
C28   C29   S    
C35   C37   A    
C29   C45   S    
C48   H23   S    
C47   C48   A    
C58   C59   A    
C55   H29   S    
C63   C64   A    
C18   C20   S    
C15   C17   S    
C65   C66   A    
C22   H20   S    
C8    C24   S    
C3    H9    S    
C28   H4    S    
C43   H7    S    
C40   C43   A    
C14   N1    S    
Cu1   O8    S    
Cu2   O2    S    
C54   H28   S    
C3    C13   A    
C32   N2    A    
C45   C50   A    
C53   H27   S    
C4    H10   S    
C27   C30   S    
C41   C43   A    
C42   C44   A    
C2    O2    A    
C16   C63   S    
C30   N4    S    
C29   N3    S    
C58   H31   S    
C25   C29   S    
C15   C20   S    
C37   C39   A    
C63   C68   A    
Cu1   N3    S    
C46   C47   A    
C52   H26   S    
C4    C6    A    
C34   N2    A    
C5    C7    A    
C67   H39   S    
C24   O6    A    
C6    C8    A    
C3    C5    A    
Cu1   Cu2   S    
Cu1   O4    S    
C9    H13   S    
C60   H33   S    
C10   H14   S    
C64   H36   S    
C25   H5    S    
C37   C38   A    
C26   H6    S    
C32   O10   S    
C12   H16   S    
C45   C46   A    
C59   C60   A    
C53   C54   A    
C41   H1    S    
C16   C18   S    
C42   H2    S    
C23   O7    A    
C66   C67   A    
C9    C11   A    
C27   N3    S    
C10   C12   A    
C61   H34   S    
C24   O8    A    
C12   C14   A    
C26   C30   S    
C46   H21   S    
C17   C19   S    
C23   O5    A    
C67   C68   A    
C33   N1    A    
C7    C9    A    
C50   H25   S    
C1    C20   S    
C16   C22   S    
C21   H19   S    
C2    C19   S    
C48   C49   A    
C28   N4    S    
C20   C22   S    
C11   H15   S    
C2    O4    A    
Cu2   O7    S    
C47   H22   S    
C31   O9    S    
C39   C44   A    
C25   C27   S    
C57   C58   A    
C26   C28   S    
C17   C22   S    
C5    H11   S    
Cu1   O5    S    
C1    O3    A    
C15   C57   S    
C36   C38   A    
C68   H40   S    
C30   C51   S    
C61   C62   A    
C17   H17   S    
C38   C40   A    
C11   C13   A    
C18   H18   S    
C51   C56   A    
C16   C19   S    
C7    C23   S    
C33   C35   A    
C31   C39   A    
C56   H30   S    
C34   C36   A    
C65   H37   S    
C32   C40   A    
C4    C14   A    
C51   C52   A    
C35   C41   A    
Cu2   N4    S    
C44   H8    S    
C15   C21   S    
C8    C10   A    
C55   C56   A    
C26   N3    S    
C25   N4    S    
C34   O12   S    
C49   H24   S    
C33   O11   S    
C62   H35   S    
Cu2   O3    S    
C27   H3    S    
C19   C21   S    
C13   N2    S    
