data_mof_unit_11666.cif
_audit_creation_date              2013-03-05T15:59:22-0500
_audit_creation_method            fapswitch 2.2
_symmetry_space_group_name_H-M    P1
_symmetry_Int_Tables_number       1
_space_group_crystal_system       triclinic
_cell_length_a                    10.492857
_cell_length_b                    12.605836
_cell_length_c                    13.095955
_cell_angle_alpha                 81.776111
_cell_angle_beta                  90.899736
_cell_angle_gamma                 101.668251
_cell_volume                      1678.82071043

loop_
_atom_site_label
_atom_site_type_symbol
_atom_site_description
_atom_site_fract_x
_atom_site_fract_y
_atom_site_fract_z
_atom_type_partial_charge
O1    O     O_R   0.467970 0.366730 0.627150 -0.568059
O2    O     O_R   0.510820 0.544830 0.662520 -0.624641
C1    C     C_R   0.481493 0.438710 0.691321 0.864942
O3    O     O_R   0.664630 0.410960 0.482340 -0.585424
O4    O     O_R   0.707470 0.589060 0.517710 -0.576939
C2    C     C_R   0.741956 0.500181 0.500786 0.908150
Zn1   Zn    Zn3+2 0.471390 0.381080 0.476380 0.994900
Zn2   Zn    Zn3+2 0.528610 0.618920 0.523620 0.942955
O5    O     O_R   0.489180 0.455170 0.337480 -0.617252
O6    O     O_R   0.532030 0.633270 0.372850 -0.636171
O7    O     O_R   0.292530 0.410940 0.482290 -0.627140
O8    O     O_R   0.335370 0.589040 0.517660 -0.652961
C3    C     C_R   0.512851 0.561325 0.308742 0.833734
C4    C     C_R   0.258317 0.500162 0.499169 0.891491
C5    C     C_3   0.953414 0.485509 0.406848 -0.076327
C6    C     C_3   0.017853 0.402858 0.477215 -0.192438
H1    H     H_    0.035815 0.323484 0.459803 0.167962
C7    C     C_3   0.123666 0.500664 0.498816 -0.104852
C8    C     C_3   0.061819 0.582868 0.426155 -0.320583
C9    C     C_3   0.985466 0.597237 0.521064 0.523205
C10   C     C_3   0.050479 0.518187 0.594240 -0.373313
C11   C     C_3   0.943193 0.422147 0.570855 0.465977
C12   C     C_3   0.877669 0.501651 0.500314 -0.181199
H2    H     H_    0.115985 0.647578 0.367048 0.134415
H3    H     H_    0.096007 0.533756 0.669177 0.135103
C13   C     C_R   0.398677 0.698808 0.062887 -0.192387
H4    H     H_    0.425484 0.742209 0.215323 0.150206
H5    H     H_    0.307104 0.694114 0.871941 0.152612
H6    H     H_    0.352384 0.766955 0.036055 0.144532
C14   C     C_R   0.501302 0.597761 0.199569 -0.045540
C15   C     C_R   0.512641 0.303280 0.840006 -0.258587
C16   C     C_R   0.526961 0.274677 0.945743 0.035849
C17   C     C_R   0.508661 0.347924 0.012311 -0.167441
C18   C     C_R   0.471061 0.447930 0.974073 0.040676
C19   C     C_R   0.435842 0.466376 0.869983 0.082488
C20   C     C_R   0.466926 0.530216 0.035993 0.095409
C21   C     C_R   0.407612 0.619873 0.999223 0.172333
C22   C     C_R   0.356139 0.628084 0.900408 -0.238843
C23   C     C_R   0.370173 0.552380 0.836314 -0.197090
C24   C     C_R   0.522403 0.526516 0.133249 -0.252541
C25   C     C_R   0.442969 0.686432 0.163994 -0.186999
C26   C     C_R   0.469934 0.399617 0.801697 -0.115636
H7    H     H_    0.577805 0.465259 0.161715 0.152278
H8    H     H_    0.539153 0.252424 0.787265 0.202273
H9    H     H_    0.520902 0.323920 0.093713 0.178243
H10   H     H_    0.328050 0.561308 0.760392 0.158854
C27   C     C_R   0.296528 0.086245 0.361402 -0.284340
H11   H     H_    0.275868 0.253580 0.349682 0.172251
H12   H     H_    0.272748 0.881060 0.322819 0.147072
H13   H     H_    0.219791 0.065030 0.307141 0.167305
N1    N     N_R   0.432930 0.222190 0.444670 -0.147476
C28   C     C_R   0.646233 0.796554 0.635410 0.054854
C29   C     C_R   0.650963 0.890479 0.680509 -0.402823
C30   C     C_R   0.576732 0.966581 0.639717 0.055665
C31   C     C_R   0.513082 0.954475 0.544003 0.005114
C32   C     C_R   0.499316 0.852339 0.508393 0.193576
C33   C     C_R   0.458398 0.036945 0.484559 -0.082185
C34   C     C_R   0.363382 0.008145 0.410223 0.119206
C35   C     C_R   0.341413 0.903422 0.382616 -0.274599
C36   C     C_R   0.412863 0.828101 0.428122 -0.205738
C37   C     C_R   0.504145 0.149167 0.488188 0.622646
C38   C     C_R   0.329549 0.192893 0.383735 -0.090229
N2    N     N_R   0.566370 0.776980 0.554790 -0.132009
H14   H     H_    0.696928 0.734242 0.670618 0.173725
H15   H     H_    0.703973 0.899257 0.751497 0.155792
H16   H     H_    0.396764 0.750881 0.400497 0.204616
C39   C     C_2   0.566749 0.170391 0.985151 0.404039
H17   H     H_    0.581409 0.115193 0.932145 0.052553
O9    O     O_2   0.583304 0.144563 0.077147 -0.570354
O10   O     O_3   0.627958 0.186676 0.522843 -0.594682
C40   C     C_3   0.720085 0.188579 0.443626 0.163441
H18   H     H_    0.771558 0.273964 0.420953 0.213139
H19   H     H_    0.678032 0.159130 0.371269 0.125605
C41   C     C_3   0.821341 0.121883 0.482807 -0.869596
H20   H     H_    0.901771 0.136584 0.425166 0.225845
H21   H     H_    0.862198 0.146052 0.556491 0.278947
H22   H     H_    0.777721 0.033284 0.494037 0.249467
C42   C     C_2   0.897092 0.471748 0.302650 0.398816
H23   H     H_    0.844915 0.531627 0.263835 0.048889
O11   O     O_2   0.909954 0.393910 0.260952 -0.574315
C43   C     C_2   0.550985 0.044187 0.707928 0.476950
H24   H     H_    0.619434 0.067032 0.767525 0.026941
O12   O     O_2   0.449197 0.077378 0.702952 -0.605565
O13   O     O_3   0.956554 0.694821 0.546894 -0.597024
C44   C     C_3   0.070183 0.777172 0.538340 0.114737
H25   H     H_    0.097868 0.803395 0.455743 0.147732
H26   H     H_    0.152431 0.748824 0.581538 0.155138
C45   C     C_3   0.043272 0.875911 0.582396 -0.804305
H27   H     H_    0.014598 0.852555 0.665136 0.252172
H28   H     H_    0.132218 0.941634 0.575438 0.229250
H29   H     H_    0.963383 0.907548 0.539393 0.255891
O14   O     O_3   0.872183 0.338721 0.643863 -0.583658
C46   C     C_3   0.959666 0.295208 0.712714 0.111507
H30   H     H_    0.007049 0.357115 0.761387 0.147330
H31   H     H_    0.035691 0.267588 0.670581 0.135869
C47   C     C_3   0.885613 0.197312 0.784339 -0.810028
H32   H     H_    0.845866 0.129806 0.739791 0.237445
H33   H     H_    0.952298 0.167882 0.843488 0.216750
H34   H     H_    0.804710 0.220819 0.823737 0.252426

loop_
_geom_bond_atom_site_label_1
_geom_bond_atom_site_label_2
_geom_bond_distance
_ccdc_geom_bond_type
C37   O10   1.382658 S    
C31   C32   1.410834 A    
C1    C26   1.457574 S    
C46   H30   1.112622 S    
C15   C26   1.402163 A    
C7    C10   1.542061 S    
C17   H9    1.078716 S    
C4    C7    1.414093 S    
C8    C9    1.540752 S    
N1    C37   1.358416 A    
C27   C38   1.390638 A    
C43   H24   1.082105 S    
C29   C30   1.398189 A    
Zn1   O7    1.992114 S    
C41   H21   1.107282 S    
C20   C21   1.419862 A    
C18   C19   1.406101 A    
C22   C23   1.388106 A    
O7    C4    1.296024 A    
C42   O11   1.219984 D    
C5    C42   1.497447 S    
C5    C6    1.543570 S    
C47   H34   1.110817 S    
C7    C8    1.539793 S    
C19   C26   1.408195 A    
O5    C3    1.310893 A    
C5    C8    1.542437 S    
C24   H7    1.079632 S    
C6    H1    1.109761 S    
C41   H22   1.107631 S    
C47   H33   1.110416 S    
C45   H29   1.111326 S    
C14   C25   1.399974 A    
O10   C40   1.423470 S    
C29   H15   1.083601 S    
C23   H10   1.082080 S    
C5    C12   1.529230 S    
C36   H16   1.067369 S    
C35   C36   1.389525 A    
C46   H31   1.114979 S    
C10   C11   1.539715 S    
N1    C38   1.358297 A    
O3    Zn1   1.988417 S    
C43   O12   1.220982 D    
C27   H13   1.083556 S    
C44   H26   1.115401 S    
C41   H20   1.110461 S    
C39   H17   1.083754 S    
C3    C14   1.448778 S    
C20   C24   1.390667 A    
O13   C44   1.407852 S    
O3    C2    1.297722 A    
C15   H8    1.081782 S    
C40   H19   1.118786 S    
C42   H23   1.084682 S    
C34   C35   1.391910 A    
C44   H25   1.110152 S    
C28   N2    1.356806 A    
C32   C36   1.403980 A    
C39   O9    1.221366 D    
C19   C23   1.414379 A    
C21   C22   1.392627 A    
O4    Zn2   1.992111 S    
H4    C25   1.082199 S    
H11   C38   1.081758 S    
C15   C16   1.393781 A    
C9    C12   1.528996 S    
H5    C22   1.083958 S    
Zn2   O8    1.988419 S    
C47   H32   1.108729 S    
C17   C18   1.417763 A    
C32   N2    1.363255 A    
C14   C24   1.385481 A    
C45   H27   1.111058 S    
C16   C39   1.479858 S    
C6    C7    1.539180 S    
C45   H28   1.110882 S    
C46   C47   1.520001 S    
C9    O13   1.411688 S    
C28   H14   1.081774 S    
C28   C29   1.388713 A    
C44   C45   1.521377 S    
Zn1   O5    1.915755 S    
C10   H3    1.110085 S    
C30   C31   1.423972 A    
C6    C11   1.539211 S    
O1    Zn1   1.957035 S    
O2    Zn2   1.915754 S    
O8    C4    1.293302 A    
O6    C3    1.306363 A    
C40   C41   1.523081 S    
C13   C21   1.404112 A    
C33   C37   1.406327 A    
H12   C35   1.084014 S    
C16   C17   1.398803 A    
C31   C33   1.418377 A    
O2    C1    1.311207 A    
Zn1   N1    2.062237 S    
C40   H18   1.103109 S    
C27   C34   1.398325 A    
C33   C34   1.413405 A    
O4    C2    1.293406 A    
C2    C12   1.420491 S    
O14   C46   1.411621 S    
C8    H2    1.110520 S    
C18   C20   1.412563 A    
Zn2   N2    2.049844 S    
C9    C10   1.535559 S    
C13   H6    1.083729 S    
Zn2   O6    1.957037 S    
C11   O14   1.411756 S    
C11   C12   1.524608 S    
O1    C1    1.308439 A    
C30   C43   1.480713 S    
C13   C25   1.394436 A    
