data_mof_unit_64375.cif
_audit_creation_date              2012-12-10T16:35:07-0500
_audit_creation_method            fapswitch 2.2
_symmetry_space_group_name_H-M    P1
_symmetry_Int_Tables_number       1
_space_group_crystal_system       triclinic
_cell_length_a                    10.83813
_cell_length_b                    10.864121
_cell_length_c                    10.849114
_cell_angle_alpha                 80.323273
_cell_angle_beta                  98.338121
_cell_angle_gamma                 90.497475
_cell_volume                      1245.79983679

loop_
_atom_site_label
_atom_site_type_symbol
_atom_type_description
_atom_site_fract_x
_atom_site_fract_y
_atom_site_fract_z
_atom_type_partial_charge
C1    C     C_R   0.834916 0.471573 0.528683 0.495981
C2    C     C_2   0.479153 0.025359 0.550280 -0.004775
C3    C     C_2   0.526838 0.969245 0.465936 -0.093891
C4    C     C_2   0.029122 0.538049 0.461879 -0.117438
C5    C     C_3   0.429480 0.945580 0.663112 -0.275389
C6    C     C_3   0.384279 0.013979 0.760775 -0.407811
C7    C     C_2   0.968137 0.460817 0.540008 -0.101932
C8    C     C_2   0.467362 0.539582 0.023483 -0.120145
C9    C     C_2   0.531563 0.460680 0.974050 -0.103245
C10   C     C_R   0.163779 0.527477 0.472574 0.510532
C11   C     C_R   0.523441 0.472004 0.839208 0.494225
C12   C     C_R   0.476171 0.527884 0.160013 0.508916
C13   C     C_R   0.525001 0.835395 0.473676 0.489446
C14   C     C_R   0.479013 0.162943 0.528110 0.523601
H1    H     H_    0.979214 0.609226 0.389802 0.107216
H2    H     H_    0.590246 0.386272 0.032536 0.123714
H3    H     H_    0.015732 0.389068 0.612877 0.122291
H4    H     H_    0.408471 0.612765 0.962886 0.101155
H5    H     H_    0.458386 0.074811 0.798274 0.171788
H6    H     H_    0.297906 0.069026 0.719498 0.183754
H7    H     H_    0.361437 0.944323 0.841259 0.127241
H8    H     H_    0.351376 0.888317 0.626687 0.143892
H9    H     H_    0.505155 0.880463 0.715350 0.165903
H10   H     H_    0.557144 0.022746 0.381980 0.113216
O1    O     O_3   0.500000 0.500000 0.500000 -0.439024
O2    O     O_R   0.597340 0.765700 0.560080 -0.539691
O3    O     O_R   0.548200 0.222430 0.451790 -0.548070
O4    O     O_R   0.441590 0.789440 0.401000 -0.538234
O5    O     O_R   0.412860 0.222430 0.587130 -0.545786
O6    O     O_R   0.441590 0.410520 0.779910 -0.540699
O7    O     O_R   0.548210 0.443940 0.230290 -0.540157
O8    O     O_R   0.787780 0.544200 0.591150 -0.531933
O9    O     O_R   0.222430 0.601350 0.398650 -0.534142
O10   O     O_R   0.767360 0.410530 0.454140 -0.533279
O11   O     O_R   0.222430 0.443930 0.556060 -0.542161
O12   O     O_R   0.597340 0.544190 0.781580 -0.533990
O13   O     O_R   0.412870 0.601350 0.208220 -0.536308
Zn1   Zn    Zn3+2 0.396020 0.396030 0.603970 0.926363
Zn2   Zn    Zn3+2 0.618560 0.587010 0.606350 0.936641
Zn3   Zn    Zn3+2 0.396030 0.620930 0.379070 0.943895
Zn4   Zn    Zn3+2 0.589390 0.396030 0.410610 0.938329

loop_
_geom_bond_atom_site_label_1
_geom_bond_atom_site_label_2
_ccdc_geom_bond_type
O5    Zn1   S    
C13   O4    A    
C10   O11   A    
C14   O3    A    
O13   Zn3   S    
C6    H6    S    
O2    Zn2   S    
O3    Zn4   S    
C3    C13   S    
C8    C12   S    
C4    H1    S    
C2    C3    D    
C12   O7    A    
O1    Zn2   S    
C6    H5    S    
C9    C11   S    
C3    H10   S    
O10   Zn4   S    
C4    C7    D    
C2    C14   S    
C11   O12   A    
C9    H2    S    
C1    O10   A    
C10   O9    A    
O12   Zn2   S    
O1    Zn3   S    
C5    C6    S    
O1    Zn1   S    
C13   O2    A    
O9    Zn3   S    
O4    Zn3   S    
C14   O5    A    
C4    C10   S    
C2    C5    S    
O11   Zn1   S    
O6    Zn1   S    
O8    Zn2   S    
O1    Zn4   S    
C12   O13   A    
O7    Zn4   S    
C1    C7    S    
C6    H7    S    
C1    O8    A    
C8    H4    S    
C5    H8    S    
C11   O6    A    
C8    C9    D    
C7    H3    S    
C5    H9    S    
