data_mof_unit_42082.cif
_audit_creation_date              2012-12-11T17:34:21-0500
_audit_creation_method            fapswitch 2.2
_symmetry_space_group_name_H-M    P1
_symmetry_Int_Tables_number       1
_space_group_crystal_system       triclinic
_cell_length_a                    23.697075
_cell_length_b                    7.221609
_cell_length_c                    20.873435
_cell_angle_alpha                 89.999837
_cell_angle_beta                  104.886301
_cell_angle_gamma                 90.000086
_cell_volume                      3452.20378548

loop_
_atom_site_label
_atom_site_type_symbol
_atom_type_description
_atom_site_fract_x
_atom_site_fract_y
_atom_site_fract_z
_atom_type_partial_charge
O1    O     O_R   0.449110 0.494310 0.552140 -0.538806
O2    O     O_R   0.550890 0.994310 0.447860 -0.538805
O3    O     O_R   0.440010 0.824420 0.415850 -0.536860
O4    O     O_R   0.559990 0.324420 0.584150 -0.536860
C1    C     C_R   0.425386 0.656038 0.391605 0.689101
C2    C     C_R   0.574614 0.156038 0.608395 0.689100
O5    O     O_R   0.442260 0.824040 0.549660 -0.540458
O6    O     O_R   0.557740 0.324040 0.450340 -0.540458
O7    O     O_R   0.553160 0.993960 0.582620 -0.531097
O8    O     O_R   0.446840 0.493960 0.417380 -0.531096
C3    C     C_R   0.428567 0.655488 0.567554 0.682080
C4    C     C_R   0.571433 0.155488 0.432446 0.682081
O9    O     O_3   0.536380 0.660670 0.510660 -0.374993
O10   O     O_3   0.463620 0.160670 0.489340 -0.374993
V1    V     V_3+5 0.493250 0.935680 0.498020 1.416701
V2    V     V_3+5 0.506750 0.435680 0.501980 1.416701
C5    C     C_R   0.812831 0.914412 0.157352 0.005053
C6    C     C_R   0.187167 0.414411 0.842646 0.005053
C7    C     C_R   0.853026 0.905510 0.117790 -0.153084
C8    C     C_R   0.146973 0.405510 0.882208 -0.153082
H1    H     H_    0.855773 0.780441 0.090101 0.171222
H2    H     H_    0.144225 0.280440 0.909897 0.171220
C9    C     C_R   0.888962 0.057282 0.112768 -0.064939
C10   C     C_R   0.111037 0.557283 0.887231 -0.064932
C11   C     C_R   0.884427 0.219030 0.148641 -0.096595
C12   C     C_R   0.115573 0.719032 0.851358 -0.096595
H3    H     H_    0.911474 0.338395 0.146230 0.120139
H4    H     H_    0.088527 0.838398 0.853770 0.120138
C13   C     C_R   0.845292 0.228814 0.188596 -0.076103
C14   C     C_R   0.154708 0.728815 0.811403 -0.076106
H5    H     H_    0.843109 0.354994 0.215950 0.128932
H6    H     H_    0.156892 0.854996 0.784049 0.128930
C15   C     C_R   0.809181 0.078441 0.193276 0.036930
C16   C     C_R   0.190818 0.578441 0.806723 0.036931
C17   C     C_1   0.768695 0.096419 0.234855 -0.057640
C18   C     C_1   0.231304 0.596418 0.765143 -0.057640
C19   C     C_1   0.734852 0.109929 0.269435 -0.046280
C20   C     C_1   0.265146 0.609928 0.730564 -0.046280
C21   C     C_R   0.670740 0.961479 0.330793 -0.128821
C22   C     C_R   0.329260 0.461477 0.669207 -0.128821
H7    H     H_    0.682943 0.826817 0.315756 0.105854
H8    H     H_    0.317056 0.326816 0.684243 0.105854
C23   C     C_R   0.631205 0.972272 0.370367 -0.153546
C24   C     C_R   0.368795 0.472271 0.629633 -0.153546
H9    H     H_    0.613943 0.844473 0.384753 0.125398
H10   H     H_    0.386057 0.344472 0.615247 0.125398
C25   C     C_R   0.614181 0.145144 0.390817 -0.053405
C26   C     C_R   0.385818 0.645143 0.609183 -0.053404
C27   C     C_R   0.638122 0.306783 0.370408 -0.161039
C28   C     C_R   0.361877 0.806782 0.629592 -0.161039
H11   H     H_    0.626204 0.442314 0.384856 0.123016
H12   H     H_    0.373795 0.942314 0.615143 0.123016
C29   C     C_R   0.677723 0.295478 0.330730 -0.120664
C30   C     C_R   0.322276 0.795477 0.669269 -0.120665
H13   H     H_    0.695406 0.421672 0.315591 0.108862
H14   H     H_    0.304593 0.921670 0.684408 0.108862
C31   C     C_R   0.694188 0.122755 0.310696 0.129825
C32   C     C_R   0.305811 0.622754 0.689303 0.129825
C33   C     C_R   0.637511 0.247706 0.789529 -0.016492
C34   C     C_R   0.362490 0.747685 0.210470 -0.016492
H15   H     H_    0.553430 0.271001 0.719360 0.148817
H16   H     H_    0.446571 0.770984 0.280639 0.148817
H17   H     H_    0.719145 0.224812 0.904728 0.154004
H18   H     H_    0.280857 0.724776 0.095271 0.154004
C35   C     C_R   0.616514 0.154412 0.674079 -0.074191
C36   C     C_R   0.383486 0.654411 0.325921 -0.074192
C37   C     C_R   0.898550 0.008125 0.772185 -0.144101
C38   C     C_R   0.101449 0.508140 0.227816 -0.144103
C39   C     C_R   0.860773 0.004557 0.709370 -0.124091
C40   C     C_R   0.139226 0.504579 0.290630 -0.124092
C41   C     C_R   0.801864 0.044023 0.700110 -0.148680
C42   C     C_R   0.198135 0.544039 0.299890 -0.148681
C43   C     C_R   0.778324 0.087427 0.754091 0.089820
C44   C     C_R   0.221676 0.587428 0.245909 0.089821
C45   C     C_R   0.817403 0.092749 0.819608 -0.011012
C46   C     C_R   0.182597 0.592743 0.180391 -0.011009
C47   C     C_R   0.717148 0.127975 0.744272 0.081051
C48   C     C_R   0.282852 0.627972 0.255728 0.081053
C49   C     C_R   0.696787 0.192700 0.798725 0.013831
C50   C     C_R   0.303214 0.692683 0.201274 0.013828
C51   C     C_R   0.735158 0.193551 0.861906 -0.187654
C52   C     C_R   0.264843 0.693526 0.138093 -0.187653
C53   C     C_R   0.793315 0.138847 0.873294 -0.041939
C54   C     C_R   0.206686 0.638829 0.126705 -0.041937
C55   C     C_R   0.675265 0.106112 0.682105 -0.211611
C56   C     C_R   0.324735 0.606117 0.317895 -0.211611
C57   C     C_R   0.598437 0.226592 0.727262 -0.130201
C58   C     C_R   0.401564 0.726579 0.272737 -0.130201
C59   C     C_R   0.878658 0.052972 0.827774 -0.083345
C60   C     C_R   0.121342 0.552973 0.172226 -0.083345
H19   H     H_    0.686657 0.052874 0.638868 0.098493
H20   H     H_    0.313343 0.552887 0.361132 0.098492
H21   H     H_    0.944245 0.976361 0.777467 0.096349
H22   H     H_    0.055754 0.476383 0.222533 0.096349
H23   H     H_    0.776083 0.043082 0.649476 0.104027
H24   H     H_    0.223916 0.543104 0.350524 0.104027
H25   H     H_    0.877465 0.971638 0.667057 0.115320
H26   H     H_    0.122533 0.471672 0.332944 0.115321
O11   O     O_R   0.053190 0.709680 0.082610 -0.528631
O12   O     O_R   0.946810 0.209680 0.917390 -0.528633
O13   O     O_R   0.057740 0.380240 0.950340 -0.551565
O14   O     O_R   0.942260 0.880240 0.049660 -0.551564
C61   C     C_R   0.069510 0.548280 0.930251 0.690994
C62   C     C_R   0.930490 0.048280 0.069749 0.690992
O15   O     O_R   0.060000 0.379940 0.084150 -0.542098
O16   O     O_R   0.940000 0.879940 0.915850 -0.542096
O17   O     O_R   0.949110 0.210100 0.052140 -0.520730
O18   O     O_R   0.050890 0.710100 0.947860 -0.520731
C63   C     C_R   0.075838 0.548411 0.107970 0.650418
C64   C     C_R   0.924162 0.048412 0.892030 0.650417
O19   O     O_3   0.963630 0.543720 0.989330 -0.366764
O20   O     O_3   0.036370 0.043720 0.010670 -0.366766
V3    V     V_3+5 0.006750 0.268680 0.001980 1.464565
V4    V     V_3+5 0.993250 0.768680 0.998020 1.464567
C65   C     C_2   0.774867 0.752555 0.160360 0.365522
H27   H     H_    0.745513 0.754110 0.192576 0.056267
O21   O     O_2   0.775643 0.615120 0.126502 -0.516084
C66   C     C_2   0.225130 0.252551 0.839637 0.365522
H28   H     H_    0.254481 0.254101 0.807417 0.056264
O22   O     O_2   0.224356 0.115122 0.873498 -0.516082
C67   C     C_2   0.615364 0.336062 0.842831 0.399387
H29   H     H_    0.644635 0.405895 0.884193 0.063868
O23   O     O_2   0.563296 0.335495 0.840346 -0.506085
C68   C     C_2   0.384638 0.836028 0.157167 0.399389
H30   H     H_    0.355367 0.905849 0.115803 0.063870
O24   O     O_2   0.436706 0.835463 0.159654 -0.506086
C69   C     C_2   0.824918 0.119399 0.943295 0.399789
H31   H     H_    0.848529 0.993024 0.959912 0.018590
O25   O     O_2   0.822059 0.240449 0.983212 -0.514621
C70   C     C_2   0.175083 0.619378 0.056705 0.399777
H32   H     H_    0.151471 0.493005 0.040088 0.018598
O26   O     O_2   0.177943 0.740425 0.016786 -0.514622

loop_
_geom_bond_atom_site_label_1
_geom_bond_atom_site_label_2
_ccdc_geom_bond_type
C33   C67   S    
O12   C64   A    
O13   V3    S    
C29   H13   S    
C7    C9    A    
O1    C3    A    
O2    C4    A    
C46   C54   A    
C2    O7    A    
C55   H19   S    
C25   C27   A    
O5    C3    A    
C28   C30   A    
C44   C46   A    
O16   V4    S    
O15   V3    S    
C7    H1    S    
C10   C12   A    
C36   C58   A    
C48   C50   A    
C41   H23   S    
C65   H27   S    
C21   C31   A    
C13   C15   A    
C37   C59   A    
C34   C68   S    
O18   V4    S    
C39   C41   A    
C66   H28   S    
O17   V3    S    
H15   C57   S    
C5    C7    A    
C20   C32   S    
C34   C58   A    
C2    C35   S    
C8    C10   A    
C65   O21   D    
C28   H12   S    
C39   H25   S    
C61   O18   A    
C6    C66   S    
C6    C8    A    
C48   C56   A    
C26   C28   A    
C47   C55   A    
O6    V2    S    
C43   C45   A    
C3    C26   S    
C5    C15   A    
O11   V4    S    
C4    C25   S    
O20   V3    S    
C51   C53   A    
C24   H10   S    
C35   C57   A    
C66   O22   D    
C47   C49   A    
C11   C13   A    
C30   H14   S    
C22   C32   A    
C14   C16   A    
C42   C44   A    
C33   C49   A    
C49   C51   A    
C29   C31   A    
C21   C23   A    
O5    V1    S    
C27   H11   S    
H16   C58   S    
C59   C64   S    
C38   H22   S    
C37   C39   A    
O4    V2    S    
C70   O26   D    
C69   O25   D    
O14   V4    S    
C6    C16   A    
C38   C60   A    
C9    C62   S    
O6    C4    A    
O1    V2    S    
O14   C62   A    
O2    V1    S    
C23   H9    S    
H18   C52   S    
C67   H29   S    
O4    C2    A    
C54   C70   S    
C8    H2    S    
C12   C14   A    
C52   C54   A    
C69   H31   S    
O3    V1    S    
C5    C65   S    
C68   O24   D    
C30   C32   A    
O15   C63   A    
C34   C50   A    
H17   C51   S    
C17   C19   T    
O12   V3    S    
C53   C69   S    
C1    C36   S    
O3    C1    A    
C36   C56   A    
C40   C42   A    
C35   C55   A    
C11   H3    S    
C12   H4    S    
O13   C61   A    
C10   C61   S    
C18   C20   T    
C70   H32   S    
O7    V1    S    
C1    O8    A    
C13   H5    S    
C56   H20   S    
C14   H6    S    
C45   C53   A    
C27   C29   A    
C22   H8    S    
C15   C17   S    
C50   C52   A    
O19   V4    S    
C16   C18   S    
C9    C11   A    
C33   C57   A    
C67   O23   D    
C45   C59   A    
C42   H24   S    
C24   C26   A    
C22   C24   A    
C21   H7    S    
O16   C64   A    
C44   C48   A    
O9    V2    S    
C41   C43   A    
C37   H21   S    
C38   C40   A    
C43   C47   A    
O10   V1    S    
O8    V2    S    
C60   C63   S    
C23   C25   A    
C62   O17   A    
C19   C31   S    
C40   H26   S    
C46   C60   A    
C68   H30   S    
O11   C63   A    
