data_mof_unit_38529.cif
_audit_creation_date              2013-03-05T15:49:07-0500
_audit_creation_method            fapswitch 2.2
_symmetry_space_group_name_H-M    P1
_symmetry_Int_Tables_number       1
_space_group_crystal_system       triclinic
_cell_length_a                    22.42899
_cell_length_b                    12.987513
_cell_length_c                    26.926158
_cell_angle_alpha                 90.178588
_cell_angle_beta                  90.373896
_cell_angle_gamma                 90.181018
_cell_volume                      7843.25888083

loop_
_atom_site_label
_atom_site_type_symbol
_atom_site_description
_atom_site_fract_x
_atom_site_fract_y
_atom_site_fract_z
_atom_type_partial_charge
O1    O     O_R   0.769900 0.064540 0.196060 -0.521475
O2    O     O_R   0.230100 0.064540 0.803940 -0.526320
O3    O     O_R   0.269900 0.564540 0.196060 -0.525698
O4    O     O_R   0.730100 0.564540 0.803940 -0.524902
O5    O     O_R   0.750800 0.274080 0.199250 -0.488956
O6    O     O_R   0.249200 0.274080 0.800750 -0.492505
O7    O     O_R   0.250800 0.774080 0.199250 -0.492179
O8    O     O_R   0.749200 0.774080 0.800750 -0.475257
C1    C     C_R   0.721015 0.344995 0.178514 0.547692
C2    C     C_R   0.279274 0.344741 0.821706 0.547798
C3    C     C_R   0.220831 0.844564 0.178316 0.545903
C4    C     C_R   0.794880 0.805630 0.826743 0.543346
O9    O     O_R   0.669990 0.371670 0.194150 -0.491224
O10   O     O_R   0.330010 0.371670 0.805850 -0.500282
O11   O     O_R   0.169990 0.871670 0.194150 -0.499136
O12   O     O_R   0.830010 0.871670 0.805850 -0.485093
O13   O     O_R   0.574600 0.238480 0.197800 -0.512057
O14   O     O_R   0.425400 0.238480 0.802200 -0.516395
O15   O     O_R   0.074600 0.738480 0.197800 -0.514275
O16   O     O_R   0.925400 0.738480 0.802200 -0.530486
C5    C     C_R   0.552623 0.156827 0.177827 0.558422
C6    C     C_R   0.447356 0.157826 0.822129 0.567182
C7    C     C_R   0.051983 0.657156 0.178303 0.565601
C8    C     C_R   0.946790 0.657435 0.822566 0.551551
O17   O     O_R   0.566130 0.068680 0.194240 -0.441108
O18   O     O_R   0.433870 0.068680 0.805760 -0.431467
O19   O     O_R   0.066130 0.568680 0.194240 -0.433219
O20   O     O_R   0.933870 0.568680 0.805760 -0.433371
O21   O     O_R   0.680610 0.992490 0.199570 -0.447315
O22   O     O_R   0.319390 0.992490 0.800430 -0.445371
O23   O     O_R   0.180610 0.492490 0.199570 -0.444589
O24   O     O_R   0.819390 0.492490 0.800430 -0.451682
C9    C     C_R   0.731871 0.000273 0.179670 0.559429
C10   C     C_R   0.267928 0.000230 0.820088 0.564100
C11   C     C_R   0.231837 0.500065 0.179813 0.557507
C12   C     C_R   0.768159 0.501147 0.820375 0.565311
O25   O     O_R   0.770060 0.065440 0.307230 -0.518632
O26   O     O_R   0.229940 0.065440 0.692770 -0.519440
O27   O     O_R   0.270060 0.565440 0.307230 -0.519746
O28   O     O_R   0.729940 0.565440 0.692770 -0.518002
O29   O     O_R   0.750960 0.274920 0.302300 -0.502356
O30   O     O_R   0.249040 0.274920 0.697700 -0.498585
O31   O     O_R   0.250960 0.774920 0.302300 -0.498845
O32   O     O_R   0.749040 0.774920 0.697700 -0.497417
C13   C     C_R   0.721067 0.347148 0.321829 0.551820
C14   C     C_R   0.278565 0.348193 0.678635 0.554251
C15   C     C_R   0.221457 0.848333 0.321334 0.552578
C16   C     C_R   0.778968 0.846896 0.678110 0.563958
O33   O     O_R   0.670160 0.372580 0.305320 -0.512965
O34   O     O_R   0.329840 0.372580 0.694680 -0.512991
O35   O     O_R   0.170160 0.872580 0.305320 -0.513843
O36   O     O_R   0.829840 0.872580 0.694680 -0.507720
O37   O     O_R   0.574760 0.239320 0.300850 -0.507230
O38   O     O_R   0.425240 0.239320 0.699150 -0.504996
O39   O     O_R   0.074760 0.739320 0.300850 -0.505553
O40   O     O_R   0.925240 0.739320 0.699150 -0.506410
C17   C     C_R   0.554217 0.158982 0.321576 0.537619
C18   C     C_R   0.445948 0.158893 0.678510 0.540738
C19   C     C_R   0.054048 0.658942 0.321487 0.539773
C20   C     C_R   0.945782 0.658930 0.678422 0.539090
O41   O     O_R   0.566290 0.069580 0.305400 -0.509442
O42   O     O_R   0.433710 0.069580 0.694600 -0.509755
O43   O     O_R   0.066290 0.569580 0.305400 -0.509077
O44   O     O_R   0.933710 0.569580 0.694600 -0.508718
O45   O     O_R   0.680760 0.993330 0.302620 -0.495932
O46   O     O_R   0.319240 0.993330 0.697380 -0.496891
O47   O     O_R   0.180760 0.493330 0.302620 -0.498334
O48   O     O_R   0.819240 0.493330 0.697380 -0.493437
C21   C     C_R   0.731748 0.001597 0.322704 0.542995
C22   C     C_R   0.268828 0.003338 0.676278 0.544226
C23   C     C_R   0.231137 0.503402 0.323725 0.542487
C24   C     C_R   0.768218 0.501527 0.677320 0.545621
Cr1   Cr    Cr6+3 0.756570 0.170940 0.251190 1.055182
Cr2   Cr    Cr6+3 0.243430 0.170940 0.748810 1.047531
Cr3   Cr    Cr6+3 0.256570 0.670940 0.251190 1.047246
Cr4   Cr    Cr6+3 0.743430 0.670940 0.748810 1.058914
Cr5   Cr    Cr6+3 0.623740 0.299110 0.249580 1.047300
Cr6   Cr    Cr6+3 0.376260 0.299110 0.750420 1.050678
Cr7   Cr    Cr6+3 0.123740 0.799110 0.249580 1.047693
Cr8   Cr    Cr6+3 0.876260 0.799110 0.750420 1.044744
Cr9   Cr    Cr6+3 0.625990 0.036240 0.250480 1.129870
Cr10  Cr    Cr6+3 0.374010 0.036240 0.749520 1.138952
Cr11  Cr    Cr6+3 0.125990 0.536240 0.250480 1.136515
Cr12  Cr    Cr6+3 0.874010 0.536240 0.749520 1.126134
O49   O     O_3   0.668770 0.168760 0.250420 -0.275703
O50   O     O_3   0.331230 0.168760 0.749580 -0.275803
O51   O     O_3   0.168770 0.668760 0.250420 -0.273881
O52   O     O_3   0.831230 0.668760 0.749580 -0.297318
C25   C     C_R   0.511622 0.067527 0.102423 0.196076
C26   C     C_R   0.504855 0.078845 0.892847 0.205902
C27   C     C_R   0.000599 0.570849 0.106361 0.203602
C28   C     C_R   0.994887 0.572792 0.896442 0.201914
C29   C     C_R   0.515369 0.069834 0.050036 -0.005442
C30   C     C_R   0.512437 0.076449 0.945000 -0.005013
C31   C     C_R   0.001675 0.569531 0.053813 -0.010042
C32   C     C_R   0.999492 0.571422 0.948689 -0.013269
C33   C     C_R   0.530354 0.986722 0.969980 -0.077985
C34   C     C_R   0.530199 0.982649 0.021655 -0.069277
C35   C     C_R   0.009515 0.479526 0.974811 -0.064191
C36   C     C_R   0.009178 0.478210 0.026476 -0.053580
H1    H     H_    0.543424 0.918001 0.950246 0.210723
H2    H     H_    0.545301 0.912231 0.038771 0.220558
H3    H     H_    0.016844 0.407299 0.955847 0.222494
H4    H     H_    0.018821 0.405812 0.044371 0.234976
C37   C     C_R   0.478844 0.166572 0.870555 -0.008771
C38   C     C_R   0.522147 0.160758 0.128803 -0.014717
C39   C     C_R   0.975988 0.663857 0.872147 -0.014068
C40   C     C_R   0.018484 0.662940 0.130738 -0.012992
C41   C     C_R   0.514866 0.255128 0.104149 -0.165091
C42   C     C_R   0.473019 0.257794 0.898396 -0.168489
C43   C     C_R   0.014973 0.756876 0.105054 -0.167634
C44   C     C_R   0.973950 0.756771 0.899067 -0.172542
C45   C     C_R   0.502849 0.256763 0.053000 0.004584
C46   C     C_R   0.485677 0.258954 0.949303 0.002227
C47   C     C_R   0.001387 0.757925 0.054201 0.003127
C48   C     C_R   0.984770 0.758011 0.950368 0.003182
C49   C     C_R   0.506794 0.164433 0.025419 0.026548
C50   C     C_R   0.501608 0.166544 0.973173 0.028656
C51   C     C_R   0.998918 0.663914 0.027902 0.022824
C52   C     C_R   0.994113 0.664362 0.975601 0.025007
C53   C     C_R   0.490215 0.349349 0.028482 -0.104515
C54   C     C_R   0.479949 0.349886 0.977200 -0.107064
C55   C     C_R   0.994340 0.851019 0.028551 -0.108924
C56   C     C_R   0.984307 0.850833 0.977218 -0.108553
H5    H     H_    0.455293 0.326609 0.881122 0.153866
H6    H     H_    0.519692 0.326893 0.124469 0.149632
H7    H     H_    0.961270 0.827493 0.880566 0.152391
H8    H     H_    0.024991 0.828589 0.124104 0.150093
H9    H     H_    0.468082 0.421609 0.959271 0.147337
H10   H     H_    0.487067 0.420887 0.049098 0.144332
H11   H     H_    0.977369 0.923449 0.958368 0.147601
H12   H     H_    0.995988 0.923842 0.048265 0.144404
C57   C     C_R   0.744054 0.948039 0.131891 -0.033813
C58   C     C_R   0.256882 0.952175 0.868786 -0.024952
C59   C     C_R   0.242393 0.450909 0.131208 -0.031161
C60   C     C_R   0.757994 0.456769 0.869897 -0.026303
C61   C     C_R   0.788124 0.991086 0.101447 -0.176162
C62   C     C_R   0.212710 0.995745 0.898847 -0.179707
C63   C     C_R   0.289790 0.488404 0.102627 -0.179379
C64   C     C_R   0.721994 0.513169 0.902487 -0.173891
C65   C     C_R   0.793586 0.960708 0.052428 -0.171750
C66   C     C_R   0.211995 0.977334 0.949365 -0.179578
C67   C     C_R   0.291773 0.469585 0.052114 -0.180472
C68   C     C_R   0.722635 0.493072 0.952792 -0.174710
C69   C     C_R   0.755769 0.885592 0.032479 -0.036640
C70   C     C_R   0.255506 0.915349 0.971403 -0.030751
C71   C     C_R   0.246897 0.411916 0.028867 -0.030871
C72   C     C_R   0.758776 0.415412 0.972119 -0.036921
C73   C     C_R   0.713445 0.835842 0.062868 0.203731
C74   C     C_R   0.297743 0.864060 0.941285 0.204160
C75   C     C_R   0.201476 0.365584 0.057481 0.205537
C76   C     C_R   0.792489 0.352528 0.939687 0.212950
C77   C     C_R   0.707848 0.866838 0.113123 0.188360
C78   C     C_R   0.296670 0.879233 0.889307 0.194376
C79   C     C_R   0.199939 0.383542 0.109142 0.189787
C80   C     C_R   0.791162 0.372088 0.887941 0.199766
C81   C     C_R   0.784298 0.766534 0.964085 -0.067465
C82   C     C_R   0.253310 0.799963 0.044727 -0.060562
C83   C     C_R   0.250070 0.297328 0.955317 -0.058586
C84   C     C_R   0.740955 0.298613 0.043271 -0.064549
C85   C     C_R   0.794592 0.748395 0.913806 -0.145158
C86   C     C_R   0.246438 0.784335 0.095209 -0.102891
C87   C     C_R   0.256054 0.282608 0.904686 -0.105837
C88   C     C_R   0.731750 0.282971 0.093547 -0.107745
C89   C     C_R   0.759504 0.920305 0.894169 -0.057425
C90   C     C_R   0.234883 0.968095 0.108400 -0.094811
C91   C     C_R   0.266512 0.466919 0.892467 -0.095244
C92   C     C_R   0.750440 0.464050 0.110259 -0.071632
C93   C     C_R   0.749342 0.938541 0.944386 -0.068334
C94   C     C_R   0.244072 0.984240 0.057751 -0.083076
C95   C     C_R   0.258457 0.482050 0.943324 -0.084887
C96   C     C_R   0.761302 0.479293 0.059782 -0.059292
C97   C     C_R   0.761891 0.861904 0.979496 0.065921
C98   C     C_R   0.252658 0.899939 0.025519 0.060167
C99   C     C_R   0.250667 0.397061 0.974957 0.060113
C100  C     C_R   0.755817 0.396791 0.025935 0.064153
C101  C     C_R   0.782409 0.825302 0.878860 0.026264
C102  C     C_R   0.236368 0.867896 0.127174 0.035285
C103  C     C_R   0.264785 0.366957 0.873114 0.033078
C104  C     C_R   0.735597 0.365669 0.127032 0.041955
H13   H     H_    0.816622 0.053025 0.114610 0.179377
H14   H     H_    0.180573 0.049745 0.883962 0.173686
H15   H     H_    0.323601 0.538465 0.118580 0.174268
H16   H     H_    0.695798 0.577896 0.889641 0.184334
H17   H     H_    0.795048 0.707543 0.990995 0.120539
H18   H     H_    0.257125 0.733541 0.020567 0.139089
H19   H     H_    0.246226 0.230757 0.979244 0.135323
H20   H     H_    0.734494 0.234784 0.017798 0.141613
H21   H     H_    0.813099 0.675281 0.902204 0.095534
H22   H     H_    0.245670 0.706043 0.108975 0.125329
H23   H     H_    0.256948 0.204625 0.890384 0.123362
H24   H     H_    0.719364 0.206724 0.106215 0.110379
H25   H     H_    0.826756 0.997892 0.029434 0.178435
H26   H     H_    0.177867 0.013777 0.971592 0.167164
H27   H     H_    0.328008 0.502195 0.030785 0.164490
H28   H     H_    0.695013 0.539455 0.976942 0.194585
H29   H     H_    0.732313 0.012690 0.956062 0.144349
H30   H     H_    0.243046 0.062102 0.043476 0.140267
H31   H     H_    0.259209 0.559592 0.958212 0.148682
H32   H     H_    0.772489 0.555773 0.046864 0.131951
H33   H     H_    0.750021 0.980192 0.867363 0.170850
H34   H     H_    0.226173 0.032961 0.132644 0.159492
H35   H     H_    0.274410 0.532322 0.868499 0.166206
H36   H     H_    0.753262 0.528320 0.135908 0.153992
C105  C     C_R   0.527689 0.169521 0.370947 0.017467
C106  C     C_R   0.473394 0.168916 0.629460 0.015402
C107  C     C_R   0.026720 0.669176 0.370577 0.014767
C108  C     C_R   0.972439 0.669243 0.629094 0.016985
C109  C     C_R   0.538412 0.259848 0.398489 -0.127276
C110  C     C_R   0.465840 0.260692 0.602702 -0.124568
C111  C     C_R   0.035221 0.760630 0.397737 -0.124734
C112  C     C_R   0.962665 0.759930 0.601942 -0.127471
C113  C     C_R   0.527558 0.262187 0.449209 -0.122894
C114  C     C_R   0.477225 0.263316 0.552060 -0.119128
C115  C     C_R   0.023922 0.763144 0.448401 -0.118883
C116  C     C_R   0.973593 0.762362 0.551242 -0.123010
C117  C     C_R   0.504635 0.174988 0.473123 0.031292
C118  C     C_R   0.497444 0.174810 0.527473 0.027016
C119  C     C_R   0.002835 0.674873 0.472603 0.027024
C120  C     C_R   0.995642 0.674876 0.526953 0.031061
C121  C     C_R   0.489631 0.087335 0.444885 -0.116351
C122  C     C_R   0.509573 0.085492 0.555019 -0.120158
C123  C     C_R   0.989800 0.585955 0.444665 -0.119900
C124  C     C_R   0.009743 0.586786 0.554811 -0.116359
C125  C     C_R   0.501507 0.084328 0.394194 -0.124053
C126  C     C_R   0.497297 0.082356 0.605613 -0.122356
C127  C     C_R   0.002010 0.582904 0.394052 -0.122706
C128  C     C_R   0.997807 0.583712 0.605484 -0.123921
H37   H     H_    0.559223 0.326467 0.381693 0.139796
H38   H     H_    0.447062 0.328548 0.620005 0.148633
H39   H     H_    0.054685 0.828211 0.380724 0.148352
H40   H     H_    0.942542 0.826870 0.619016 0.140104
H41   H     H_    0.527043 0.017172 0.537209 0.126293
H42   H     H_    0.470116 0.020163 0.462201 0.114237
H43   H     H_    0.028586 0.519348 0.537205 0.115041
H44   H     H_    0.971661 0.517861 0.462177 0.127607
H45   H     H_    0.503808 0.010852 0.625494 0.152088
H46   H     H_    0.492682 0.013966 0.373692 0.142430
H47   H     H_    0.005917 0.513066 0.625671 0.143213
H48   H     H_    0.994782 0.511657 0.373845 0.151639
H49   H     H_    0.539912 0.330563 0.470015 0.112346
H50   H     H_    0.467245 0.333120 0.531798 0.121993
H51   H     H_    0.034626 0.832622 0.468970 0.121286
H52   H     H_    0.961958 0.831097 0.530737 0.112596
C129  C     C_R   0.738644 0.958770 0.372208 0.045056
C130  C     C_R   0.264379 0.967564 0.624723 0.042815
C131  C     C_R   0.235641 0.467662 0.375213 0.042210
C132  C     C_R   0.761517 0.458954 0.627692 0.045742
C133  C     C_R   0.688097 0.962551 0.402695 -0.121278
C134  C     C_R   0.317829 0.965867 0.597501 -0.108144
C135  C     C_R   0.182268 0.465547 0.402541 -0.108304
C136  C     C_R   0.811888 0.465315 0.597117 -0.121092
C137  C     C_R   0.692660 0.940389 0.452503 -0.061702
C138  C     C_R   0.316844 0.957844 0.546387 -0.091519
C139  C     C_R   0.183363 0.457009 0.453637 -0.091072
C140  C     C_R   0.807420 0.443102 0.547274 -0.060947
C141  C     C_R   0.747469 0.911480 0.472475 0.065392
C142  C     C_R   0.262530 0.949337 0.521420 0.072564
C143  C     C_R   0.237715 0.448477 0.478497 0.072688
C144  C     C_R   0.752916 0.411581 0.527374 0.065948
C145  C     C_R   0.797881 0.902732 0.442295 -0.064110
C146  C     C_R   0.209153 0.941927 0.548130 -0.024886
C147  C     C_R   0.290996 0.441588 0.451623 -0.024241
C148  C     C_R   0.702704 0.400400 0.557622 -0.064279
C149  C     C_R   0.794151 0.926756 0.391772 0.000015
C150  C     C_R   0.209315 0.951961 0.599927 -0.004222
C151  C     C_R   0.290725 0.452127 0.399863 -0.004215
C152  C     C_R   0.706324 0.424522 0.608199 -0.000532
C153  C     C_R   0.792758 0.959111 0.552062 -0.149065
C154  C     C_R   0.296524 0.867923 0.444498 -0.135466
C155  C     C_R   0.203618 0.366967 0.555338 -0.133328
C156  C     C_R   0.706754 0.457877 0.448267 -0.146885
C157  C     C_R   0.797602 0.950751 0.603149 -0.128754
C158  C     C_R   0.287255 0.843238 0.395049 -0.127490
C159  C     C_R   0.212827 0.342432 0.604763 -0.126776
C160  C     C_R   0.701854 0.449954 0.397171 -0.128525
C161  C     C_R   0.717864 0.823843 0.602630 -0.107588
C162  C     C_R   0.212330 0.977068 0.388957 -0.110242
C163  C     C_R   0.288200 0.476317 0.611102 -0.108840
C164  C     C_R   0.783255 0.327097 0.396741 -0.107107
C165  C     C_R   0.713815 0.829056 0.551102 0.211115
C166  C     C_R   0.222331 0.004400 0.438559 0.211478
C167  C     C_R   0.278334 0.503405 0.561532 0.211143
C168  C     C_R   0.787435 0.331900 0.448267 0.210387
C169  C     C_R   0.752248 0.897024 0.525783 0.000816
C170  C     C_R   0.261741 0.943698 0.467243 0.009016
C171  C     C_R   0.238665 0.442662 0.532707 0.008973
C172  C     C_R   0.748125 0.397445 0.474057 0.001007
C173  C     C_R   0.761696 0.880292 0.628486 -0.020473
C174  C     C_R   0.242512 0.893372 0.367951 -0.022534
C175  C     C_R   0.257692 0.392770 0.631995 -0.022145
C176  C     C_R   0.738480 0.381422 0.371372 -0.020058
H53   H     H_    0.645349 0.988694 0.388675 0.137913
H54   H     H_    0.360761 0.977873 0.615291 0.146864
H55   H     H_    0.139328 0.477528 0.384866 0.146988
H56   H     H_    0.854347 0.493469 0.611133 0.137037
H57   H     H_    0.821417 0.012858 0.532786 0.182657
H58   H     H_    0.327874 0.822570 0.465919 0.179734
H59   H     H_    0.172023 0.321651 0.533847 0.180565
H60   H     H_    0.677455 0.509901 0.467927 0.183031
H61   H     H_    0.831628 0.995145 0.622392 0.160141
H62   H     H_    0.311700 0.779178 0.379415 0.156429
H63   H     H_    0.188163 0.278453 0.620297 0.156201
H64   H     H_    0.667153 0.492844 0.378303 0.159146
H65   H     H_    0.653772 0.948823 0.475849 0.135012
H66   H     H_    0.358420 0.961843 0.526175 0.113966
H67   H     H_    0.141847 0.460680 0.473938 0.114216
H68   H     H_    0.846094 0.453564 0.523857 0.134954
H69   H     H_    0.690448 0.768131 0.621869 0.175175
H70   H     H_    0.179593 0.018751 0.367227 0.175373
H71   H     H_    0.321073 0.518149 0.632911 0.176442
H72   H     H_    0.811362 0.273091 0.377107 0.174773
H73   H     H_    0.840085 0.879447 0.458526 0.112145
H74   H     H_    0.167392 0.930714 0.528315 0.126382
H75   H     H_    0.332790 0.430417 0.471299 0.127010
H76   H     H_    0.660728 0.375233 0.541403 0.111624
N1    N     N_R   0.523906 0.994323 0.862271 0.081839
O53   O     O_R   0.558197 0.011761 0.824403 -0.314883
O54   O     O_R   0.501753 0.902659 0.868324 -0.256560
N2    N     N_R   0.489365 0.977784 0.128561 0.116567
O55   O     O_R   0.461350 0.990478 0.170333 -0.303621
O56   O     O_R   0.483801 0.888870 0.106681 -0.267437
N3    N     N_R   0.009283 0.482611 0.867989 0.085879
O57   O     O_R   0.049738 0.487948 0.833675 -0.310158
O58   O     O_R   0.976879 0.399825 0.871568 -0.265623
N4    N     N_R   0.975463 0.486462 0.134802 0.114229
O59   O     O_R   0.956488 0.503723 0.179652 -0.307528
O60   O     O_R   0.957201 0.402279 0.113219 -0.291416
N5    N     N_R   0.675805 0.755810 0.042798 0.082206
O61   O     O_R   0.648637 0.768263 0.000402 -0.342144
O62   O     O_R   0.667782 0.670621 0.067185 -0.310729
N6    N     N_R   0.342551 0.799747 0.963386 0.092132
O63   O     O_R   0.377263 0.836069 0.998213 -0.283090
O64   O     O_R   0.347863 0.704098 0.949648 -0.326704
N7    N     N_R   0.156339 0.302595 0.034307 0.081494
O65   O     O_R   0.127286 0.335746 0.995592 -0.347230
O66   O     O_R   0.144562 0.211318 0.051534 -0.312613
N8    N     N_R   0.828137 0.270193 0.959178 0.095079
O67   O     O_R   0.866746 0.287999 0.994476 -0.297368
O68   O     O_R   0.820050 0.176357 0.943395 -0.330517
N9    N     N_R   0.664483 0.818213 0.144286 0.112680
O69   O     O_R   0.608836 0.813425 0.130526 -0.237784
O70   O     O_R   0.680628 0.778232 0.186514 -0.319171
N10   N     N_R   0.335680 0.821631 0.857550 0.106299
O71   O     O_R   0.391734 0.810653 0.868780 -0.204049
O72   O     O_R   0.314860 0.778835 0.817229 -0.330457
N11   N     N_R   0.154065 0.336796 0.138487 0.114724
O73   O     O_R   0.098193 0.347982 0.126446 -0.254850
O74   O     O_R   0.168151 0.283314 0.177603 -0.318587
N12   N     N_R   0.822782 0.306630 0.853931 0.111170
O75   O     O_R   0.876054 0.273671 0.864471 -0.207505
O76   O     O_R   0.797641 0.277760 0.812452 -0.323099
N13   N     N_R   0.673630 0.760524 0.525161 0.063695
O77   O     O_R   0.689075 0.718552 0.483245 -0.355715
O78   O     O_R   0.624802 0.729513 0.546348 -0.348803
N14   N     N_R   0.192223 0.092206 0.459305 0.066087
O79   O     O_R   0.217717 0.147108 0.493975 -0.363873
O80   O     O_R   0.142631 0.124983 0.439684 -0.347137
N15   N     N_R   0.308812 0.591101 0.540988 0.066298
O81   O     O_R   0.283443 0.646253 0.506614 -0.363030
O82   O     O_R   0.358690 0.623540 0.560549 -0.345954
N16   N     N_R   0.828703 0.265279 0.473708 0.063857
O83   O     O_R   0.813989 0.221764 0.515355 -0.354925
O84   O     O_R   0.877970 0.237483 0.452279 -0.348915
C177  C     C_3   0.848919 0.918010 0.359954 -0.366916
H77   H     H_    0.886361 0.881227 0.380407 0.129627
H78   H     H_    0.838847 0.870214 0.326661 0.145345
H79   H     H_    0.863944 0.995613 0.348208 0.175730
C178  C     C_3   0.151122 0.946292 0.627441 -0.372672
H80   H     H_    0.114267 0.918835 0.602955 0.126055
H81   H     H_    0.155119 0.891680 0.658927 0.147604
H82   H     H_    0.138805 0.023612 0.641579 0.167272
C179  C     C_3   0.348841 0.447041 0.372228 -0.373200
H83   H     H_    0.385737 0.419809 0.396541 0.126355
H84   H     H_    0.344714 0.392514 0.340536 0.145692
H85   H     H_    0.361187 0.524518 0.358367 0.167381
C180  C     C_3   0.651824 0.413340 0.640166 -0.366146
H86   H     H_    0.614572 0.375533 0.619619 0.129941
H87   H     H_    0.662497 0.365442 0.673115 0.150240
H88   H     H_    0.636243 0.490215 0.652486 0.175101

loop_
_geom_bond_atom_site_label_1
_geom_bond_atom_site_label_2
_geom_bond_distance
_ccdc_geom_bond_type
C35   H3    1.080170 S    
C37   C42   1.406911 A    
O4    C12   1.266549 A    
C57   C61   1.404110 A    
O25   C21   1.265642 A    
C121  H42   1.082974 S    
C39   C44   1.406782 A    
C66   C70   1.397497 A    
C91   C103  1.397761 A    
C23   C131  1.466342 S    
C60   C64   1.402681 A    
Cr7   O51   1.974157 S    
C59   C63   1.403301 A    
C141  C145  1.401431 A    
O39   C19   1.272102 A    
C112  H40   1.083321 S    
C32   C35   1.405197 A    
C121  C125  1.392802 A    
C36   H4    1.079717 S    
C90   H34   1.083193 S    
C1    O9    1.270799 A    
O44   Cr12  2.047783 S    
C180  H88   1.109350 S    
C161  C165  1.391717 A    
C16   C173  1.456555 S    
C75   N7    1.437657 S    
C70   C74   1.417552 A    
C3    O11   1.270427 A    
C82   C98   1.399238 A    
C76   C80   1.417225 A    
C25   C38   1.420215 A    
C106  C126  1.402624 A    
C134  C138  1.379935 A    
N4    O59   1.302082 A    
C75   C79   1.410374 A    
C163  C167  1.397772 A    
C144  C148  1.401584 A    
C154  H58   1.083268 S    
C178  H82   1.109233 S    
C139  H67   1.083943 S    
O2    C10   1.268241 A    
O17   Cr9   2.062590 S    
C157  C173  1.399213 A    
C154  C170  1.399831 A    
C124  C128  1.392833 A    
N13   O78   1.301481 A    
C147  C151  1.400820 A    
C139  C143  1.391801 A    
C149  C177  1.506594 S    
C47   C55   1.403139 A    
O16   Cr8   1.941902 S    
N3    O57   1.301062 A    
C73   N5    1.438810 S    
C179  H85   1.109242 S    
N7    O66   1.301257 A    
C91   C95   1.395791 A    
C30   C33   1.405785 A    
C31   C51   1.413657 A    
C34   H2    1.079869 S    
C109  C113  1.389044 A    
O28   Cr4   2.055331 S    
O12   Cr8   2.051677 S    
O22   Cr10  1.930063 S    
O15   C7    1.279908 A    
C79   N11   1.435719 S    
O46   Cr10  1.938798 S    
C108  C112  1.405240 A    
C66   H26   1.083788 S    
C8    C39   1.485147 S    
C21   C129  1.453466 S    
C67   C71   1.396402 A    
C132  C136  1.404626 A    
C114  C118  1.402742 A    
C85   C101  1.400723 A    
C86   H22   1.083475 S    
O31   Cr3   1.930076 S    
C94   C98   1.409485 A    
C113  C117  1.402388 A    
C129  C149  1.412942 A    
Cr12  O52   1.973146 S    
C26   C37   1.415154 A    
C17   O41   1.269491 A    
C19   O43   1.269019 A    
C40   C43   1.406420 A    
C114  H50   1.082774 S    
C20   O44   1.269795 A    
C24   C132  1.451304 S    
C85   H21   1.083476 S    
C135  H55   1.083354 S    
Cr8   O52   1.968557 S    
C177  H77   1.111269 S    
C148  H76   1.084321 S    
C161  H69   1.083377 S    
O46   C22   1.269326 A    
C127  H48   1.083180 S    
C70   C98   1.473191 S    
C113  H49   1.082847 S    
C14   C175  1.459466 S    
N12   O75   1.300379 A    
C62   H14   1.083159 S    
N7    O65   1.300925 A    
C48   C52   1.410595 A    
C16   O36   1.265797 A    
C143  C147  1.404005 A    
N15   O81   1.301267 A    
O27   C23   1.269434 A    
O31   C15   1.270817 A    
O32   C16   1.267423 A    
C166  N14   1.440248 S    
O47   Cr11  1.943541 S    
C26   C30   1.413886 A    
O21   C9    1.275480 A    
C55   H12   1.083533 S    
C89   C101  1.399940 A    
C146  H74   1.084135 S    
C53   H10   1.083558 S    
C33   C34   1.392595 A    
C55   C56   1.398961 A    
C72   C100  1.471747 S    
C2    C103  1.452209 S    
O24   C12   1.276677 A    
C124  H43   1.082968 S    
C81   H17   1.082807 S    
C123  C127  1.392295 A    
C161  C173  1.404276 A    
N16   O83   1.301330 A    
C10   C58   1.476036 S    
C28   C32   1.410092 A    
C83   H19   1.083401 S    
O32   Cr4   1.935513 S    
C44   H7    1.084135 S    
C73   C77   1.417046 A    
C63   C67   1.382196 A    
O11   Cr7   2.052936 S    
O27   Cr3   2.062863 S    
O3    Cr3   2.048934 S    
C42   C46   1.398030 A    
C5    C38   1.483654 S    
C74   N6    1.436113 S    
C28   N3    1.436305 S    
C131  C151  1.413983 A    
Cr5   O49   1.974157 S    
C126  H45   1.083162 S    
C107  C111  1.404737 A    
N5    O62   1.300970 A    
C142  C146  1.403811 A    
C29   C49   1.410926 A    
C147  H75   1.084116 S    
C116  H52   1.082833 S    
N9    O70   1.301201 A    
O22   C10   1.277084 A    
C4    O12   1.295181 A    
N6    O63   1.301325 A    
C2    O10   1.266601 A    
C177  H79   1.109348 S    
C11   C59   1.475199 S    
C117  C118  1.473333 S    
C92   H36   1.083138 S    
N3    O58   1.300059 A    
N2    O56   1.300020 A    
C71   C75   1.415218 A    
O5    C1    1.268268 A    
C106  C110  1.404838 A    
O3    C11   1.268743 A    
O8    C4    1.301408 A    
N14   O80   1.301650 A    
C65   H25   1.084266 S    
C158  C174  1.400356 A    
Cr1   O49   1.969350 S    
C144  C172  1.449997 S    
C45   C49   1.411839 A    
Cr3   O51   1.969350 S    
C90   C94   1.396967 A    
N8    O68   1.301181 A    
C87   C103  1.402774 A    
C151  C179  1.506649 S    
C44   C48   1.400960 A    
C93   H29   1.083556 S    
O26   Cr2   2.055331 S    
C19   C107  1.466466 S    
C5    O17   1.265409 A    
O29   C13   1.269446 A    
O28   C24   1.267347 A    
O14   C6    1.277112 A    
C72   C76   1.417542 A    
N10   O72   1.301416 A    
C26   N1    1.437824 S    
C163  H71   1.083262 S    
C68   H28   1.083858 S    
C131  C135  1.409496 A    
C6    C37   1.482720 S    
C133  H53   1.084062 S    
C47   C51   1.410293 A    
O40   Cr8   1.932391 S    
C77   N9    1.434914 S    
C146  C150  1.400356 A    
O41   Cr9   2.047623 S    
C49   C50   1.411175 A    
C108  C128  1.402197 A    
C30   C50   1.415016 A    
C140  C144  1.391423 A    
O33   Cr5   2.052187 S    
C96   H32   1.082716 S    
C25   C29   1.414043 A    
O35   Cr7   2.052187 S    
C86   C102  1.402806 A    
C123  H44   1.082971 S    
O29   Cr1   1.930076 S    
C137  C141  1.391732 A    
C41   H6    1.084061 S    
C45   C53   1.402394 A    
N10   O71   1.299559 A    
C43   H8    1.084081 S    
C93   C97   1.402775 A    
N4    O60   1.300375 A    
C88   H24   1.084325 S    
Cr9   O49   1.967860 S    
C96   C100  1.409058 A    
C178  H81   1.110430 S    
C38   C41   1.405134 A    
C18   O42   1.269337 A    
Cr11  O51   1.967860 S    
O26   C22   1.271126 A    
O20   Cr12  2.058927 S    
C120  C124  1.405751 A    
N13   O77   1.301321 A    
C162  H70   1.083244 S    
C116  C120  1.402313 A    
C64   H16   1.083427 S    
C111  H39   1.083280 S    
C84   C88   1.386232 A    
C46   C50   1.409167 A    
C179  H84   1.110430 S    
O38   C18   1.272186 A    
C71   C99   1.466796 S    
C18   C106  1.466760 S    
C12   C60   1.473146 S    
O30   C14   1.269307 A    
N1    O54   1.299690 A    
C89   H33   1.083372 S    
C129  C133  1.404927 A    
C152  C180  1.506514 S    
C168  N16   1.440533 S    
C105  C125  1.402113 A    
C90   C102  1.397955 A    
C91   H35   1.083229 S    
C156  H60   1.083377 S    
C54   H9    1.083644 S    
C88   C104  1.402251 A    
O42   Cr10  2.047783 S    
O18   Cr10  2.058927 S    
C89   C93   1.392372 A    
C125  H46   1.083185 S    
C162  C174  1.401979 A    
C82   H18   1.082768 S    
O6    Cr2   1.936978 S    
C165  C169  1.411966 A    
O24   Cr12  1.930063 S    
O30   Cr2   1.935513 S    
C167  C171  1.413918 A    
O48   Cr12  1.938798 S    
C8    O20   1.269017 A    
C168  C172  1.411832 A    
C117  C121  1.405768 A    
C62   C66   1.382040 A    
C59   C79   1.417509 A    
N11   O73   1.301062 A    
O37   C17   1.271361 A    
C31   C36   1.405072 A    
C20   C108  1.466474 S    
C15   O35   1.267092 A    
Cr10  O50   1.973146 S    
O40   C20   1.271455 A    
O43   Cr11  2.047623 S    
O7    C3    1.268730 A    
C145  C149  1.398679 A    
C115  C119  1.402815 A    
O39   Cr7   1.933061 S    
O45   Cr9   1.943541 S    
C13   O33   1.267702 A    
C156  C160  1.382957 A    
C67   H27   1.084034 S    
O13   Cr5   1.935541 S    
C110  H38   1.083260 S    
C143  C171  1.461885 S    
C53   C54   1.398453 A    
C150  C178  1.506691 S    
C22   C130  1.465176 S    
C107  C127  1.402570 A    
C154  C158  1.382790 A    
O23   C11   1.272947 A    
C81   C85   1.394302 A    
C119  C120  1.473332 S    
C61   C65   1.382743 A    
C48   C56   1.403863 A    
C27   C40   1.418046 A    
C25   N2    1.452252 S    
C64   C68   1.380230 A    
N6    O64   1.301097 A    
O6    C2    1.266283 A    
C51   C52   1.411705 A    
C155  C171  1.400272 A    
C140  H68   1.084131 S    
C164  H72   1.083389 S    
C115  H51   1.082779 S    
C153  C157  1.383789 A    
O1    Cr1   2.048934 S    
O19   Cr11  2.062590 S    
C155  H59   1.083194 S    
C159  C175  1.400317 A    
C58   C78   1.414662 A    
N16   O84   1.301482 A    
O45   C21   1.265933 A    
C7    C40   1.482865 S    
C65   C69   1.394726 A    
O47   C23   1.267654 A    
O13   C5    1.283150 A    
C119  C123  1.405190 A    
C92   C96   1.396989 A    
C61   H13   1.083195 S    
C6    O18   1.272437 A    
C122  C126  1.392306 A    
O36   Cr8   2.059586 S    
C15   C174  1.458313 S    
C69   C73   1.413400 A    
C81   C97   1.400854 A    
O38   Cr6   1.932391 S    
C111  C115  1.389469 A    
C122  H41   1.082958 S    
C134  H54   1.083310 S    
N5    O61   1.301282 A    
O37   Cr5   1.933061 S    
O8    Cr4   1.936978 S    
C68   C72   1.395741 A    
C153  H57   1.083332 S    
O1    C9    1.267775 A    
N9    O69   1.300867 A    
C155  C159  1.383740 A    
C164  C176  1.404090 A    
C57   C77   1.418762 A    
C158  H62   1.083390 S    
C153  C169  1.399949 A    
C157  H61   1.083294 S    
C177  H78   1.110407 S    
C60   C80   1.415207 A    
C159  H63   1.083382 S    
C138  C142  1.391464 A    
C17   C105  1.466180 S    
C133  C137  1.375791 A    
O23   Cr11  1.929830 S    
C78   N10   1.437483 S    
C95   H31   1.082807 S    
C135  C139  1.380693 A    
O16   C8    1.281461 A    
C138  H66   1.083981 S    
C7    O19   1.268392 A    
Cr4   O52   1.969533 S    
O2    Cr2   2.053897 S    
O48   C24   1.267167 A    
C136  C140  1.374806 A    
Cr6   O50   1.968557 S    
C4    C101  1.454683 S    
C83   C99   1.397541 A    
O5    Cr1   1.943562 S    
C84   C100  1.399242 A    
C141  C169  1.451496 S    
C118  C122  1.405175 A    
O9    Cr5   2.052936 S    
C180  H87   1.110399 S    
C112  C116  1.388978 A    
C128  H47   1.083168 S    
C80   N12   1.439357 S    
C76   N8    1.435819 S    
O7    Cr3   1.943562 S    
C110  C114  1.389450 A    
C95   C99   1.407456 A    
C56   H11   1.083567 S    
C46   C54   1.404326 A    
N12   O76   1.301449 A    
C92   C104  1.396511 A    
N11   O74   1.301222 A    
C28   C39   1.418033 A    
C35   C36   1.391368 A    
C105  C109  1.405164 A    
C148  C152  1.398261 A    
N15   O82   1.301691 A    
C3    C102  1.455236 S    
C109  H37   1.083344 S    
Cr2   O50   1.969533 S    
C180  H86   1.111281 S    
C160  H64   1.083292 S    
C1    C104  1.451998 S    
C165  N13   1.440588 S    
O14   Cr6   1.941902 S    
C167  N15   1.440293 S    
C69   C97   1.465907 S    
O21   Cr9   1.929830 S    
C166  C170  1.413746 A    
C163  C175  1.402214 A    
C162  C166  1.397425 A    
C83   C87   1.383488 A    
C84   H20   1.083071 S    
C94   H30   1.083201 S    
C63   H15   1.083148 S    
C178  H80   1.111188 S    
C130  C134  1.409439 A    
O25   Cr1   2.062863 S    
C136  H56   1.084104 S    
C32   C52   1.411826 A    
C164  C168  1.391150 A    
C58   C62   1.402884 A    
C87   H23   1.082719 S    
C132  C152  1.412253 A    
C41   C45   1.401894 A    
C156  C172  1.399584 A    
C14   O34   1.264890 A    
C145  H73   1.084306 S    
C142  C170  1.460390 S    
N2    O55   1.302236 A    
C130  C150  1.413839 A    
C179  H83   1.111170 S    
C137  H65   1.084087 S    
O34   Cr6   2.059586 S    
N14   O79   1.301218 A    
C13   C176  1.455559 S    
O10   Cr6   2.051677 S    
N1    O53   1.301196 A    
O4    Cr4   2.053897 S    
C82   C86   1.384499 A    
C42   H5    1.084248 S    
C160  C176  1.399225 A    
C9    C57   1.479960 S    
C27   C31   1.415328 A    
N8    O67   1.301291 A    
C74   C78   1.414033 A    
C43   C47   1.400954 A    
C27   N4    1.453433 S    
C29   C34   1.406085 A    
C33   H1    1.079617 S    
O15   Cr7   1.935541 S    
