data_mof_unit_15733.cif
_audit_creation_date              2012-12-11T14:29:39-0500
_audit_creation_method            fapswitch 2.2
_symmetry_space_group_name_H-M    P1
_symmetry_Int_Tables_number       1
_space_group_crystal_system       triclinic
_cell_length_a                    6.937542
_cell_length_b                    14.801814
_cell_length_c                    16.210434
_cell_angle_alpha                 90.39141
_cell_angle_beta                  90.472898
_cell_angle_gamma                 90.712683
_cell_volume                      1664.39490019

loop_
_atom_site_label
_atom_site_type_symbol
_atom_type_description
_atom_site_fract_x
_atom_site_fract_y
_atom_site_fract_z
_atom_type_partial_charge
O1    O     O_R   0.494400 0.416610 0.413880 -0.540914
O2    O     O_R   0.823920 0.406790 0.585520 -0.534528
O3    O     O_R   0.994250 0.583390 0.586120 -0.541310
C1    C     C_R   0.654299 0.384210 0.612752 0.744004
O4    O     O_R   0.824110 0.405730 0.414490 -0.536291
O5    O     O_R   0.994440 0.582310 0.413870 -0.557627
C2    C     C_R   0.654321 0.381556 0.388050 0.770795
O6    O     O_R   0.494210 0.417690 0.586130 -0.535762
O7    O     O_3   0.660810 0.557940 0.500000 -0.347902
V1    V     V_3+5 0.935650 0.489250 0.500000 1.536075
O8    O     O_R   0.324160 0.593210 0.414480 -0.501235
C3    C     C_R   0.156164 0.611791 0.384014 0.738012
O9    O     O_R   0.323970 0.594270 0.585510 -0.503662
C4    C     C_R   0.157712 0.621475 0.610055 0.743166
V2    V     V_3+5 0.435660 0.510750 0.500000 1.600688
O10   O     O_3   0.160630 0.442060 0.500000 -0.377152
H1    H     H_    0.339192 0.936287 0.515995 0.169617
C5    C     C_R   0.104409 0.568650 0.782188 -0.047428
C6    C     C_R   0.005679 0.540765 0.852691 -0.188596
C7    C     C_R   0.937720 0.604222 0.909170 0.014321
C8    C     C_R   0.977293 0.695837 0.895647 -0.195820
C9    C     C_R   0.063595 0.726023 0.821635 0.041008
C10   C     C_R   0.107825 0.661459 0.759772 0.035659
C11   C     C_R   0.107668 0.818661 0.809544 -0.140833
C12   C     C_R   0.159910 0.849593 0.729417 -0.001677
C13   C     C_R   0.201338 0.784625 0.665328 -0.004070
C14   C     C_R   0.161366 0.690187 0.679228 -0.125630
C15   C     C_R   0.167246 0.943958 0.709303 0.228425
C16   C     C_R   0.223053 0.972141 0.631599 -0.155227
C17   C     C_R   0.282800 0.910916 0.573649 -0.154768
C18   C     C_R   0.281032 0.818943 0.590047 0.222515
H2    H     H_    0.998209 0.469477 0.867480 0.170849
H3    H     H_    0.936316 0.743159 0.943096 0.150716
H4    H     H_    0.226422 0.043319 0.616369 0.163936
C19   C     C_2   0.995816 0.714527 0.285893 -0.165716
C20   C     C_2   0.153847 0.667625 0.308596 0.135858
H5    H     H_    0.867105 0.709568 0.323382 0.157291
C21   C     C_2   0.979459 0.771094 0.210595 -0.065272
C22   C     C_2   0.123885 0.824484 0.184018 -0.252017
H6    H     H_    0.839675 0.773408 0.180084 0.174025
H7    H     H_    0.258806 0.827710 0.218188 0.180951
C23   C     C_2   0.775711 0.222336 0.792736 -0.080034
C24   C     C_2   0.613629 0.178346 0.815584 -0.269292
H8    H     H_    0.908301 0.210985 0.826867 0.178279
H9    H     H_    0.478109 0.189660 0.783949 0.155407
C25   C     C_2   0.789386 0.285924 0.722064 -0.112249
C26   C     C_2   0.636968 0.317469 0.679794 -0.310893
H10   H     H_    0.933031 0.308966 0.705789 0.188398
H11   H     H_    0.491797 0.297538 0.696356 0.169323
C27   C     C_2   0.775549 0.197005 0.224121 -0.163883
C28   C     C_2   0.613569 0.176645 0.181376 -0.302997
H12   H     H_    0.908905 0.165511 0.205173 0.165904
H13   H     H_    0.475807 0.202444 0.201163 0.163553
C29   C     C_2   0.782522 0.253828 0.300968 0.009187
C30   C     C_2   0.642454 0.314394 0.319634 -0.324762
H14   H     H_    0.516611 0.319980 0.280097 0.157650
O11   O     O_R   0.770210 0.079270 0.910680 -0.519968
O12   O     O_R   0.440150 0.091160 0.082270 -0.547670
O13   O     O_R   0.269970 0.914530 0.082860 -0.541069
C31   C     C_R   0.609323 0.112323 0.111139 0.738047
O14   O     O_R   0.440480 0.090100 0.911240 -0.528086
O15   O     O_R   0.270310 0.913460 0.910610 -0.525379
C32   C     C_R   0.609248 0.112305 0.883603 0.789262
O16   O     O_R   0.769870 0.080340 0.082930 -0.546231
O17   O     O_3   0.603660 0.938980 0.996790 -0.372088
V3    V     V_3+5 0.328750 0.007610 0.996740 1.511580
O18   O     O_R   0.940600 0.902510 0.911180 -0.533554
C33   C     C_R   0.107134 0.881192 0.882148 0.775300
O19   O     O_R   0.940270 0.903570 0.082200 -0.546151
C34   C     C_R   0.109058 0.883768 0.111586 0.722294
V4    V     V_3+5 0.828770 0.986010 0.996670 1.508805
O20   O     O_3   0.103730 0.054750 0.996710 -0.361826
Br1   Br    Br    0.377004 0.655943 0.238836 -0.572393
C35   C     C_2   0.949757 0.238672 0.357038 0.779809
O21   O     O_2   0.110284 0.227425 0.328374 -0.578457
O22   O     O_R   0.922315 0.233416 0.442292 -0.658129
H15   H     H_    0.046699 0.222314 0.473686 0.292325
C36   C     C_2   0.251944 0.506494 0.751115 0.741415
O23   O     O_2   0.212122 0.427254 0.736788 -0.586141
O24   O     O_R   0.442101 0.538151 0.745700 -0.646952
H16   H     H_    0.537754 0.488181 0.737072 0.287421
C37   C     C_2   0.838854 0.574829 0.985572 0.798742
O25   O     O_2   0.806394 0.494588 0.997638 -0.550298
O26   O     O_R   0.781674 0.638898 0.044015 -0.664857
H17   H     H_    0.716526 0.610506 0.093416 0.328884
Br2   Br    Br    0.087130 0.043555 0.776383 -0.588019
Br3   Br    Br    0.439733 0.756698 0.513062 -0.534684

loop_
_geom_bond_atom_site_label_1
_geom_bond_atom_site_label_2
_ccdc_geom_bond_type
C30   H14   S    
C7    C37   S    
C6    C7    A    
C2    C30   S    
C1    O6    A    
C24   C32   S    
C26   H11   S    
C12   C15   A    
C13   C14   A    
C27   C29   S    
C35   O22   S    
C15   C16   A    
C19   H5    S    
O13   V3    S    
O5    C3    A    
C17   C18   A    
C36   O24   S    
C8    H3    S    
O12   C31   A    
V2    O10   S    
O14   C32   A    
C5    C6    A    
C23   C25   S    
O16   V4    S    
O19   V4    S    
C25   C26   D    
O8    V2    S    
O26   H17   S    
O12   V3    S    
V3    O20   S    
C19   C20   D    
C27   H12   S    
O1    V2    S    
C10   C14   A    
C4    C14   S    
C3    C20   S    
O7    V1    S    
C13   C18   A    
C29   C35   S    
O9    C4    A    
H1    C17   S    
C23   H8    S    
C6    H2    S    
O14   V3    S    
O11   C32   A    
O22   H15   S    
C25   H10   S    
C18   Br3   S    
C35   O21   D    
O15   V3    S    
C5    C10   A    
C19   C21   S    
C11   C12   A    
C22   H7    S    
O4    C2    A    
C36   O23   D    
C12   C13   A    
O17   V4    S    
C16   H4    S    
O18   C33   A    
C28   H13   S    
O2    C1    A    
C16   C17   A    
C5    C36   S    
C27   C28   D    
O11   V4    S    
C24   H9    S    
O3    C4    A    
O17   V3    S    
O6    V2    S    
C37   O26   S    
O9    V2    S    
C15   Br2   S    
C9    C11   A    
C23   C24   D    
O2    V1    S    
C29   C30   D    
O1    C2    A    
O24   H16   S    
O5    V1    S    
O8    C3    A    
O15   C33   A    
C31   O16   A    
O7    V2    S    
O4    V1    S    
O3    V1    S    
V1    O10   S    
C21   H6    S    
C21   C22   D    
C22   C34   S    
O18   V4    S    
O19   C34   A    
C20   Br1   S    
C11   C33   S    
O13   C34   A    
V4    O20   S    
C7    C8    A    
C37   O25   D    
C9    C10   A    
C28   C31   S    
C8    C9    A    
C1    C26   S    
