data_mof_unit_57074.cif
_audit_creation_date              2012-12-11T15:18:04-0500
_audit_creation_method            fapswitch 2.2
_symmetry_space_group_name_H-M    P1
_symmetry_Int_Tables_number       1
_space_group_crystal_system       triclinic
_cell_length_a                    15.730633
_cell_length_b                    15.723233
_cell_length_c                    34.495938
_cell_angle_alpha                 89.803742
_cell_angle_beta                  90.232262
_cell_angle_gamma                 119.893472
_cell_volume                      7396.86500316

loop_
_atom_site_label
_atom_site_type_symbol
_atom_type_description
_atom_site_fract_x
_atom_site_fract_y
_atom_site_fract_z
_atom_type_partial_charge
C1    C     C_R   0.577744 0.441472 0.554782 0.540068
C2    C     C_R   0.479339 0.933251 0.218260 0.346099
C3    C     C_3   0.326400 0.328026 0.554107 -0.422846
C4    C     C_3   0.716940 0.179221 0.616927 -0.244586
C5    C     C_3   0.778454 0.139810 0.598479 -0.397572
C6    C     C_3   0.608152 0.040579 0.083836 -0.274284
C7    C     C_3   0.612400 0.139706 0.083588 -0.424744
C8    C     C_3   0.320089 0.366517 0.088960 -0.260929
C9    C     C_3   0.329800 0.275456 0.095678 -0.445794
C10   C     C_3   0.065958 0.692153 0.087686 -0.249874
C11   C     C_3   0.014149 0.743173 0.105501 -0.453180
C12   C     C_3   0.183585 0.481256 0.653905 0.024139
C13   C     C_R   0.481976 0.515891 0.214918 0.358814
C14   C     C_3   0.239621 0.472085 0.619604 -0.273231
C15   C     C_3   0.343156 0.560143 0.616986 -0.483681
C16   C     C_3   0.617359 0.723383 0.664289 0.030848
C17   C     C_3   0.630585 0.772482 0.624482 -0.291002
C18   C     C_3   0.601352 0.851274 0.625688 -0.473182
C19   C     C_3   0.293651 0.797217 0.617685 0.007263
C20   C     C_3   0.191230 0.757358 0.600317 -0.252605
C21   C     C_3   0.164566 0.670363 0.573636 -0.487789
C22   C     C_3   0.337009 0.694671 0.195818 0.007007
C23   C     C_3   0.254067 0.615453 0.219944 -0.238286
C24   C     C_R   0.987665 0.490393 0.209428 0.357734
C25   C     C_3   0.279361 0.539604 0.235078 -0.466428
C26   C     C_3   0.659155 0.773070 0.165741 0.008721
C27   C     C_3   0.719154 0.838389 0.199521 -0.239150
C28   C     C_3   0.757609 0.946619 0.190604 -0.471593
C29   C     C_3   0.077390 0.326798 0.167262 0.013872
C30   C     C_3   0.060481 0.250220 0.198221 -0.246282
C31   C     C_3   0.150426 0.238312 0.203190 -0.485396
C32   C     C_R   0.042339 0.446364 0.848100 -0.118192
C33   C     C_R   0.561804 0.579077 0.851741 -0.121408
C34   C     C_R   0.336008 0.834628 0.836162 -0.115267
C35   C     C_R   0.429949 0.989415 0.356963 -0.118743
C36   C     C_R   0.564173 0.571563 0.356233 -0.118310
C37   C     C_R   0.983507 0.420647 0.352079 -0.120357
C38   C     C_R   0.059144 0.452703 0.887858 -0.127177
C39   C     C_R   0.560308 0.140249 0.556109 0.544241
C40   C     C_R   0.551239 0.596313 0.890478 -0.135571
C41   C     C_R   0.329514 0.826842 0.876399 -0.126736
C42   C     C_R   0.444298 0.031088 0.393639 -0.133758
C43   C     C_R   0.588415 0.556904 0.393553 -0.133093
C44   C     C_R   0.956655 0.404443 0.390950 -0.131545
C45   C     C_R   0.086979 0.618747 0.887626 -0.137035
C46   C     C_R   0.381473 0.466264 0.888606 -0.130113
C47   C     C_R   0.478855 0.818248 0.878823 -0.131230
C48   C     C_R   0.614220 0.070589 0.392179 -0.131535
C49   C     C_R   0.457612 0.387449 0.391313 -0.132801
C50   C     C_R   0.860935 0.420981 0.555813 0.535832
C51   C     C_R   0.916135 0.534224 0.388563 -0.131956
C52   C     C_R   0.070574 0.612615 0.847735 -0.118560
C53   C     C_R   0.391881 0.449350 0.849756 -0.116311
C54   C     C_R   0.486039 0.827186 0.838426 -0.114288
C55   C     C_R   0.600161 0.029888 0.355338 -0.119536
C56   C     C_R   0.433852 0.401880 0.353849 -0.119869
C57   C     C_R   0.942661 0.550213 0.349583 -0.117166
C58   C     C_R   0.052672 0.527918 0.827390 0.037645
C59   C     C_R   0.480992 0.508460 0.830563 0.035693
C60   C     C_R   0.415342 0.836925 0.816735 0.037912
C61   C     C_R   0.442157 0.577488 0.054713 0.545061
C62   C     C_R   0.508896 0.992346 0.336858 0.036854
C63   C     C_R   0.489993 0.492798 0.335336 0.036999
C64   C     C_R   0.971893 0.490196 0.330541 0.036664
C65   C     C_R   0.087047 0.540866 0.907534 0.024232
C66   C     C_R   0.459854 0.542955 0.908703 0.022553
C67   C     C_R   0.401631 0.820314 0.898263 0.019054
C68   C     C_R   0.537458 0.075218 0.410860 0.021798
C69   C     C_R   0.538253 0.463565 0.410631 0.020578
C70   C     C_R   0.918060 0.457705 0.408921 0.020752
C71   C     C_R   0.577703 0.442374 0.445675 0.551751
C72   C     C_R   0.136011 0.558208 0.054823 0.546019
C73   C     C_R   0.557887 0.135725 0.445657 0.555696
C74   C     C_R   0.864235 0.422126 0.445542 0.553534
C75   C     C_R   0.441931 0.578149 0.945440 0.542192
C76   C     C_R   0.135954 0.557874 0.945375 0.544645
C77   C     C_R   0.391280 0.809066 0.940814 0.571376
C78   C     C_R   0.919522 0.460022 0.591843 -0.028137
C79   C     C_R   0.541108 0.464143 0.590461 -0.018903
C80   C     C_R   0.538197 0.080741 0.591945 -0.016498
C81   C     C_R   0.439831 0.889367 0.095938 -0.001384
C82   C     C_R   0.463908 0.545685 0.092145 -0.017978
C83   C     C_R   0.421360 0.862470 0.055080 0.550805
C84   C     C_R   0.076016 0.534091 0.090559 -0.027326
C85   C     C_R   0.978940 0.421646 0.604316 -0.131250
C86   C     C_R   0.604602 0.552439 0.609350 -0.140775
C87   C     C_R   0.440701 0.008014 0.599096 -0.132095
C88   C     C_R   0.368605 0.823589 0.121707 -0.113474
C89   C     C_R   0.545685 0.616309 0.112951 -0.138718
C90   C     C_R   0.050585 0.444670 0.108896 -0.136633
C91   C     C_R   0.026801 0.447810 0.640252 0.263039
C92   C     C_R   0.586670 0.570473 0.646979 0.260324
C93   C     C_R   0.414474 0.952487 0.633410 0.261161
C94   C     C_R   0.037531 0.520386 0.706346 0.341558
C95   C     C_R   0.382884 0.834358 0.161448 0.249370
C96   C     C_R   0.554703 0.607501 0.153008 0.258326
C97   C     C_R   0.016852 0.426116 0.147131 0.252767
C98   C     C_R   0.011749 0.510260 0.664984 0.007905
C99   C     C_R   0.506055 0.496647 0.667373 0.006740
C100  C     C_R   0.486156 0.972025 0.661929 0.018086
C101  C     C_R   0.467770 0.915814 0.176288 0.006428
C102  C     C_R   0.481852 0.523862 0.172265 0.025720
C103  C     C_R   0.003521 0.496755 0.166974 0.017945
C104  C     C_R   0.959874 0.554899 0.651516 -0.157651
C105  C     C_R   0.498070 0.501891 0.709762 0.342622
C106  C     C_R   0.436085 0.413443 0.647292 -0.160633
C107  C     C_R   0.583480 0.044303 0.654834 -0.161278
C108  C     C_R   0.540072 0.981723 0.150632 -0.162917
C109  C     C_R   0.406375 0.447991 0.150767 -0.163265
C110  C     C_R   0.016909 0.580604 0.147057 -0.130283
C111  C     C_R   0.912753 0.530774 0.615605 -0.019050
C112  C     C_R   0.451000 0.396626 0.608620 -0.008177
C113  C     C_R   0.610862 0.099020 0.620453 -0.017288
C114  C     C_R   0.527737 0.968673 0.110285 -0.017851
C115  C     C_R   0.398540 0.455493 0.110529 -0.003155
C116  C     C_R   0.461746 0.922375 0.700081 0.346851
C117  C     C_R   0.051823 0.600399 0.108696 -0.008840
C118  C     C_R   0.048757 0.525812 0.784763 0.339021
C119  C     C_R   0.487621 0.502634 0.788199 0.338558
C120  C     C_R   0.428252 0.857965 0.774666 0.339111
C121  C     C_R   0.498438 0.965814 0.295646 0.337372
C122  C     C_R   0.480143 0.502078 0.293331 0.334287
C123  C     C_R   0.981326 0.493357 0.288032 0.340000
C124  C     C_3   0.850468 0.577045 0.606218 -0.241934
C125  C     C_3   0.904110 0.665384 0.579265 -0.403191
C126  C     C_3   0.371271 0.304523 0.589113 -0.248730
Cr1   Cr    Cr6+3 0.522350 0.263930 0.500020 1.000712
Cr2   Cr    Cr6+3 0.736070 0.258420 0.500020 0.999886
Cr3   Cr    Cr6+3 0.741580 0.477650 0.500020 0.994503
Cr4   Cr    Cr6+3 0.263930 0.522350 0.000020 0.996257
Cr5   Cr    Cr6+3 0.258420 0.736070 0.000020 0.994963
Cr6   Cr    Cr6+3 0.477650 0.741580 0.000020 1.007403
H1    H     H_    0.987744 0.370379 0.586248 0.133983
H2    H     H_    0.383765 0.032923 0.407681 0.127136
H3    H     H_    0.797936 0.991678 0.216154 0.165365
H4    H     H_    0.695907 0.959350 0.183869 0.170255
H5    H     H_    0.144331 0.397033 0.175218 0.126254
H6    H     H_    0.089563 0.300556 0.139069 0.118786
H7    H     H_    0.043972 0.272822 0.226396 0.202135
H8    H     H_    0.996545 0.178506 0.189831 0.169700
H9    H     H_    0.169390 0.216872 0.175287 0.143586
H10   H     H_    0.134789 0.180276 0.225006 0.160531
H11   H     H_    0.213830 0.308053 0.213491 0.167946
H12   H     H_    0.650024 0.617156 0.408120 0.126791
H13   H     H_    0.960029 0.345822 0.406177 0.126170
H14   H     H_    0.950564 0.604733 0.670331 0.152409
H15   H     H_    0.371300 0.359019 0.662373 0.144010
H16   H     H_    0.638887 0.060234 0.676807 0.145812
H17   H     H_    0.605847 0.044103 0.162003 0.143574
H18   H     H_    0.351867 0.382777 0.165542 0.132443
H19   H     H_    0.004701 0.633134 0.162499 0.157373
H20   H     H_    0.026169 0.379182 0.833399 0.140342
H21   H     H_    0.671353 0.607280 0.595499 0.139913
H22   H     H_    0.631895 0.624940 0.837921 0.140348
H23   H     H_    0.280096 0.841654 0.820438 0.141257
H24   H     H_    0.358455 0.960168 0.343536 0.137915
H25   H     H_    0.607973 0.642911 0.342926 0.135969
H26   H     H_    0.007866 0.374608 0.338436 0.131354
H27   H     H_    0.106624 0.686892 0.902284 0.117467
H28   H     H_    0.310177 0.423823 0.902021 0.130893
H29   H     H_    0.534025 0.810518 0.894810 0.136135
H30   H     H_    0.686732 0.103545 0.404996 0.129714
H31   H     H_    0.417039 0.314940 0.404037 0.128809
H32   H     H_    0.384099 0.993775 0.577900 0.132234
H33   H     H_    0.887210 0.576844 0.401833 0.129792
H34   H     H_    0.076728 0.675962 0.832665 0.135933
H35   H     H_    0.328706 0.393360 0.834333 0.140710
H36   H     H_    0.547635 0.827768 0.824264 0.139732
H37   H     H_    0.661845 0.031742 0.340701 0.133491
H38   H     H_    0.375178 0.340287 0.338663 0.133644
H39   H     H_    0.934652 0.605603 0.333905 0.139346
H40   H     H_    0.969956 0.724098 0.594132 0.139000
H41   H     H_    0.927857 0.645659 0.552184 0.164122
H42   H     H_    0.854828 0.694528 0.571600 0.134157
H43   H     H_    0.302571 0.760351 0.110899 0.135770
H44   H     H_    0.778237 0.521878 0.594675 0.187214
H45   H     H_    0.832020 0.603503 0.633030 0.152418
H46   H     H_    0.290765 0.370199 0.563219 0.136321
H47   H     H_    0.382161 0.371388 0.531891 0.166685
H48   H     H_    0.269945 0.258553 0.540584 0.128826
H49   H     H_    0.399546 0.255183 0.580783 0.186787
H50   H     H_    0.310398 0.260863 0.609637 0.132060
H51   H     H_    0.776928 0.080955 0.616881 0.139830
H52   H     H_    0.750292 0.109675 0.569201 0.165496
H53   H     H_    0.855605 0.199731 0.595823 0.152497
H54   H     H_    0.600782 0.681165 0.098208 0.127241
H55   H     H_    0.723882 0.243228 0.600697 0.176116
H56   H     H_    0.747935 0.208564 0.646087 0.144603
H57   H     H_    0.541164 0.130857 0.073648 0.160366
H58   H     H_    0.629390 0.172734 0.112998 0.165299
H59   H     H_    0.670774 0.190433 0.063456 0.145286
H60   H     H_    0.679774 0.050382 0.093819 0.143668
H61   H     H_    0.597475 0.013356 0.053582 0.157596
H62   H     H_    0.405025 0.291377 0.088296 0.166102
H63   H     H_    0.313498 0.250133 0.126204 0.151585
H64   H     H_    0.276717 0.214833 0.076864 0.135787
H65   H     H_    0.061259 0.390213 0.094042 0.130523
H66   H     H_    0.246474 0.351287 0.098573 0.130906
H67   H     H_    0.324822 0.377648 0.057225 0.172503
H68   H     H_    0.935223 0.689865 0.110252 0.165555
H69   H     H_    0.049726 0.779286 0.133231 0.162331
H70   H     H_    0.019781 0.801052 0.085382 0.138365
H71   H     H_    0.145478 0.746489 0.086019 0.177891
H72   H     H_    0.036598 0.671169 0.057741 0.157397
H73   H     H_    0.214619 0.469735 0.681107 0.181282
H74   H     H_    0.196338 0.557718 0.655350 0.111191
H75   H     H_    0.243645 0.403971 0.623247 0.173814
H76   H     H_    0.057315 0.390894 0.902622 0.131344
H77   H     H_    0.199965 0.466573 0.592153 0.159747
H78   H     H_    0.340398 0.627290 0.609272 0.131015
H79   H     H_    0.385066 0.547173 0.594223 0.155807
H80   H     H_    0.381755 0.571885 0.645118 0.152930
H81   H     H_    0.660099 0.781189 0.686074 0.182747
H82   H     H_    0.539314 0.687800 0.673695 0.126347
H83   H     H_    0.708528 0.806245 0.615445 0.172646
H84   H     H_    0.584135 0.717012 0.602519 0.150679
H85   H     H_    0.522903 0.818285 0.633810 0.149869
H86   H     H_    0.612120 0.886092 0.596706 0.146611
H87   H     H_    0.613019 0.655423 0.905436 0.130084
H88   H     H_    0.647619 0.908528 0.647077 0.166358
H89   H     H_    0.293433 0.741264 0.637505 0.144143
H90   H     H_    0.345962 0.809349 0.593604 0.104553
H91   H     H_    0.136525 0.734245 0.624050 0.186749
H92   H     H_    0.188621 0.816248 0.583348 0.166971
H93   H     H_    0.217199 0.692669 0.549196 0.144519
H94   H     H_    0.089977 0.643199 0.561554 0.154936
H95   H     H_    0.165567 0.610038 0.589951 0.152255
H96   H     H_    0.405689 0.728330 0.213392 0.151097
H97   H     H_    0.347421 0.659646 0.169547 0.116135
H98   H     H_    0.268120 0.826839 0.890436 0.126153
H99   H     H_    0.237876 0.649639 0.244897 0.205114
H100  H     H_    0.187770 0.578078 0.201481 0.173545
H101  H     H_    0.296069 0.504895 0.210558 0.139291
H102  H     H_    0.216008 0.481634 0.251302 0.172308
H103  H     H_    0.343438 0.574793 0.254919 0.181052
H104  H     H_    0.591651 0.779044 0.162394 0.118239
H105  H     H_    0.704195 0.799902 0.138986 0.131486
H106  H     H_    0.672533 0.817475 0.225886 0.195098
H107  H     H_    0.782482 0.827326 0.205506 0.186295
H108  H     H_    0.808386 0.970230 0.165494 0.139917
N1    N     N_R   0.035528 0.445504 0.765019 -0.230960
N2    N     N_R   0.569452 0.979288 0.234945 -0.257184
N3    N     N_R   0.533204 0.597004 0.237131 -0.180610
N4    N     N_R   0.003520 0.427476 0.231087 -0.191103
N5    N     N_R   0.053161 0.601561 0.726029 -0.228265
N6    N     N_R   0.412022 0.443644 0.728192 -0.245803
N7    N     N_R   0.531602 0.915549 0.720906 -0.261385
N8    N     N_R   0.399196 0.903607 0.240948 -0.157795
N9    N     N_R   0.427703 0.427921 0.232750 -0.256327
N10   N     N_R   0.968816 0.555254 0.227981 -0.233723
N11   N     N_R   0.059299 0.604485 0.764474 -0.221185
N12   N     N_R   0.573605 0.560441 0.769752 -0.231722
N13   N     N_R   0.406783 0.444418 0.766663 -0.225918
N14   N     N_R   0.515174 0.883825 0.757400 -0.232628
N15   N     N_R   0.408510 0.919771 0.278875 -0.237387
N16   N     N_R   0.427165 0.421089 0.271195 -0.235305
N17   N     N_R   0.965012 0.556256 0.266494 -0.223100
N18   N     N_R   0.357315 0.862044 0.753469 -0.219425
N19   N     N_R   0.578799 0.995289 0.272978 -0.229979
N20   N     N_R   0.532927 0.590212 0.275528 -0.248512
N21   N     N_R   0.999858 0.428441 0.269524 -0.256535
N22   N     N_R   0.029439 0.442586 0.726540 -0.170722
N23   N     N_R   0.578805 0.559595 0.731350 -0.158137
N24   N     N_R   0.373664 0.893536 0.716905 -0.147269
O1    O     O_R   0.498680 0.159540 0.541860 -0.525793
O2    O     O_R   0.358060 0.532760 0.040030 -0.507287
O3    O     O_R   0.174700 0.641940 0.040030 -0.516881
O4    O     O_R   0.467240 0.825300 0.040030 -0.499141
O5    O     O_R   0.498590 0.161190 0.456930 -0.520514
O6    O     O_R   0.838810 0.337400 0.456930 -0.520008
O7    O     O_R   0.662600 0.501410 0.456930 -0.520115
O8    O     O_R   0.161190 0.498590 0.956930 -0.520645
O9    O     O_R   0.337400 0.838810 0.956930 -0.514113
O10   O     O_R   0.501410 0.662600 0.956930 -0.533698
O11   O     O_R   0.532680 0.359580 0.461300 -0.504808
O12   O     O_R   0.840460 0.339140 0.541860 -0.529814
O13   O     O_R   0.640420 0.173100 0.461300 -0.502708
O14   O     O_R   0.826900 0.467320 0.461300 -0.501956
O15   O     O_R   0.359580 0.532680 0.961300 -0.506540
O16   O     O_R   0.173100 0.640420 0.961300 -0.522814
O17   O     O_R   0.467320 0.826900 0.961300 -0.498219
O18   O     O_3   0.666667 0.333333 0.499990 -0.234466
O19   O     O_3   0.333333 0.666667 0.999990 -0.262024
O20   O     O_3   0.083473 0.407200 0.651566 -0.554031
O21   O     O_3   0.654205 0.657593 0.664344 -0.554913
O22   O     O_3   0.317572 0.882316 0.639589 -0.542712
O23   O     O_R   0.660860 0.501320 0.541860 -0.539528
O24   O     O_3   0.311139 0.765834 0.185433 -0.548872
O25   O     O_3   0.636850 0.675684 0.173513 -0.542629
O26   O     O_3   0.993509 0.337794 0.164922 -0.545349
O27   O     O_R   0.159540 0.498680 0.041860 -0.520215
O28   O     O_R   0.339140 0.840460 0.041860 -0.516743
O29   O     O_R   0.501320 0.660860 0.041860 -0.520164
O30   O     O_R   0.532760 0.358060 0.540030 -0.505233
O31   O     O_R   0.641940 0.174700 0.540030 -0.508186
O32   O     O_R   0.825300 0.467240 0.540030 -0.507742

loop_
_geom_bond_atom_site_label_1
_geom_bond_atom_site_label_2
_ccdc_geom_bond_type
C47   H29   S    
C48   C55   A    
C34   C60   A    
C118  N11   A    
C96   C102  A    
Cr2   O31   S    
C28   H3    S    
N2    N19   A    
C26   O25   S    
C8    H66   S    
C19   C20   S    
C100  C116  S    
Cr2   O18   S    
C125  H41   S    
C37   C64   A    
Cr5   O19   S    
C53   C59   A    
N8    N15   A    
C27   H107  S    
C41   C67   A    
C90   H65   S    
C106  C112  A    
C34   H23   S    
C123  N17   A    
C29   H6    S    
C19   H90   S    
C26   C27   S    
C29   C30   S    
C65   C76   S    
C38   H76   S    
Cr5   O28   S    
C103  C110  A    
Cr3   O7    S    
C123  N21   A    
C4    H55   S    
C86   H21   S    
C83   O4    A    
C3    H46   S    
C124  H45   S    
C82   C115  A    
Cr5   O9    S    
C80   C87   A    
C15   H79   S    
C61   C82   S    
C122  N16   A    
C93   O22   S    
C79   C86   A    
C23   H99   S    
C98   C104  A    
C48   H30   S    
C94   C98   S    
C95   O24   S    
C55   C62   A    
C87   C93   A    
C58   C118  S    
Cr6   O29   S    
C80   C113  A    
C69   C71   S    
C97   O26   S    
C11   H69   S    
C108  C114  A    
Cr4   O15   S    
C125  H40   S    
C35   C42   A    
C3    H47   S    
C11   H68   S    
C6    C114  S    
C2    N8    A    
N12   N23   A    
C52   H34   S    
C45   C65   A    
C53   H35   S    
C107  C113  A    
C91   C98   A    
C16   C17   S    
C67   C77   S    
C81   C114  A    
C70   C74   S    
C71   O11   A    
C116  N7    A    
C7    H58   S    
C44   C70   A    
C78   C111  A    
C51   C57   A    
C51   C70   A    
C32   C58   A    
Cr5   O3    S    
C17   H84   S    
Cr1   O1    S    
C10   H71   S    
C90   C97   A    
C112  C126  S    
C23   H100  S    
C8    C115  S    
C118  N1    A    
C13   C102  S    
C89   H54   S    
C101  C108  A    
C23   C25   S    
Cr6   O17   S    
N5    N11   A    
C88   C95   A    
C25   H101  S    
C33   C59   A    
C49   C69   A    
C14   H75   S    
C42   C68   A    
C7    H59   S    
C43   H12   S    
Cr3   O18   S    
C34   C41   A    
C84   C90   A    
C99   C105  S    
C125  H42   S    
C50   C78   S    
C110  C117  A    
C47   C67   A    
C81   C83   S    
C18   H88   S    
C121  N15   A    
C22   C23   S    
C126  H50   S    
C74   O6    A    
C21   H95   S    
C9    H64   S    
C33   C40   A    
C30   H8    S    
C76   O16   A    
C119  N13   A    
C77   O9    A    
C4    C113  S    
Cr3   O23   S    
C35   H24   S    
C44   H13   S    
C110  H19   S    
C2    C101  S    
Cr1   O11   S    
C109  C115  A    
C33   H22   S    
C8    C9    S    
C54   C60   A    
C19   H89   S    
Cr3   O32   S    
C73   O13   A    
C68   C73   S    
C19   O22   S    
C31   H11   S    
C72   O3    A    
C48   C68   A    
C106  H15   S    
C75   O15   A    
C11   H70   S    
C12   H74   S    
C37   H26   S    
C31   H9    S    
C3    H48   S    
N7    N14   A    
C15   H80   S    
C116  N24   A    
C87   H32   S    
C104  H14   S    
Cr6   O4    S    
Cr4   O19   S    
Cr4   O8    S    
C32   H20   S    
C38   C65   A    
C73   O5    A    
C30   C31   S    
C105  N23   A    
Cr6   O10   S    
C20   C21   S    
C61   O2    A    
C9    H63   S    
C17   C18   S    
C20   H92   S    
C56   C63   A    
C91   O20   S    
C71   O7    A    
C72   C84   S    
C96   O25   S    
C16   H82   S    
C88   H43   S    
C93   C100  A    
Cr5   O16   S    
C97   C103  A    
C52   C58   A    
C36   H25   S    
C121  N19   A    
Cr1   O30   S    
C102  C109  A    
C1    O30   A    
C78   C85   A    
C122  N20   A    
C94   N22   A    
C12   O20   S    
C25   H102  S    
C32   C38   A    
N1    N22   A    
C47   C54   A    
C40   H87   S    
Cr2   O12   S    
Cr3   O14   S    
C1    C79   S    
C51   H33   S    
C3    C126  S    
C50   O12   A    
C85   C91   A    
Cr2   O13   S    
C1    O23   A    
C63   C122  S    
C21   H93   S    
Cr1   O18   S    
C57   C64   A    
C26   H104  S    
C2    N2    A    
C99   C106  A    
C74   O14   A    
C100  C107  A    
C59   C119  S    
C30   H7    S    
C5    H52   S    
C14   H77   S    
C56   H38   S    
C111  C124  S    
C9    H62   S    
Cr2   O6    S    
C72   O27   A    
C36   C63   A    
N18   N24   A    
C22   O24   S    
C54   H36   S    
C92   O21   S    
C8    H67   S    
C79   C112  A    
C104  C111  A    
C83   O28   A    
C39   O1    A    
C92   C99   A    
C46   C66   A    
C6    C7    S    
C124  H44   S    
N6    N13   A    
C45   H27   S    
C15   H78   S    
C64   C123  S    
C29   H5    S    
C61   O29   A    
C13   N9    A    
C45   C52   A    
C42   H2    S    
C5    H53   S    
C28   H4    S    
C24   C103  S    
C39   C80   S    
C4    H56   S    
C89   C96   A    
C24   N10   A    
C109  H18   S    
C12   C14   S    
C75   O10   A    
C49   C56   A    
C86   C92   A    
C119  N12   A    
C12   H73   S    
C39   O31   A    
C107  H16   S    
C18   H85   S    
C26   H105  S    
C13   N3    A    
C22   H97   S    
C82   C89   A    
C31   H10   S    
C120  N18   A    
C66   C75   S    
C76   O8    A    
C46   C53   A    
C20   H91   S    
C5    H51   S    
C24   N4    A    
C35   C62   A    
Cr4   O27   S    
N3    N20   A    
C62   C121  S    
N10   N17   A    
C50   O32   A    
C16   H81   S    
C94   N5    A    
C120  N14   A    
C105  N6    A    
C49   H31   S    
C81   C88   A    
C21   H94   S    
C10   C11   S    
C84   C117  A    
C60   C120  S    
C108  H17   S    
Cr4   O2    S    
C37   C44   A    
C4    C5    S    
Cr6   O19   S    
C22   H96   S    
C41   H98   S    
C25   H103  S    
N9    N16   A    
C43   C69   A    
Cr1   O5    S    
C6    H60   S    
C27   C28   S    
C10   C117  S    
C14   C15   S    
C7    H57   S    
C36   C43   A    
C40   C66   A    
N4    N21   A    
C77   O17   A    
C16   O21   S    
C17   H83   S    
C126  H49   S    
C10   H72   S    
C29   O26   S    
C55   H37   S    
C6    H61   S    
C28   H108  S    
C46   H28   S    
C95   C101  A    
C27   H106  S    
C85   H1    S    
C124  C125  S    
C57   H39   S    
C18   H86   S    
