data_mof_unit_21839.cif
_audit_creation_date              2013-03-05T15:50:23-0500
_audit_creation_method            fapswitch 2.2
_symmetry_space_group_name_H-M    P1
_symmetry_Int_Tables_number       1
_space_group_crystal_system       triclinic
_cell_length_a                    18.366002
_cell_length_b                    25.793568
_cell_length_c                    18.213036
_cell_angle_alpha                 89.572289
_cell_angle_beta                  90.113072
_cell_angle_gamma                 89.900374
_cell_volume                      8627.69494149

loop_
_atom_site_label
_atom_site_type_symbol
_atom_site_description
_atom_site_fract_x
_atom_site_fract_y
_atom_site_fract_z
_atom_type_partial_charge
Zn1   Zn    Zn3+2 0.249990 0.293780 0.913250 0.995825
Zn2   Zn    Zn3+2 0.249990 0.706220 0.086750 0.978598
Zn3   Zn    Zn3+2 0.249990 0.706220 0.913250 0.979097
Zn4   Zn    Zn3+2 0.249990 0.293780 0.086750 0.982956
Zn5   Zn    Zn3+2 0.749990 0.793780 0.413250 0.980085
Zn6   Zn    Zn3+2 0.749990 0.206220 0.586750 0.956834
Zn7   Zn    Zn3+2 0.749990 0.206220 0.413250 0.973553
Zn8   Zn    Zn3+2 0.749990 0.793780 0.586750 0.976717
Zn9   Zn    Zn3+2 0.336760 0.206240 0.000000 0.958192
Zn10  Zn    Zn3+2 0.336760 0.793760 0.000000 0.955276
Zn11  Zn    Zn3+2 0.836760 0.706240 0.500000 0.957416
Zn12  Zn    Zn3+2 0.836760 0.293760 0.500000 0.967782
Zn13  Zn    Zn3+2 0.163250 0.206230 0.000000 0.971266
Zn14  Zn    Zn3+2 0.163250 0.793770 0.000000 0.972908
Zn15  Zn    Zn3+2 0.663250 0.706230 0.500000 0.964818
Zn16  Zn    Zn3+2 0.663250 0.293770 0.500000 1.004303
O1    O     O_3   0.249990 0.250010 0.000000 -0.488695
O2    O     O_3   0.249990 0.749990 0.000000 -0.488980
O3    O     O_3   0.749990 0.750010 0.500000 -0.487278
O4    O     O_3   0.749990 0.249990 0.500000 -0.489812
O5    O     O_R   0.335430 0.280650 0.146160 -0.634021
O6    O     O_R   0.335430 0.719350 0.853840 -0.607997
O7    O     O_R   0.335430 0.719350 0.146160 -0.642412
O8    O     O_R   0.335430 0.280650 0.853840 -0.623502
O9    O     O_R   0.835430 0.780650 0.646160 -0.633177
O10   O     O_R   0.835430 0.219350 0.353840 -0.616234
O11   O     O_R   0.835430 0.219350 0.646160 -0.660044
O12   O     O_R   0.835430 0.780650 0.353840 -0.636094
O13   O     O_R   0.164550 0.280640 0.853840 -0.646344
O14   O     O_R   0.164550 0.719360 0.146160 -0.656985
O15   O     O_R   0.164550 0.719360 0.853840 -0.633481
O16   O     O_R   0.164550 0.280640 0.146160 -0.639194
O17   O     O_R   0.664550 0.780640 0.353840 -0.654141
O18   O     O_R   0.664550 0.219360 0.646160 -0.658112
O19   O     O_R   0.664550 0.219360 0.353840 -0.638383
O20   O     O_R   0.664550 0.780640 0.646160 -0.669482
O21   O     O_R   0.396160 0.219380 0.914560 -0.653757
O22   O     O_R   0.396160 0.780620 0.085440 -0.632709
O23   O     O_R   0.396160 0.780620 0.914560 -0.670498
O24   O     O_R   0.396160 0.219380 0.085440 -0.635678
O25   O     O_R   0.896160 0.719380 0.414560 -0.651625
O26   O     O_R   0.896160 0.280620 0.585440 -0.632812
O27   O     O_R   0.896160 0.280620 0.414560 -0.674495
O28   O     O_R   0.896160 0.719380 0.585440 -0.636259
O29   O     O_R   0.103840 0.219370 0.085450 -0.664616
O30   O     O_R   0.103840 0.780630 0.914550 -0.637944
O31   O     O_R   0.103840 0.780630 0.085450 -0.630065
O32   O     O_R   0.103840 0.219370 0.914550 -0.636287
O33   O     O_R   0.603840 0.719370 0.585450 -0.638827
O34   O     O_R   0.603840 0.280630 0.414550 -0.634109
O35   O     O_R   0.603840 0.280630 0.585450 -0.615060
O36   O     O_R   0.603840 0.719370 0.414550 -0.630957
O37   O     O_R   0.310730 0.133160 0.000000 -0.652593
O38   O     O_R   0.310730 0.866840 0.000000 -0.645343
O39   O     O_R   0.810730 0.633160 0.500000 -0.652467
O40   O     O_R   0.810730 0.366840 0.500000 -0.640488
O41   O     O_R   0.249970 0.366860 0.060720 -0.642170
O42   O     O_R   0.249970 0.633140 0.939280 -0.647845
O43   O     O_R   0.249970 0.633140 0.060720 -0.644673
O44   O     O_R   0.249970 0.366860 0.939280 -0.631996
O45   O     O_R   0.749970 0.866860 0.560720 -0.617001
O46   O     O_R   0.749970 0.133140 0.439280 -0.651268
O47   O     O_R   0.749970 0.133140 0.560720 -0.648594
O48   O     O_R   0.749970 0.866860 0.439280 -0.632397
O49   O     O_R   0.189290 0.133150 0.000000 -0.630970
O50   O     O_R   0.189290 0.866850 0.000000 -0.628709
O51   O     O_R   0.689290 0.633150 0.500000 -0.634000
O52   O     O_R   0.689290 0.366850 0.500000 -0.615854
C1    C     C_R   0.389752 0.250064 0.139875 0.783836
C2    C     C_R   0.390061 0.749031 0.860705 0.794070
C3    C     C_R   0.392841 0.746582 0.137861 0.806933
C4    C     C_R   0.389743 0.250108 0.859962 0.781530
C5    C     C_R   0.889567 0.749952 0.639991 0.786725
C6    C     C_R   0.893544 0.246765 0.363332 0.841052
C7    C     C_R   0.892679 0.246715 0.638071 0.811225
C8    C     C_R   0.889299 0.749982 0.359223 0.785949
C9    C     C_R   0.106247 0.254655 0.863950 0.817177
C10   C     C_R   0.108180 0.746951 0.138474 0.803418
C11   C     C_R   0.111669 0.751058 0.858703 0.769899
C12   C     C_R   0.106244 0.253138 0.136378 0.855948
C13   C     C_R   0.606200 0.754590 0.363970 0.804082
C14   C     C_R   0.611094 0.250611 0.640835 0.780565
C15   C     C_R   0.611409 0.250886 0.359007 0.762821
C16   C     C_R   0.609939 0.751194 0.640224 0.787003
C17   C     C_R   0.250340 0.109358 0.989754 0.816216
C18   C     C_R   0.249815 0.890828 0.989390 0.810382
C19   C     C_R   0.750386 0.609343 0.489899 0.814308
C20   C     C_R   0.749812 0.390825 0.489462 0.856711
C21   C     C_R   0.250708 0.391322 0.999837 0.786814
C22   C     C_R   0.250366 0.608708 0.000264 0.767692
C23   C     C_R   0.749775 0.891324 0.499794 0.778825
C24   C     C_R   0.749792 0.108711 0.500166 0.774617
C25   C     C_3   0.195006 0.470222 0.052655 -0.422730
C26   C     C_3   0.247940 0.530054 0.921367 -0.416535
C27   C     C_3   0.188206 0.529431 0.044810 -0.441309
C28   C     C_3   0.238001 0.471125 0.922342 -0.359490
C29   C     C_3   0.704683 0.970193 0.562281 -0.368884
C30   C     C_3   0.729373 0.030163 0.424220 -0.413102
C31   C     C_3   0.699062 0.029467 0.557994 -0.444935
C32   C     C_3   0.723385 0.970963 0.426165 -0.364362
H1    H     H_    0.209052 0.460468 0.110522 0.191797
H2    H     H_    0.297446 0.540276 0.889277 0.198430
H3    H     H_    0.184095 0.547003 0.100258 0.199136
H4    H     H_    0.273548 0.453712 0.879692 0.225815
H5    H     H_    0.727835 0.959205 0.616573 0.250365
H6    H     H_    0.768726 0.041925 0.380830 0.200734
H7    H     H_    0.709226 0.045829 0.613416 0.207624
H8    H     H_    0.753043 0.954914 0.378236 0.238230
H9    H     H_    0.141404 0.452170 0.040218 0.187756
H10   H     H_    0.200448 0.547787 0.892458 0.201112
H11   H     H_    0.136750 0.539267 0.015370 0.175453
H12   H     H_    0.180777 0.461751 0.907313 0.219522
H13   H     H_    0.649132 0.953144 0.558734 0.185182
H14   H     H_    0.675531 0.046848 0.408501 0.186764
H15   H     H_    0.642554 0.040794 0.542331 0.172294
H16   H     H_    0.665213 0.959628 0.420187 0.199638
C33   C     C_3   0.332411 0.468968 0.026489 -0.057966
C34   C     C_3   0.327878 0.530589 0.037260 -0.044823
C35   C     C_3   0.834802 0.968726 0.511578 -0.066394
C36   C     C_3   0.833495 0.030851 0.518329 -0.045435
C37   C     C_3   0.254902 0.449054 0.000440 0.065410
C38   C     C_3   0.254407 0.551020 0.001211 0.095738
C39   C     C_3   0.754005 0.949068 0.499904 0.041851
C40   C     C_3   0.753812 0.051013 0.500439 0.090051
H17   H     H_    0.883886 0.171380 0.959554 0.135950
H18   H     H_    0.865086 0.754761 0.018551 0.150905
H19   H     H_    0.897880 0.665477 0.956276 0.138171
H20   H     H_    0.911521 0.124326 0.079277 0.133506
H21   H     H_    0.387051 0.665686 0.456767 0.155034
H22   H     H_    0.436088 0.115657 0.586467 0.129402
H23   H     H_    0.389713 0.181444 0.463897 0.139825
H24   H     H_    0.590750 0.575594 0.743555 0.150970
C41   C     C_R   0.100726 0.333284 0.736432 0.042354
C42   C     C_R   0.126943 0.695239 0.289408 0.037030
C43   C     C_R   0.143331 0.790680 0.705358 0.022654
C44   C     C_R   0.078813 0.344048 0.236886 0.059794
C45   C     C_R   0.599833 0.833680 0.237539 0.044229
C46   C     C_R   0.619294 0.324338 0.766465 0.010905
C47   C     C_R   0.645553 0.286882 0.204505 0.005703
C48   C     C_R   0.552705 0.849403 0.711248 -0.007897
C49   C     C_R   0.124420 0.346950 0.665575 -0.107146
C50   C     C_R   0.152517 0.701592 0.361540 -0.130531
C51   C     C_R   0.151567 0.811056 0.634176 -0.120339
C52   C     C_R   0.097335 0.370878 0.300827 -0.243383
C53   C     C_R   0.623902 0.847784 0.166992 -0.122861
C54   C     C_R   0.616249 0.360464 0.823519 -0.118528
C55   C     C_R   0.655760 0.302667 0.131266 -0.112821
C56   C     C_R   0.504200 0.891606 0.711574 -0.144052
C57   C     C_R   0.597880 0.822004 0.105644 -0.216115
C58   C     C_R   0.559800 0.359921 0.873599 -0.184808
C59   C     C_R   0.598817 0.303476 0.081779 -0.191455
C60   C     C_R   0.434501 0.885674 0.739593 -0.217116
C61   C     C_R   0.097940 0.320891 0.604662 -0.204285
C62   C     C_R   0.112250 0.730290 0.411477 -0.196133
C63   C     C_R   0.093535 0.813885 0.586066 -0.205743
C64   C     C_R   0.077327 0.351499 0.369183 -0.168648
C65   C     C_R   0.542584 0.785624 0.113449 -0.111344
C66   C     C_R   0.504541 0.323749 0.867475 -0.134533
C67   C     C_R   0.530359 0.287589 0.103486 -0.127488
C68   C     C_R   0.414592 0.838679 0.771315 -0.093121
C69   C     C_R   0.042528 0.284699 0.613187 -0.113237
C70   C     C_R   0.043211 0.748041 0.391904 -0.118137
C71   C     C_R   0.026279 0.794990 0.606873 -0.129282
C72   C     C_R   0.032737 0.308054 0.373915 -0.132914
C73   C     C_R   0.515598 0.772235 0.183680 0.087918
C74   C     C_R   0.503801 0.287307 0.809772 0.075528
C75   C     C_R   0.517063 0.269225 0.175716 0.078150
C76   C     C_R   0.461133 0.794985 0.767048 0.098751
C77   C     C_R   0.015581 0.271970 0.683668 0.090193
C78   C     C_R   0.016699 0.741270 0.319581 0.073374
C79   C     C_R   0.015127 0.772539 0.677137 0.080483
C80   C     C_R   0.009770 0.281892 0.309920 0.045103
C81   C     C_R   0.053949 0.289567 0.745652 -0.024427
C82   C     C_R   0.064952 0.724342 0.265431 -0.039033
C83   C     C_R   0.073014 0.771630 0.729193 -0.003747
C84   C     C_R   0.043694 0.294867 0.242907 0.069328
C85   C     C_R   0.553565 0.789640 0.246026 -0.025966
C86   C     C_R   0.561252 0.287246 0.757487 -0.015764
C87   C     C_R   0.574333 0.269401 0.228552 -0.005815
C88   C     C_R   0.525664 0.798445 0.726033 -0.054820
C89   C     C_R   0.452245 0.741826 0.192972 -0.206418
C90   C     C_R   0.446520 0.250918 0.804358 -0.138256
C91   C     C_R   0.446861 0.251253 0.195250 -0.140924
C92   C     C_R   0.444821 0.748317 0.803572 -0.120180
C93   C     C_R   0.951750 0.242145 0.693538 -0.202506
C94   C     C_R   0.943036 0.748886 0.300460 -0.163667
C95   C     C_R   0.946564 0.751213 0.695356 -0.140822
C96   C     C_R   0.955201 0.242893 0.310968 -0.193336
C97   C     C_R   0.439578 0.716653 0.261694 0.061823
C98   C     C_R   0.443998 0.214530 0.747155 0.069283
C99   C     C_R   0.431082 0.233611 0.266814 0.069033
C100  C     C_R   0.483666 0.702193 0.788400 0.057058
C101  C     C_R   0.938400 0.217982 0.762918 0.078252
C102  C     C_R   0.921027 0.748737 0.225400 0.075170
C103  C     C_R   0.932755 0.729665 0.765149 0.069609
C104  C     C_R   0.950804 0.207539 0.252110 0.089190
C105  C     C_R   0.980114 0.233096 0.824159 0.102175
C106  C     C_R   0.975140 0.746409 0.170234 0.088930
C107  C     C_R   0.988480 0.729416 0.818281 0.088806
C108  C     C_R   0.987884 0.218699 0.186209 0.068907
C109  C     C_R   0.480701 0.731644 0.323409 0.096629
C110  C     C_R   0.499107 0.214842 0.693457 0.088555
C111  C     C_R   0.486467 0.233648 0.320273 0.082237
C112  C     C_R   0.539590 0.703320 0.735284 0.086907
C113  C     C_R   0.043737 0.262779 0.813338 -0.231127
C114  C     C_R   0.048536 0.737903 0.191108 -0.210673
C115  C     C_R   0.057315 0.751184 0.800943 -0.138887
C116  C     C_R   0.042054 0.258156 0.185550 -0.159893
C117  C     C_R   0.543616 0.762328 0.313332 -0.230419
C118  C     C_R   0.556858 0.251048 0.698545 -0.154085
C119  C     C_R   0.557055 0.251740 0.301409 -0.137686
C120  C     C_R   0.558616 0.751161 0.701846 -0.177086
C121  C     C_R   0.388916 0.675639 0.271100 -0.086816
C122  C     C_R   0.386835 0.177852 0.742009 -0.154865
C123  C     C_R   0.361075 0.214583 0.285847 -0.144084
C124  C     C_R   0.468076 0.654802 0.824944 -0.146126
C125  C     C_R   0.886249 0.178051 0.773678 -0.120554
C126  C     C_R   0.846785 0.750181 0.203472 -0.140587
C127  C     C_R   0.864429 0.707209 0.782664 -0.147106
C128  C     C_R   0.911416 0.160451 0.257519 -0.091306
C129  C     C_R   0.370991 0.657044 0.340811 -0.145016
C130  C     C_R   0.384351 0.142530 0.684602 -0.131673
C131  C     C_R   0.346388 0.196443 0.356432 -0.136166
C132  C     C_R   0.505744 0.609546 0.807909 -0.118846
C133  C     C_R   0.867429 0.161108 0.843961 -0.157816
C134  C     C_R   0.827280 0.753328 0.129664 -0.145639
C135  C     C_R   0.852053 0.684693 0.851193 -0.137069
C136  C     C_R   0.898581 0.130230 0.195863 -0.120776
C137  C     C_R   0.900482 0.182924 0.904877 -0.157689
C138  C     C_R   0.880580 0.753027 0.075866 -0.153439
C139  C     C_R   0.907209 0.683610 0.903334 -0.166213
C140  C     C_R   0.924451 0.146334 0.127946 -0.153776
C141  C     C_R   0.402995 0.678605 0.402457 -0.177845
C142  C     C_R   0.438230 0.143006 0.631220 -0.159379
C143  C     C_R   0.400917 0.196080 0.409207 -0.144227
C144  C     C_R   0.560722 0.610630 0.755771 -0.145421
C145  C     C_R   0.956611 0.218458 0.895288 -0.119064
C146  C     C_R   0.953592 0.748319 0.095504 -0.148007
C147  C     C_R   0.974615 0.705612 0.887475 -0.151731
C148  C     C_R   0.968291 0.190232 0.122825 -0.099114
C149  C     C_R   0.457491 0.715556 0.394100 -0.112318
C150  C     C_R   0.495021 0.178617 0.635245 -0.153032
C151  C     C_R   0.470226 0.214010 0.391616 -0.143047
C152  C     C_R   0.578265 0.656947 0.720324 -0.150424
H25   H     H_    0.161997 0.378732 0.657037 0.180147
H26   H     H_    0.201186 0.681833 0.380567 0.172803
H27   H     H_    0.203760 0.825782 0.615780 0.162685
H28   H     H_    0.126166 0.407447 0.297772 0.135948
H29   H     H_    0.661329 0.879727 0.159028 0.182129
H30   H     H_    0.659541 0.388481 0.830898 0.165418
H31   H     H_    0.708487 0.315990 0.112315 0.171188
H32   H     H_    0.522428 0.930330 0.697403 0.172724
H33   H     H_    0.617592 0.832330 0.051509 0.150835
H34   H     H_    0.559510 0.387330 0.918308 0.160093
H35   H     H_    0.607747 0.316842 0.026027 0.149770
H36   H     H_    0.398205 0.918710 0.742572 0.150658
H37   H     H_    0.117466 0.330803 0.550315 0.141552
H38   H     H_    0.131814 0.734994 0.467128 0.162978
H39   H     H_    0.100879 0.830503 0.531814 0.149232
H40   H     H_    0.093582 0.371566 0.418547 0.142644
H41   H     H_    0.522235 0.767285 0.064286 0.152616
H42   H     H_    0.462193 0.324903 0.908665 0.126024
H43   H     H_    0.487940 0.290038 0.062340 0.130007
H44   H     H_    0.362162 0.836696 0.798186 0.132969
H45   H     H_    0.021925 0.266041 0.564395 0.137427
H46   H     H_    0.010896 0.766881 0.433569 0.137244
H47   H     H_    0.983000 0.798296 0.566737 0.123186
H48   H     H_    0.019005 0.294235 0.428258 0.155767
H49   H     H_    0.365241 0.655406 0.225384 0.199965
H50   H     H_    0.343411 0.176131 0.782039 0.119802
H51   H     H_    0.316985 0.213001 0.246499 0.132850
H52   H     H_    0.426965 0.651969 0.867064 0.155072
H53   H     H_    0.861799 0.157345 0.728826 0.187898
H54   H     H_    0.802386 0.747808 0.241912 0.165030
H55   H     H_    0.820036 0.706297 0.743569 0.123348
H56   H     H_    0.891838 0.145744 0.309542 0.160851
H57   H     H_    0.826604 0.131277 0.851095 0.147511
H58   H     H_    0.770376 0.755156 0.114141 0.145920
H59   H     H_    0.799675 0.667581 0.863587 0.137547
H60   H     H_    0.867190 0.094883 0.200599 0.144375
H61   H     H_    0.331773 0.626073 0.347040 0.188403
H62   H     H_    0.340308 0.114793 0.681442 0.137735
H63   H     H_    0.292643 0.182151 0.369984 0.138278
H64   H     H_    0.492702 0.573539 0.835753 0.163391
H65   H     H_    0.980581 0.235210 0.943882 0.142479
H66   H     H_    0.991959 0.743778 0.051253 0.146483
H67   H     H_    0.015838 0.702831 0.929779 0.113749
H68   H     H_    0.984000 0.202373 0.068365 0.156415
H69   H     H_    0.480541 0.731940 0.443448 0.154088
H70   H     H_    0.535520 0.177256 0.592230 0.113297
H71   H     H_    0.510721 0.211569 0.434663 0.127814
H72   H     H_    0.623838 0.655989 0.682929 0.143334
H73   H     H_    0.006262 0.052195 0.903198 0.156738
H74   H     H_    0.000794 0.958761 0.913034 0.158123
H75   H     H_    0.506507 0.552624 0.403830 0.158549
H76   H     H_    0.500448 0.459290 0.414862 0.158766
C153  C     C_R   0.381372 0.053438 0.926182 -0.138553
C154  C     C_R   0.378799 0.945778 0.922937 -0.142740
C155  C     C_R   0.882284 0.553268 0.428394 -0.135085
C156  C     C_R   0.879376 0.445696 0.424389 -0.126510
C157  C     C_R   0.443820 0.025943 0.907477 -0.147715
C158  C     C_R   0.442471 0.972269 0.905623 -0.151887
C159  C     C_R   0.945049 0.525729 0.410984 -0.152832
C160  C     C_R   0.943526 0.472094 0.408708 -0.144933
C161  C     C_R   0.315456 0.972463 0.946408 0.086431
C162  C     C_R   0.316570 0.027529 0.947451 0.085377
C163  C     C_R   0.815726 0.472405 0.447119 0.082857
C164  C     C_R   0.816971 0.527454 0.448404 0.089177
C165  C     C_R   0.249314 0.946112 0.962891 -0.207929
C166  C     C_R   0.250963 0.054671 0.962965 -0.204556
C167  C     C_R   0.749382 0.446085 0.463004 -0.210520
C168  C     C_R   0.751209 0.554665 0.463178 -0.199076
C169  C     C_R   0.182873 0.973805 0.949722 0.010113
C170  C     C_R   0.184622 0.028843 0.947628 0.011882
C171  C     C_R   0.682972 0.473864 0.449869 0.015889
C172  C     C_R   0.684914 0.528884 0.447591 0.012240
C173  C     C_R   0.116547 0.949328 0.929073 0.065404
C174  C     C_R   0.122159 0.055817 0.921115 0.061152
C175  C     C_R   0.616290 0.449529 0.429910 0.065281
C176  C     C_R   0.622513 0.555938 0.421100 0.058657
C177  C     C_R   0.051790 0.977764 0.926087 -0.198734
C178  C     C_R   0.054754 0.031275 0.920285 -0.207925
C179  C     C_R   0.551685 0.478170 0.427319 -0.191875
C180  C     C_R   0.554961 0.531625 0.420834 -0.202159
H77   H     H_    0.383992 0.094738 0.917508 0.173364
H78   H     H_    0.379160 0.904806 0.911817 0.166413
H79   H     H_    0.885328 0.594533 0.419714 0.174759
H80   H     H_    0.879793 0.404800 0.412671 0.171359
H81   H     H_    0.492475 0.046504 0.890800 0.147827
H82   H     H_    0.490016 0.951100 0.887420 0.150544
H83   H     H_    0.994123 0.546246 0.395473 0.144950
H84   H     H_    0.991366 0.450931 0.391370 0.146426
C181  C     C_1   0.117265 0.905303 0.881283 0.193399
N1    N     N_1   0.116844 0.871483 0.840216 -0.240892
C182  C     C_1   0.130069 0.099757 0.872075 0.189387
N2    N     N_1   0.136914 0.133877 0.831114 -0.210719
C183  C     C_1   0.616100 0.405527 0.382090 0.188853
N3    N     N_1   0.614641 0.371782 0.340921 -0.237479
C184  C     C_1   0.630450 0.599799 0.371916 0.195625
N4    N     N_1   0.637293 0.633873 0.330877 -0.210139
C185  C     C_1   0.356607 0.441851 0.094691 0.150964
N5    N     N_1   0.375551 0.420730 0.147714 -0.174735
C186  C     C_1   0.391460 0.557886 0.004978 0.109271
N6    N     N_1   0.441216 0.579220 0.980361 -0.236874
C187  C     C_1   0.329412 0.544949 0.116278 0.189832
N7    N     N_1   0.330570 0.555950 0.177770 -0.176153
C188  C     C_1   0.387328 0.454081 0.970600 0.127111
N8    N     N_1   0.429881 0.442622 0.926831 -0.214288
C189  C     C_1   0.867773 0.943270 0.577290 0.154340
N9    N     N_1   0.893442 0.923369 0.628341 -0.169548
C190  C     C_1   0.886611 0.056231 0.468205 0.121710
N10   N     N_1   0.927958 0.076058 0.429236 -0.223739
C191  C     C_1   0.854964 0.048458 0.592879 0.168360
N11   N     N_1   0.871697 0.062127 0.650897 -0.211117
C192  C     C_1   0.880314 0.950677 0.449299 0.144752
N12   N     N_1   0.915665 0.936515 0.400837 -0.187178
C193  C     C_2   0.115204 0.369788 0.797424 0.460971
H85   H     H_    0.086788 0.365502 0.849312 0.040235
O53   O     O_2   0.158416 0.405360 0.790121 -0.603827
C194  C     C_2   0.152135 0.649010 0.248296 0.463244
H86   H     H_    0.120795 0.635133 0.201815 0.051210
O54   O     O_2   0.207292 0.625596 0.266152 -0.607667
C195  C     C_2   0.211367 0.790078 0.749278 0.416490
H87   H     H_    0.213371 0.805173 0.804458 0.035323
O55   O     O_2   0.267735 0.773793 0.722389 -0.576839
C196  C     C_2   0.088130 0.372105 0.166146 0.425283
H88   H     H_    0.123460 0.405598 0.163617 0.039717
O56   O     O_2   0.054218 0.359776 0.111263 -0.611905
C197  C     C_2   0.613276 0.870001 0.298986 0.460655
H89   H     H_    0.585282 0.864851 0.350955 0.024985
O57   O     O_2   0.654936 0.906511 0.291888 -0.608787
C198  C     C_2   0.686778 0.325988 0.722139 0.365352
H90   H     H_    0.718992 0.291301 0.714329 0.078256
O58   O     O_2   0.708736 0.366977 0.696565 -0.564252
C199  C     C_2   0.711934 0.291072 0.250944 0.438361
H91   H     H_    0.710075 0.306390 0.305908 0.043731
O59   O     O_2   0.771375 0.278765 0.226541 -0.569471
C200  C     C_2   0.630446 0.862134 0.722911 0.457660
H92   H     H_    0.665586 0.835140 0.752254 0.090418
O60   O     O_2   0.655461 0.903730 0.703233 -0.615944

loop_
_geom_bond_atom_site_label_1
_geom_bond_atom_site_label_2
_geom_bond_distance
_ccdc_geom_bond_type
C170  C174  1.422448 A    
C65   H41   1.082029 S    
C193  H85   1.085494 S    
C106  C114  1.416143 A    
C22   C38   1.489667 S    
C13   C117  1.484536 S    
C83   C115  1.435505 A    
C61   H37   1.082436 S    
C183  N3    1.153374 T    
C181  N1    1.153349 T    
O26   C7    1.294486 A    
C162  C166  1.422381 A    
C175  C183  1.435797 S    
C25   C37   1.556405 S    
C78   C82   1.398984 A    
O30   C11   1.284065 A    
C58   H34   1.082360 S    
C198  H90   1.082202 S    
C154  C158  1.391002 A    
Zn12  O26   1.926309 S    
C122  C130  1.392658 A    
C104  C128  1.417639 A    
C54   C58   1.382214 A    
C105  C145  1.415137 A    
C50   H26   1.083222 S    
C42   C82   1.428511 A    
C29   H5    1.110237 S    
C145  H65   1.081055 S    
C108  C116  1.424452 A    
C99   C111  1.406693 A    
O11   C7    1.275560 A    
O34   C15   1.281818 A    
C36   C190  1.486747 S    
C151  H71   1.081013 S    
C175  C179  1.397173 A    
C56   H32   1.083508 S    
C179  C180  1.384395 A    
C174  C182  1.445455 S    
Zn1   O44   1.947126 S    
C25   H1    1.111472 S    
C60   H36   1.082728 S    
C165  C169  1.431799 A    
Zn2   O43   1.947127 S    
H23   C143  1.082810 S    
C157  C158  1.385371 A    
Zn5   O48   1.947126 S    
C61   C69   1.390341 A    
Zn6   O47   1.947127 S    
C124  C132  1.393175 A    
Zn7   O46   1.940263 S    
C42   C194  1.486392 S    
O16   C12   1.298260 A    
C159  C160  1.384703 A    
Zn16  O4    1.951099 S    
C55   H31   1.084292 S    
H73   C178  1.084398 S    
C112  C120  1.416640 A    
Zn1   O13   1.936145 S    
C100  C112  1.412528 A    
C26   C28   1.531195 S    
H24   C144  1.082632 S    
C143  C151  1.392243 A    
Zn4   O16   1.936778 S    
C26   C38   1.559663 S    
C27   C38   1.555149 S    
C28   H4    1.112449 S    
C137  C145  1.390977 A    
C158  H82   1.082917 S    
Zn6   O4    1.935022 S    
Zn9   O21   1.930452 S    
C166  C170  1.417968 A    
C147  H67   1.081059 S    
C130  C142  1.388629 A    
C148  H68   1.077917 S    
C171  C175  1.424880 A    
C36   C191  1.487613 S    
C199  H91   1.079530 S    
C17   C166  1.496047 S    
C35   C39   1.583440 S    
C30   H6    1.112815 S    
Zn10  O22   1.926309 S    
C84   C116  1.415489 A    
O25   C8    1.281391 A    
Zn13  O29   1.934112 S    
C132  H64   1.082283 S    
Zn10  O2    1.954607 S    
C11   C115  1.448808 S    
C48   C88   1.429789 A    
C67   C75   1.416671 A    
O29   C12   1.277869 A    
C68   C76   1.416002 A    
C47   C87   1.451700 A    
C149  H69   1.081847 S    
C182  N2    1.156643 T    
C46   C198  1.480997 S    
C26   H2    1.112860 S    
C177  C178  1.384668 A    
C82   C114  1.427085 A    
O37   C17   1.282642 A    
C90   C98   1.408215 A    
O48   C23   1.274089 A    
C200  H92   1.085569 S    
C41   C81   1.427908 A    
C126  C134  1.392234 A    
C135  C139  1.387258 A    
C44   C84   1.427688 A    
C123  H51   1.081305 S    
C189  N9    1.157826 T    
C167  C171  1.432318 A    
C73   C85   1.408085 A    
C3    C89   1.485333 S    
C190  N10   1.157581 T    
C74   C90   1.414876 A    
Zn16  O35   1.930702 S    
C103  C127  1.418918 A    
Zn15  O33   1.934112 S    
C30   C40   1.557952 S    
Zn7   O10   1.936736 S    
C28   C37   1.558582 S    
O33   C16   1.301415 A    
C53   H29   1.083036 S    
H17   C137  1.081818 S    
C134  H58   1.082978 S    
O40   C20   1.290866 A    
C57   H33   1.082572 S    
C110  C150  1.420371 A    
C86   C118  1.430235 A    
C157  H81   1.082752 S    
C34   C38   1.586959 S    
C88   C120  1.433289 A    
C69   H45   1.081746 S    
C66   H42   1.082208 S    
Zn5   O17   1.936145 S    
C49   H25   1.083044 S    
C62   H38   1.082442 S    
C69   C77   1.413276 A    
C43   C51   1.403829 A    
C25   C27   1.537664 S    
C23   C39   1.491589 S    
C111  C119  1.420552 A    
C121  C129  1.394091 A    
C109  C117  1.413174 A    
C194  H86   1.085993 S    
C27   H3    1.112657 S    
C103  C107  1.407097 A    
C32   H8    1.112002 S    
Zn8   O3    1.948736 S    
C65   C73   1.413350 A    
O38   C18   1.291042 A    
C98   C110  1.408837 A    
C63   C71   1.381340 A    
C134  C138  1.386471 A    
O5    C1    1.276687 A    
C59   C67   1.380713 A    
O32   C9    1.291259 A    
C52   C64   1.388506 A    
C55   C59   1.379300 A    
C63   H39   1.082888 S    
C51   C63   1.379925 A    
Zn15  O51   1.943911 S    
Zn11  O28   1.931059 S    
C50   C62   1.390280 A    
C97   C121  1.419717 A    
C142  C150  1.393203 A    
C156  C163  1.419808 A    
C2    C92   1.448780 S    
C12   C116  1.487957 S    
C1    C91   1.454167 S    
C161  C162  1.420826 A    
C72   C80   1.415131 A    
O8    C4    1.274201 A    
C153  H77   1.076939 S    
Zn9   O1    1.951403 S    
C129  C141  1.386802 A    
C94   C102  1.424845 A    
C56   C60   1.387282 A    
C107  C147  1.421369 A    
O50   C18   1.287237 A    
C169  C173  1.424188 A    
C44   C196  1.483353 S    
C30   H14   1.113818 S    
Zn1   O1    1.935023 S    
Zn13  O1    1.954303 S    
Zn2   O14   1.938649 S    
C129  H61   1.082037 S    
C125  H53   1.077094 S    
C29   C39   1.555553 S    
C33   C34   1.604978 S    
C49   C61   1.388960 A    
C102  C106  1.416134 A    
C135  H59   1.082598 S    
C46   C54   1.402024 A    
C161  C165  1.424426 A    
C198  O58   1.221566 D    
O9    C5    1.275613 A    
O39   C19   1.281703 A    
O36   C13   1.289808 A    
C43   C195  1.482314 S    
C154  C161  1.418968 A    
C35   C189  1.488015 S    
O13   C9    1.277168 A    
Zn1   O8    1.938606 S    
C67   H43   1.081363 S    
H20   C140  1.082347 S    
Zn2   O7    1.936100 S    
C68   H44   1.082121 S    
C153  C157  1.391689 A    
Zn3   O6    1.936736 S    
O18   C14   1.272302 A    
O31   C10   1.296371 A    
O6    C2    1.269672 A    
C80   C84   1.409773 A    
C125  C133  1.393901 A    
C31   C40   1.554420 S    
C197  O57   1.220691 D    
C18   C165  1.502005 S    
C75   C87   1.424242 A    
C160  H84   1.082449 S    
C105  C113  1.411448 A    
C32   H16   1.113504 S    
C130  H62   1.082564 S    
C45   C197  1.485396 S    
C191  N11   1.157594 T    
Zn14  O30   1.931311 S    
C136  H60   1.082568 S    
Zn15  O3    1.954303 S    
C72   H48   1.079953 S    
Zn11  O3    1.951403 S    
O41   C21   1.271814 A    
C176  C180  1.391140 A    
C45   C53   1.405168 A    
Zn16  O34   1.931311 S    
C24   C40   1.489899 S    
C31   H15   1.113705 S    
C150  H70   1.082069 S    
Zn2   O2    1.935022 S    
C48   C200  1.480875 S    
C128  C136  1.391719 A    
Zn8   O20   1.936778 S    
C196  H88   1.082098 S    
C106  C146  1.417152 A    
C99   C123  1.419711 A    
C89   C97   1.425440 A    
C133  H57   1.082598 S    
H76   C179  1.084681 S    
C195  H87   1.081076 S    
C92   C100  1.415444 A    
C74   C86   1.422721 A    
C71   C79   1.416100 A    
C6    C96   1.485650 S    
C47   C199  1.486989 S    
C171  C172  1.419958 A    
C193  O53   1.220869 D    
Zn8   O9    1.932316 S    
C121  H49   1.077287 S    
C194  O54   1.220796 D    
C112  C152  1.418499 A    
C62   C70   1.392214 A    
C131  H63   1.082600 S    
C174  C178  1.391508 A    
C163  C164  1.420516 A    
O7    C3    1.276574 A    
C107  C115  1.419367 A    
C188  N8    1.157071 T    
O19   C15   1.273340 A    
O44   C21   1.274803 A    
C26   H10   1.113743 S    
Zn9   O24   1.931059 S    
C133  C137  1.387056 A    
Zn6   O18   1.938649 S    
C91   C99   1.408197 A    
Zn10  O23   1.933862 S    
C101  C125  1.420466 A    
C108  C148  1.418896 A    
C34   C186  1.484732 S    
C42   C50   1.405132 A    
C184  N4    1.156662 T    
C70   C78   1.415588 A    
H74   C177  1.084623 S    
C78   C94   1.409388 A    
Zn15  O36   1.926562 S    
O15   C11   1.272100 A    
O42   C22   1.272933 A    
Zn4   O1    1.948736 S    
C30   C32   1.531284 S    
Zn9   O37   1.945480 S    
C200  O60   1.219548 D    
O12   C8    1.268825 A    
C136  C140  1.386984 A    
Zn11  O39   1.945480 S    
C66   C74   1.415252 A    
C70   H46   1.081900 S    
C19   C168  1.495429 S    
C20   C167  1.501193 S    
C155  H79   1.076459 S    
C58   C66   1.384677 A    
C71   H47   1.081650 S    
C35   C36   1.608215 S    
C16   C120  1.467069 S    
Zn5   O3    1.935023 S    
C31   H7    1.112523 S    
C41   C49   1.405357 A    
C172  C176  1.422406 A    
C32   C39   1.556759 S    
C34   C187  1.488960 S    
C132  C144  1.387629 A    
C159  H83   1.082881 S    
C44   C52   1.400766 A    
C76   C88   1.404810 A    
C33   C185  1.487762 S    
C169  C170  1.420275 A    
C21   C37   1.491368 S    
H22   C142  1.082615 S    
C156  H80   1.077813 S    
C163  C167  1.424988 A    
O28   C5    1.278848 A    
C35   C192  1.487377 S    
Zn3   O42   1.940263 S    
C173  C177  1.396985 A    
Zn7   O4    1.948737 S    
O21   C4    1.272146 A    
C81   C113  1.421609 A    
C127  C135  1.391939 A    
C57   C65   1.390689 A    
C53   C57   1.388928 A    
C156  C160  1.390865 A    
C186  N6    1.156967 T    
C60   C68   1.388822 A    
C128  H56   1.080454 S    
H75   C180  1.084410 S    
Zn14  O2    1.951099 S    
C104  C108  1.409259 A    
C48   C56   1.405463 A    
C10   C114  1.474805 S    
C102  C126  1.420404 A    
Zn13  O49   1.943911 S    
C185  N5    1.157855 T    
C28   H12   1.112970 S    
C47   C55   1.404753 A    
C54   H30   1.084222 S    
H18   C138  1.082012 S    
C80   C96   1.421250 A    
C33   C188  1.486411 S    
Zn12  O27   1.933862 S    
C9    C113  1.484521 S    
C155  C164  1.419824 A    
C111  C151  1.423432 A    
C87   C119  1.436010 A    
C154  H78   1.077529 S    
C109  C149  1.416474 A    
Zn3   O2    1.948737 S    
C139  C147  1.392649 A    
C85   C117  1.421558 A    
C33   C37   1.587091 S    
C36   C40   1.584703 S    
C152  H72   1.080490 S    
C75   C91   1.416078 A    
C192  N12   1.157692 T    
C173  C181  1.435966 S    
C76   C92   1.404034 A    
O46   C24   1.271345 A    
O47   C24   1.274268 A    
C155  C159  1.391345 A    
C146  H66   1.078505 S    
Zn8   O45   1.940261 S    
O27   C6    1.283549 A    
C126  H54   1.077330 S    
C195  O55   1.221317 D    
Zn12  O4    1.954607 S    
C7    C93   1.484892 S    
C110  C118  1.417753 A    
C127  H55   1.081807 S    
C29   C31   1.533601 S    
C122  H50   1.082355 S    
C199  O59   1.221837 D    
O24   C1    1.278682 A    
C97   C109  1.409793 A    
C79   C83   1.423156 A    
C168  C172  1.417581 A    
H21   C141  1.082494 S    
O43   C22   1.272776 A    
C43   C83   1.448778 A    
Zn4   O41   1.940261 S    
Zn3   O15   1.932358 S    
C176  C184  1.445514 S    
Zn5   O12   1.938606 S    
Zn6   O11   1.936100 S    
H19   C139  1.082615 S    
Zn14  O50   1.945523 S    
C98   C122  1.417879 A    
O35   C14   1.273683 A    
C96   C104  1.414832 A    
Zn12  O40   1.943869 S    
C131  C143  1.386695 A    
Zn16  O52   1.945523 S    
C141  C149  1.391047 A    
C51   H27   1.084445 S    
C52   H28   1.083623 S    
O52   C20   1.286960 A    
C41   C193  1.485457 S    
C138  C146  1.392011 A    
C29   H13   1.113654 S    
C46   C86   1.443483 A    
C153  C162  1.419086 A    
C8    C94   1.457685 S    
C59   H35   1.082794 S    
C197  H89   1.085433 S    
O22   C3    1.293822 A    
C77   C81   1.408049 A    
C95   C103  1.407219 A    
Zn7   O19   1.932358 S    
C93   C101  1.426635 A    
C123  C131  1.391832 A    
Zn13  O32   1.926562 S    
O49   C17   1.291806 A    
Zn14  O31   1.930702 S    
O51   C19   1.292344 A    
C79   C95   1.414093 A    
C73   C89   1.414087 A    
C144  C152  1.392310 A    
C77   C93   1.414355 A    
C27   H11   1.113603 S    
Zn4   O5    1.932316 S    
O20   C16   1.264103 A    
C101  C105  1.409665 A    
O10   C6    1.293374 A    
O23   C2    1.284652 A    
C100  C124  1.417385 A    
Zn11  O25   1.930452 S    
Zn10  O38   1.943869 S    
C196  O56   1.221153 D    
C5    C95   1.452625 S    
O14   C10   1.262253 A    
C164  C168  1.422993 A    
C45   C85   1.427466 A    
C64   C72   1.391363 A    
C25   H9    1.113361 S    
C140  C148  1.393193 A    
C14   C118  1.449618 S    
C187  N7    1.157551 T    
O17   C13   1.278834 A    
C124  H52   1.079612 S    
C15   C119  1.446705 S    
O45   C23   1.272413 A    
C64   H40   1.082495 S    
C4    C90   1.455099 S    
