data_mof_unit_66396.cif
_audit_creation_date              2012-12-10T17:23:30-0500
_audit_creation_method            fapswitch 2.2
_symmetry_space_group_name_H-M    P1
_symmetry_Int_Tables_number       1
_space_group_crystal_system       triclinic
_cell_length_a                    18.852603
_cell_length_b                    18.796012
_cell_length_c                    18.79323
_cell_angle_alpha                 109.321306
_cell_angle_beta                  109.529757
_cell_angle_gamma                 109.358135
_cell_volume                      5139.32882129

loop_
_atom_site_label
_atom_site_type_symbol
_atom_type_description
_atom_site_fract_x
_atom_site_fract_y
_atom_site_fract_z
_atom_type_partial_charge
C1    C     C_R   0.381494 0.500339 0.381206 0.879369
C2    C     C_R   0.771080 0.831345 0.539078 -0.085642
C3    C     C_3   0.756569 0.902507 0.583256 -0.440270
C4    C     C_3   0.689625 0.833654 0.589036 0.808833
C5    C     C_R   0.242214 0.421287 0.244654 0.340620
C6    C     C_R   0.179166 0.420853 0.177615 0.044065
C7    C     C_R   0.184833 0.500769 0.187560 -0.210970
C8    C     C_R   0.255032 0.580674 0.261151 0.350040
C9    C     C_R   0.322407 0.580462 0.322247 0.076875
C10   C     C_R   0.314750 0.500772 0.314267 -0.183380
C11   C     C_R   0.324152 0.248247 0.509309 0.138787
C12   C     C_R   0.621887 0.618587 0.503026 0.808596
C13   C     C_R   0.260156 0.186111 0.511297 -0.257825
C14   C     C_R   0.185420 0.190130 0.503735 -0.247515
C15   C     C_R   0.174425 0.258400 0.495330 0.415076
C16   C     C_R   0.235752 0.318259 0.488604 0.379115
C17   C     C_R   0.311951 0.314442 0.497754 -0.217270
C18   C     C_R   0.750347 0.488738 0.672204 -0.197840
C19   C     C_R   0.815071 0.487168 0.733855 0.419855
C20   C     C_R   0.814460 0.497246 0.811647 -0.144868
C21   C     C_R   0.748342 0.506005 0.824852 -0.248222
C22   C     C_R   0.683032 0.506746 0.762398 0.172124
C23   C     C_R   0.618308 0.499397 0.618929 0.794441
C24   C     C_R   0.684792 0.498650 0.685855 -0.118169
C25   C     C_R   0.999539 0.880571 0.381012 0.776561
C26   C     C_R   0.881653 0.881794 0.500294 0.823438
C27   C     C_R   0.999266 0.118252 0.618915 0.809656
C28   C     C_R   0.118709 0.120672 0.501592 0.799672
C29   C     C_R   0.000094 0.618685 0.118668 0.875326
C30   C     C_R   0.118551 0.500417 0.119394 0.812735
C31   C     C_R   0.000867 0.381369 0.882113 0.779708
C32   C     C_R   0.881367 0.498956 0.880111 0.773971
C33   C     C_R   0.991011 0.816135 0.237342 0.079537
C34   C     C_R   0.380512 0.381236 0.499265 0.807238
C35   C     C_R   0.991319 0.752019 0.173352 0.117231
C36   C     C_R   0.000747 0.685476 0.185643 -0.136062
C37   C     C_R   0.011634 0.682804 0.261932 0.082026
C38   C     C_R   0.009934 0.745360 0.325994 0.363085
C39   C     C_R   0.999035 0.812657 0.313777 -0.223274
C40   C     C_R   0.920566 0.181802 0.677109 0.165145
C41   C     C_R   0.922603 0.246255 0.742905 -0.257422
C42   C     C_R   0.001724 0.314680 0.815910 -0.042102
C43   C     C_R   0.080382 0.318958 0.824534 0.177198
C44   C     C_R   0.078044 0.253014 0.759521 -0.256990
C45   C     C_R   0.712862 0.770420 0.543856 -0.036878
C46   C     C_R   0.998823 0.184951 0.685912 -0.038489
C47   C     C_R   0.693505 0.684328 0.507057 -0.306478
C48   C     C_R   0.742879 0.663389 0.468623 0.410701
C49   C     C_R   0.800341 0.726250 0.459871 0.388125
C50   C     C_R   0.816192 0.812892 0.497844 -0.217237
Cu1   Cu    Cu3+1 0.499970 0.561780 0.561770 1.032913
Cu2   Cu    Cu3+1 0.500030 0.438220 0.438230 1.036007
Cu3   Cu    Cu3+1 0.061810 0.000000 0.561760 0.998497
Cu4   Cu    Cu3+1 0.938190 0.000070 0.438240 0.994341
Cu5   Cu    Cu3+1 0.938200 0.438300 0.000110 1.003903
Cu6   Cu    Cu3+1 0.061800 0.561880 0.000070 1.029123
H1    H     H_    0.268347 0.133894 0.518193 0.177163
H2    H     H_    0.751157 0.481860 0.612921 0.180541
H3    H     H_    0.748131 0.512882 0.884380 0.156913
H4    H     H_    0.862263 0.243570 0.736345 0.155363
H5    H     H_    0.138108 0.255314 0.765597 0.151907
H6    H     H_    0.814926 0.955057 0.646985 0.204833
H7    H     H_    0.727760 0.924332 0.538719 0.175381
O1    O     O_R   0.409790 0.552170 0.461990 -0.561235
O2    O     O_R   0.947790 0.909920 0.357650 -0.594524
O3    O     O_R   0.962030 0.909820 0.552150 -0.570126
O4    O     O_R   0.857630 0.909880 0.447840 -0.580645
O5    O     O_R   0.052210 0.090150 0.642360 -0.595054
O6    O     O_R   0.947820 0.090210 0.538040 -0.556678
O7    O     O_R   0.142360 0.090190 0.552160 -0.581796
O8    O     O_R   0.037970 0.090250 0.447850 -0.570667
O9    O     O_R   0.947800 0.538090 0.090240 -0.573645
O10   O     O_R   0.052170 0.642450 0.090210 -0.569998
O11   O     O_R   0.038000 0.447920 0.090280 -0.547907
O12   O     O_R   0.409840 0.447810 0.357660 -0.546169
O13   O     O_R   0.142370 0.552280 0.090250 -0.573992
O14   O     O_R   0.947830 0.357730 0.909970 -0.588968
O15   O     O_R   0.052200 0.462090 0.909940 -0.555522
O16   O     O_R   0.857630 0.447900 0.909930 -0.587846
O17   O     O_R   0.962000 0.552260 0.909900 -0.566206
O18   O     O_R   0.590140 0.642360 0.552170 -0.577868
O19   O     O_R   0.590190 0.538010 0.447840 -0.575830
O20   O     O_R   0.590160 0.552190 0.642340 -0.554721
O21   O     O_R   0.590210 0.447830 0.538010 -0.597278
O22   O     O_R   0.409810 0.461990 0.552160 -0.583445
O23   O     O_R   0.409860 0.357640 0.447830 -0.539963
O24   O     O_R   0.052180 0.909860 0.461960 -0.568402
O25   O     O_3   0.736827 0.582851 0.438569 -0.642353
H8    H     H_    0.731395 0.562473 0.479819 0.326314
N1    N     N_3   0.398962 0.660528 0.393657 -0.500740
H9    H     H_    0.450804 0.663166 0.383509 0.201422
H10   H     H_    0.394949 0.715019 0.395140 0.290136
N2    N     N_3   0.402105 0.245167 0.519940 -0.538944
H11   H     H_    0.398798 0.189737 0.523115 0.223028
H12   H     H_    0.453377 0.298590 0.579986 0.198731
O26   O     O_3   0.104861 0.269084 0.493389 -0.648403
H13   H     H_    0.083529 0.243873 0.525623 0.318848
O27   O     O_3   0.218891 0.379829 0.473917 -0.649575
H14   H     H_    0.252910 0.402973 0.448731 0.322725
O28   O     O_3   0.875609 0.473851 0.714291 -0.703476
H15   H     H_    0.906423 0.456439 0.753117 0.323464
N3    N     N_3   0.614251 0.513957 0.775498 -0.544996
H16   H     H_    0.557148 0.454452 0.730235 0.202558
H17   H     H_    0.625093 0.523487 0.837075 0.218123
N4    N     N_3   0.985470 0.885567 0.224106 -0.579463
H18   H     H_    0.925843 0.880692 0.214623 0.255241
H19   H     H_    0.036233 0.945179 0.278504 0.236109
O29   O     O_3   0.838967 0.700164 0.413688 -0.667138
H20   H     H_    0.856450 0.740774 0.392233 0.288781
N5    N     N_3   0.980313 0.753109 0.094386 -0.559468
H21   H     H_    0.921264 0.750736 0.063880 0.235918
H22   H     H_    0.030284 0.811676 0.110428 0.256839
N6    N     N_3   0.024982 0.615914 0.274320 -0.558983
H23   H     H_    0.084421 0.645436 0.330815 0.260184
H24   H     H_    0.975805 0.581158 0.283396 0.275417
O30   O     O_3   0.019849 0.737986 0.399048 -0.690201
H25   H     H_    0.991568 0.764705 0.425280 0.355511
N7    N     N_3   0.838959 0.112509 0.602443 -0.576498
H26   H     H_    0.809020 0.139732 0.571235 0.237126
H27   H     H_    0.800022 0.083263 0.624271 0.215961
N8    N     N_3   0.161813 0.389478 0.899490 -0.550688
H28   H     H_    0.164941 0.382673 0.953260 0.195621
H29   H     H_    0.213556 0.385158 0.893327 0.222548
O31   O     O_3   0.714236 0.852463 0.675082 -0.695072
H30   H     H_    0.669558 0.803364 0.672080 0.353698
O32   O     O_3   0.603416 0.813628 0.541325 -0.713584
H31   H     H_    0.590601 0.800333 0.481256 0.294642
O33   O     O_3   0.234230 0.345644 0.244998 -0.717929
H32   H     H_    0.171977 0.304816 0.219805 0.338719
N9    N     N_3   0.111046 0.340768 0.098415 -0.536108
H33   H     H_    0.124725 0.290326 0.092331 0.234370
H34   H     H_    0.111672 0.348523 0.046030 0.198535
O34   O     O_3   0.259833 0.659542 0.274986 -0.716861
H35   H     H_    0.200504 0.650683 0.247198 0.329261

loop_
_geom_bond_atom_site_label_1
_geom_bond_atom_site_label_2
_ccdc_geom_bond_type
C40   N7    S    
Cu5   Cu6   S    
N2    H11   S    
Cu6   O13   S    
C31   C42   S    
C41   C42   A    
C19   C20   A    
C6    N9    S    
Cu2   O12   S    
O33   H32   S    
Cu1   O22   S    
Cu6   O15   S    
C7    C8    A    
Cu4   O2    S    
Cu3   Cu4   S    
O30   H25   S    
C40   C46   A    
N4    H19   S    
C29   C36   S    
C33   C39   A    
C23   O20   A    
C18   C24   A    
C26   O4    A    
C29   O10   A    
C36   C37   A    
C21   H3    S    
C26   C50   S    
C5    C6    A    
Cu5   O14   S    
C37   N6    S    
C15   C16   A    
C25   O24   A    
Cu5   O16   S    
O29   H20   S    
C4    O31   S    
C18   C19   A    
C34   O23   A    
Cu2   O21   S    
Cu3   O5    S    
N5    H21   S    
C27   O5    A    
C2    C50   A    
N7    H26   S    
Cu5   O11   S    
C18   H2    S    
C11   C17   A    
Cu4   O8    S    
C35   C36   A    
C8    C9    A    
C23   C24   S    
C48   O25   S    
C9    C10   A    
C43   N8    S    
Cu5   O9    S    
C27   O6    A    
C29   O9    A    
C11   N2    S    
N2    H12   S    
C7    C30   S    
C21   C22   A    
C17   C34   S    
C12   C47   S    
Cu3   O7    S    
C44   C46   A    
C31   O14   A    
C49   O29   S    
N7    H27   S    
C4    C45   S    
C45   C47   A    
C2    C45   A    
C23   O21   A    
Cu1   O1    S    
Cu1   Cu2   S    
C26   O3    A    
C25   O2    A    
C15   O26   S    
C16   C17   A    
Cu4   O4    S    
C34   O22   A    
C1    O12   A    
N9    H34   S    
C43   C44   A    
C37   C38   A    
C32   O17   A    
C38   O30   S    
N1    H10   S    
C47   C48   A    
C4    O32   S    
O26   H13   S    
C12   O19   A    
Cu3   O24   S    
O25   H8    S    
Cu2   O19   S    
Cu3   O3    S    
N8    H28   S    
C35   N5    S    
C27   C46   S    
C40   C41   A    
C49   C50   A    
O34   H35   S    
C22   C24   A    
C28   O8    A    
C30   O13   A    
C3    C4    S    
C1    O1    A    
Cu1   O20   S    
C31   O15   A    
N6    H23   S    
C20   C32   S    
C3    H6    S    
Cu1   O18   S    
C48   C49   A    
Cu6   O10   S    
C8    O34   S    
C28   O7    A    
C1    C10   S    
C41   H4    S    
C22   N3    S    
C9    N1    S    
C19   O28   S    
C6    C7    A    
C3    H7    S    
C44   H5    S    
N4    H18   S    
Cu6   O17   S    
C33   N4    S    
N3    H17   S    
Cu2   O23   S    
N9    H33   S    
C5    C10   A    
C25   C39   S    
C32   O16   A    
C11   C13   A    
C16   O27   S    
N1    H9    S    
C38   C39   A    
Cu4   O6    S    
O32   H31   S    
C30   O11   A    
C5    O33   S    
O28   H15   S    
C33   C35   A    
C12   O18   A    
C2    C3    S    
N3    H16   S    
N5    H22   S    
N8    H29   S    
C13   H1    S    
C20   C21   A    
O27   H14   S    
C42   C43   A    
C14   C15   A    
C14   C28   S    
C13   C14   A    
O31   H30   S    
N6    H24   S    
