data_mof_unit_65165.cif
_audit_creation_date              2013-03-05T16:34:40-0500
_audit_creation_method            fapswitch 2.2
_symmetry_space_group_name_H-M    P1
_symmetry_Int_Tables_number       1
_space_group_crystal_system       triclinic
_cell_length_a                    35.532274
_cell_length_b                    35.528499
_cell_length_c                    23.528791
_cell_angle_alpha                 90.001032
_cell_angle_beta                  90.000312
_cell_angle_gamma                 89.822589
_cell_volume                      29702.8000921

loop_
_atom_site_label
_atom_site_type_symbol
_atom_site_description
_atom_site_fract_x
_atom_site_fract_y
_atom_site_fract_z
_atom_type_partial_charge
O1    O     O_R   0.031300 0.444560 0.499980 -0.585073
O2    O     O_R   0.444560 0.968700 0.499980 -0.585986
O3    O     O_R   0.968700 0.555440 0.499980 -0.585265
O4    O     O_R   0.555440 0.031300 0.499980 -0.585867
O5    O     O_R   0.968700 0.444560 0.500020 -0.585688
O6    O     O_R   0.555440 0.968700 0.500020 -0.585121
O7    O     O_R   0.031300 0.555440 0.500020 -0.586145
O8    O     O_R   0.444560 0.031300 0.500020 -0.585075
O9    O     O_R   0.531300 0.944560 0.999980 -0.585502
O10   O     O_R   0.944560 0.468700 0.999980 -0.585698
O11   O     O_R   0.468700 0.055440 0.999980 -0.584973
O12   O     O_R   0.055440 0.531300 0.999980 -0.585580
O13   O     O_R   0.468700 0.944560 0.000020 -0.585547
O14   O     O_R   0.055440 0.468700 0.000020 -0.585552
O15   O     O_R   0.531300 0.055440 0.000020 -0.585832
O16   O     O_R   0.944560 0.531300 0.000020 -0.585704
C1    C     C_R   0.000066 0.426695 0.500169 0.990106
C2    C     C_R   0.426695 0.000066 0.499834 0.990494
C3    C     C_R   0.999934 0.573302 0.500166 0.990796
C4    C     C_R   0.573306 0.999934 0.499833 0.990266
C5    C     C_R   0.500054 0.926711 0.999992 0.990585
C6    C     C_R   0.926712 0.500054 0.000008 0.991264
C7    C     C_R   0.499934 0.073305 0.000167 0.990268
C8    C     C_R   0.073291 0.499946 0.000007 0.990542
O17   O     O_R   0.031300 0.500000 0.582760 -0.611834
O18   O     O_R   0.500000 0.968700 0.582760 -0.612201
O19   O     O_R   0.968700 0.500000 0.582760 -0.611260
O20   O     O_R   0.500000 0.031300 0.582760 -0.612018
O21   O     O_R   0.968700 0.500000 0.417240 -0.612156
O22   O     O_R   0.500000 0.968700 0.417240 -0.611684
O23   O     O_R   0.031300 0.500000 0.417240 -0.612025
O24   O     O_R   0.500000 0.031300 0.417240 -0.611611
O25   O     O_R   0.531300 0.000000 0.082760 -0.612027
O26   O     O_R   1.000000 0.468700 0.082760 -0.611708
O27   O     O_R   0.468700 0.000000 0.082760 -0.611658
O28   O     O_R   0.000000 0.531300 0.082760 -0.611816
O29   O     O_R   0.468700 0.000000 0.917240 -0.611612
O30   O     O_R   1.000000 0.468700 0.917240 -0.611962
O31   O     O_R   0.531300 0.000000 0.917240 -0.612274
O32   O     O_R   0.000000 0.531300 0.917240 -0.611923
C9    C     C_R   1.000000 0.500000 0.609439 0.872927
C10   C     C_R   0.500000 0.000000 0.609441 0.872712
C11   C     C_R   1.000000 0.500000 0.390561 0.872661
C12   C     C_R   0.500000 1.000000 0.390559 0.872969
C13   C     C_R   0.500000 0.999998 0.109439 0.872730
C14   C     C_R   1.000000 0.500000 0.109441 0.872773
C15   C     C_R   0.500000 0.000001 0.890561 0.872578
C16   C     C_R   1.000000 0.500000 0.890559 0.872843
Zn1   Zn    Zn3+2 0.041800 0.500000 0.500000 1.032464
Zn2   Zn    Zn3+2 0.500000 0.958200 0.500000 1.032439
Zn3   Zn    Zn3+2 0.958200 0.500000 0.500000 1.033141
Zn4   Zn    Zn3+2 0.500000 0.041800 0.500000 1.032842
Zn5   Zn    Zn3+2 0.541800 0.000000 0.000000 1.032092
Zn6   Zn    Zn3+2 1.000000 0.458200 0.000000 1.032796
Zn7   Zn    Zn3+2 0.458200 0.000000 0.000000 1.033101
Zn8   Zn    Zn3+2 0.000000 0.541800 0.000000 1.032706
C17   C     C_1   1.000000 0.500000 0.669615 -0.190679
C18   C     C_1   0.499999 1.000000 0.669617 -0.188531
C19   C     C_1   0.999999 0.500002 0.330384 -0.188540
C20   C     C_1   0.499999 1.000000 0.330383 -0.190852
C21   C     C_1   0.500000 0.000000 0.169615 -0.190397
C22   C     C_1   0.999999 0.500001 0.169617 -0.189427
C23   C     C_1   0.499999 0.999999 0.830385 -0.188936
C24   C     C_1   0.999999 0.499999 0.830383 -0.189846
C25   C     C_1   0.999999 0.500000 0.720377 0.002480
C26   C     C_1   0.499998 0.999999 0.720380 0.003752
C27   C     C_1   0.999999 0.500002 0.279622 0.003696
C28   C     C_1   0.499999 0.000001 0.279621 0.002290
C29   C     C_1   0.499999 0.000001 0.220378 0.002478
C30   C     C_1   0.999998 0.500002 0.220379 0.003303
C31   C     C_1   0.499998 0.999998 0.779623 0.003569
C32   C     C_1   0.999999 0.500000 0.779620 0.002827
C33   C     C_R   0.002976 0.173678 0.447696 0.301153
C34   C     C_R   0.173493 0.007631 0.448104 0.295257
C35   C     C_R   0.997051 0.826314 0.447700 0.301048
C36   C     C_R   0.826508 0.992352 0.448107 0.295252
C37   C     C_R   0.007651 0.173492 0.551900 0.295246
C38   C     C_R   0.826323 0.997064 0.552306 0.301131
C39   C     C_R   0.992323 0.826507 0.551898 0.295241
C40   C     C_R   0.173679 0.002946 0.552305 0.301088
C41   C     C_R   0.497376 0.673667 0.947928 0.298693
C42   C     C_R   0.673663 0.501889 0.947816 0.300732
C43   C     C_R   0.497056 0.326321 0.947691 0.301215
C44   C     C_R   0.326356 0.496782 0.947974 0.298871
C45   C     C_R   0.503155 0.673647 0.052034 0.298885
C46   C     C_R   0.326335 0.502648 0.052069 0.298838
C47   C     C_R   0.492389 0.326506 0.051896 0.295062
C48   C     C_R   0.673680 0.498674 0.052188 0.300880
C49   C     C_R   0.000559 0.134440 0.448555 -0.235122
C50   C     C_R   0.134274 0.005036 0.448719 -0.231350
C51   C     C_R   0.999466 0.865553 0.448558 -0.235110
C52   C     C_R   0.865727 0.994949 0.448720 -0.231360
C53   C     C_R   0.005046 0.134272 0.551285 -0.231336
C54   C     C_R   0.865559 0.999472 0.551445 -0.235114
C55   C     C_R   0.994929 0.865728 0.551282 -0.231402
C56   C     C_R   0.134442 0.000539 0.551446 -0.235058
C57   C     C_R   0.497812 0.634368 0.948635 -0.230545
C58   C     C_R   0.634363 0.502140 0.948612 -0.233353
C59   C     C_R   0.499465 0.365559 0.948551 -0.235617
C60   C     C_R   0.365647 0.497459 0.948658 -0.231556
C61   C     C_R   0.502485 0.634353 0.051349 -0.231885
C62   C     C_R   0.365631 0.502216 0.051361 -0.231073
C63   C     C_R   0.494985 0.365727 0.051282 -0.230727
C64   C     C_R   0.634385 0.498179 0.051389 -0.234169
H1    H     H_    0.998295 0.119280 0.408766 0.210314
H2    H     H_    0.118987 0.006373 0.408937 0.210434
H3    H     H_    0.001752 0.880710 0.408771 0.210308
H4    H     H_    0.881013 0.993602 0.408939 0.210436
H5    H     H_    0.006377 0.118984 0.591068 0.210452
H6    H     H_    0.880718 0.001748 0.591231 0.210308
H7    H     H_    0.993578 0.881018 0.591062 0.210426
H8    H     H_    0.119284 0.998274 0.591233 0.210315
H9    H     H_    0.495583 0.619151 0.908890 0.210152
H10   H     H_    0.619130 0.503369 0.908774 0.210074
H11   H     H_    0.501724 0.380720 0.908763 0.210135
H12   H     H_    0.380881 0.495278 0.908911 0.209853
H13   H     H_    0.504634 0.619119 0.091101 0.209819
H14   H     H_    0.380847 0.504479 0.091102 0.210003
H15   H     H_    0.493655 0.381014 0.091066 0.210681
H16   H     H_    0.619165 0.496867 0.091225 0.209879
C65   C     C_R   0.001576 0.114659 0.499977 -0.165050
C66   C     C_R   0.114660 0.001567 0.500024 -0.165044
C67   C     C_R   0.998424 0.885338 0.499977 -0.165028
C68   C     C_R   0.885341 0.998432 0.500024 -0.165041
C69   C     C_R   0.500088 0.614642 0.999997 -0.165868
C70   C     C_R   0.614652 0.500096 0.999999 -0.164710
C71   C     C_R   0.498443 0.385340 0.999975 -0.165007
C72   C     C_R   0.385358 0.499901 0.000004 -0.165735
C73   C     C_R   0.006086 0.193230 0.499796 -0.144213
C74   C     C_R   0.193232 0.006059 0.500207 -0.144239
C75   C     C_R   0.993912 0.806764 0.499799 -0.144264
C76   C     C_R   0.806770 0.993938 0.500209 -0.144237
C77   C     C_R   0.500323 0.693323 0.999975 -0.149523
C78   C     C_R   0.693339 0.500341 0.000004 -0.150611
C79   C     C_R   0.493950 0.306769 0.999791 -0.144303
C80   C     C_R   0.306679 0.499657 0.000028 -0.149478
C81   C     C_1   0.004441 0.233368 0.500156 0.122627
C82   C     C_1   0.233372 0.004419 0.499848 0.122619
C83   C     C_1   0.995552 0.766623 0.500165 0.122549
C84   C     C_1   0.766630 0.995579 0.499849 0.122609
C85   C     C_1   0.500389 0.733456 0.999968 0.120327
C86   C     C_1   0.733470 0.500406 0.000010 0.129279
C87   C     C_1   0.495590 0.266630 0.000148 0.122692
C88   C     C_1   0.266545 0.499594 0.000034 0.120365
C89   C     C_1   0.003091 0.266971 0.500520 0.224547
C90   C     C_1   0.266975 0.003075 0.499486 0.224612
C91   C     C_1   0.996901 0.733019 0.500530 0.224568
C92   C     C_1   0.733028 0.996924 0.499486 0.224492
C93   C     C_1   0.500401 0.767066 0.999951 0.223629
C94   C     C_1   0.767079 0.500415 0.000033 0.232810
C95   C     C_1   0.496934 0.233027 0.000512 0.224568
C96   C     C_1   0.232935 0.499586 0.000050 0.223634
C97   C     C_R   0.974287 0.325998 0.469311 0.390270
C98   C     C_R   0.326950 0.028483 0.466982 0.386325
C99   C     C_R   0.025536 0.673989 0.468973 0.390470
C100  C     C_R   0.673053 0.971466 0.467074 0.386447
C101  C     C_R   0.028566 0.326948 0.532879 0.386510
C102  C     C_R   0.673995 0.025697 0.530748 0.390303
C103  C     C_R   0.971602 0.673038 0.533213 0.386285
C104  C     C_R   0.326009 0.974354 0.530851 0.390385
C105  C     C_R   0.473181 0.826571 0.968095 0.387677
C106  C     C_R   0.826525 0.527284 0.967919 0.390245
C107  C     C_R   0.525705 0.173994 0.969260 0.390308
C108  C     C_R   0.173484 0.472544 0.968262 0.387049
C109  C     C_R   0.527449 0.826514 0.031733 0.387209
C110  C     C_R   0.173431 0.526813 0.031906 0.387654
C111  C     C_R   0.471468 0.173055 0.032912 0.386511
C112  C     C_R   0.826574 0.473367 0.032240 0.390619
C113  C     C_R   0.974476 0.365416 0.467291 0.351117
C114  C     C_R   0.366298 0.026725 0.465080 0.347495
C115  C     C_R   0.025343 0.634569 0.466973 0.350764
C116  C     C_R   0.633706 0.973222 0.465167 0.347462
C117  C     C_R   0.026806 0.366297 0.534792 0.347489
C118  C     C_R   0.634580 0.025503 0.532762 0.351036
C119  C     C_R   0.973372 0.633688 0.535100 0.347484
C120  C     C_R   0.365426 0.974550 0.532859 0.350901
C121  C     C_R   0.474072 0.865944 0.966140 0.347581
C122  C     C_R   0.865903 0.526204 0.965957 0.350621
C123  C     C_R   0.525507 0.134576 0.967243 0.351021
C124  C     C_R   0.134109 0.473614 0.966282 0.347789
C125  C     C_R   0.526382 0.865891 0.033714 0.347788
C126  C     C_R   0.134059 0.525927 0.033858 0.347538
C127  C     C_R   0.473222 0.133706 0.034822 0.347544
C128  C     C_R   0.865949 0.474260 0.034178 0.350472
C129  C     C_R   0.000350 0.385593 0.500850 -0.410539
C130  C     C_R   0.385596 0.000348 0.499159 -0.410332
C131  C     C_R   0.999650 0.614398 0.500847 -0.410178
C132  C     C_R   0.614407 0.999651 0.499156 -0.410554
C133  C     C_R   0.500175 0.885639 0.999946 -0.409807
C134  C     C_R   0.885643 0.500177 0.000049 -0.411364
C135  C     C_R   0.499652 0.114405 0.000842 -0.410536
C136  C     C_R   0.114363 0.499824 0.000051 -0.409706
C137  C     C_R   0.001878 0.307050 0.501013 -0.269385
C138  C     C_R   0.307056 0.001868 0.498997 -0.269318
C139  C     C_R   0.998116 0.692938 0.501015 -0.269424
C140  C     C_R   0.692948 0.998132 0.498993 -0.269421
C141  C     C_R   0.500354 0.807131 0.999914 -0.274682
C142  C     C_R   0.807142 0.500366 0.000077 -0.265815
C143  C     C_R   0.498138 0.192948 0.001004 -0.269412
C144  C     C_R   0.192869 0.499637 0.000085 -0.274601
O33   O     O_R   0.944690 0.999980 0.546690 -0.616468
O34   O     O_R   0.999980 0.055310 0.546690 -0.616428
O35   O     O_R   0.055310 0.000020 0.546690 -0.616450
O36   O     O_R   0.000020 0.944690 0.546690 -0.616436
O37   O     O_R   0.055310 0.999980 0.453310 -0.616428
O38   O     O_R   0.000020 0.055310 0.453310 -0.616478
O39   O     O_R   0.944690 0.000020 0.453310 -0.616424
O40   O     O_R   0.999980 0.944690 0.453310 -0.616465
O41   O     O_R   0.444690 0.499980 0.046690 -0.616420
O42   O     O_R   0.499980 0.555310 0.046690 -0.617064
O43   O     O_R   0.555310 0.500020 0.046690 -0.616715
O44   O     O_R   0.500020 0.444690 0.046690 -0.615882
O45   O     O_R   0.555310 0.499980 0.953310 -0.616089
O46   O     O_R   0.500020 0.555310 0.953310 -0.615872
O47   O     O_R   0.444690 0.500020 0.953310 -0.616966
O48   O     O_R   0.499980 0.444690 0.953310 -0.617017
C145  C     C_R   0.926552 0.999853 0.500003 0.923323
C146  C     C_R   0.000148 0.073448 0.499997 0.923393
C147  C     C_R   0.073448 0.000147 0.500003 0.923321
C148  C     C_R   0.999852 0.926551 0.499997 0.923341
C149  C     C_R   0.426567 0.499990 0.000000 0.922747
C150  C     C_R   0.500007 0.573433 0.000000 0.923261
C151  C     C_R   0.573436 0.500009 1.000000 0.924188
C152  C     C_R   0.499857 0.426552 0.999996 0.923363
Zn9   Zn    Zn3+2 0.000000 0.000000 0.562390 1.026950
Zn10  Zn    Zn3+2 0.000000 0.000000 0.437610 1.026932
Zn11  Zn    Zn3+2 0.500000 0.500000 0.062390 1.027077
Zn12  Zn    Zn3+2 0.500000 0.500000 0.937610 1.027053
N1    N     N_R   0.001943 0.193035 0.393841 0.223524
O49   O     O_R   0.984731 0.178021 0.350633 -0.351104
O50   O     O_R   0.021396 0.223552 0.385823 -0.368038
N2    N     N_R   0.192654 0.011610 0.394426 0.214074
O51   O     O_R   0.177630 0.998284 0.348190 -0.356433
O52   O     O_R   0.222875 0.032022 0.390263 -0.344948
N3    N     N_R   0.998114 0.806953 0.393849 0.223535
O53   O     O_R   0.015350 0.821965 0.350661 -0.351111
O54   O     O_R   0.978669 0.776433 0.385809 -0.367490
N4    N     N_R   0.807347 0.988359 0.394431 0.214054
O55   O     O_R   0.822371 0.001670 0.348187 -0.356473
O56   O     O_R   0.777124 0.967947 0.390281 -0.344996
N5    N     N_R   0.011629 0.192656 0.605579 0.214092
O57   O     O_R   0.998302 0.177634 0.651813 -0.356312
O58   O     O_R   0.032041 0.222880 0.609742 -0.344877
N6    N     N_R   0.806968 0.998122 0.606161 0.223506
O59   O     O_R   0.821985 0.015350 0.649352 -0.351118
O60   O     O_R   0.776451 0.978677 0.614198 -0.368018
N7    N     N_R   0.988317 0.807348 0.605575 0.214095
O61   O     O_R   0.001628 0.822370 0.651821 -0.356440
O62   O     O_R   0.967894 0.777131 0.609721 -0.345031
N8    N     N_R   0.193033 0.001902 0.606161 0.223540
O63   O     O_R   0.178016 0.984686 0.649362 -0.351049
O64   O     O_R   0.223552 0.021348 0.614187 -0.367622
N9    N     N_R   0.493969 0.692916 0.894211 0.214182
O65   O     O_R   0.506885 0.677355 0.848056 -0.354742
O66   O     O_R   0.474305 0.723741 0.889858 -0.347312
N10   N     N_R   0.692885 0.503312 0.893876 0.223390
O67   O     O_R   0.677179 0.519991 0.850668 -0.349331
O68   O     O_R   0.723939 0.484569 0.885707 -0.370658
N11   N     N_R   0.498092 0.306964 0.893835 0.223513
O69   O     O_R   0.515302 0.321981 0.850629 -0.351218
O70   O     O_R   0.478644 0.276443 0.885815 -0.368048
N12   N     N_R   0.307135 0.493212 0.894277 0.214156
O71   O     O_R   0.322543 0.506136 0.848073 -0.355925
O72   O     O_R   0.276520 0.473406 0.890004 -0.346956
N13   N     N_R   0.506676 0.692872 0.105738 0.214080
O73   O     O_R   0.493707 0.677465 0.151915 -0.356083
O74   O     O_R   0.526479 0.723489 0.110052 -0.347186
N14   N     N_R   0.307088 0.506097 0.105780 0.214221
O75   O     O_R   0.322652 0.493222 0.151959 -0.355080
O76   O     O_R   0.276263 0.525760 0.110098 -0.347282
N15   N     N_R   0.488422 0.307342 0.105575 0.214104
O77   O     O_R   0.501759 0.322363 0.151805 -0.355933
O78   O     O_R   0.468009 0.277118 0.109746 -0.345116
N16   N     N_R   0.692918 0.497370 0.106129 0.223349
O79   O     O_R   0.677415 0.480601 0.149340 -0.350175
O80   O     O_R   0.723742 0.516301 0.114293 -0.370176
O81   O     O_3   0.948911 0.306011 0.436626 -0.561334
C153  C     C_3   0.915708 0.301123 0.468532 -0.186892
H17   H     H_    0.902236 0.328630 0.478738 0.183830
H18   H     H_    0.921215 0.284940 0.508215 0.138677
H19   H     H_    0.895445 0.284707 0.442707 0.197266
O82   O     O_3   0.307886 0.054599 0.434139 -0.549934
C154  C     C_3   0.304265 0.088119 0.465755 -0.145595
H20   H     H_    0.332252 0.100475 0.475673 0.174220
H21   H     H_    0.288005 0.083469 0.505582 0.145203
H22   H     H_    0.288512 0.108942 0.439822 0.198527
O83   O     O_3   0.050715 0.693980 0.435949 -0.561048
C155  C     C_3   0.084137 0.698800 0.467355 -0.186924
H23   H     H_    0.097687 0.671271 0.477176 0.183979
H24   H     H_    0.078907 0.714878 0.507219 0.138362
H25   H     H_    0.104213 0.715289 0.441302 0.197353
O84   O     O_3   0.692115 0.945298 0.434323 -0.549862
C156  C     C_3   0.695751 0.911834 0.466067 -0.146259
H26   H     H_    0.667769 0.899500 0.476080 0.174027
H27   H     H_    0.712039 0.916553 0.505851 0.145229
H28   H     H_    0.711483 0.890962 0.440195 0.198493
O85   O     O_3   0.054766 0.307889 0.565574 -0.549865
C157  C     C_3   0.088188 0.304235 0.533739 -0.146153
H29   H     H_    0.100502 0.332215 0.523639 0.173969
H30   H     H_    0.083421 0.287913 0.493999 0.145318
H31   H     H_    0.109093 0.288526 0.559578 0.198533
O86   O     O_3   0.693973 0.051051 0.563485 -0.561191
C158  C     C_3   0.698881 0.084276 0.531629 -0.187124
H32   H     H_    0.671383 0.097748 0.521379 0.183588
H33   H     H_    0.715101 0.078792 0.491975 0.138587
H34   H     H_    0.715266 0.104532 0.557513 0.197333
O87   O     O_3   0.945584 0.692098 0.566236 -0.549836
C159  C     C_3   0.911981 0.695740 0.534834 -0.145494
H35   H     H_    0.899609 0.667758 0.524918 0.173980
H36   H     H_    0.916520 0.712049 0.495022 0.145110
H37   H     H_    0.891224 0.711458 0.560933 0.198510
O88   O     O_3   0.306028 0.949060 0.563689 -0.561144
C160  C     C_3   0.301170 0.915756 0.532002 -0.187053
H38   H     H_    0.328683 0.902254 0.521948 0.183812
H39   H     H_    0.285023 0.921140 0.492249 0.138486
H40   H     H_    0.284734 0.895570 0.557936 0.197337
O89   O     O_3   0.447451 0.807074 0.935357 -0.548278
C161  C     C_3   0.414130 0.802794 0.967189 -0.156654
H41   H     H_    0.401155 0.830541 0.977371 0.175286
H42   H     H_    0.419294 0.786510 0.006879 0.136268
H43   H     H_    0.393598 0.786753 0.941311 0.198385
O90   O     O_3   0.806963 0.552919 0.934883 -0.561462
C162  C     C_3   0.802724 0.586467 0.966257 -0.178193
H44   H     H_    0.830477 0.599361 0.976108 0.182885
H45   H     H_    0.786538 0.581639 0.006106 0.146864
H46   H     H_    0.786609 0.606926 0.940169 0.197000
O91   O     O_3   0.551062 0.193974 0.936533 -0.561228
C163  C     C_3   0.584282 0.198870 0.968397 -0.186728
H47   H     H_    0.597753 0.171366 0.978622 0.183555
H48   H     H_    0.578799 0.215077 0.008065 0.138669
H49   H     H_    0.604536 0.215266 0.942528 0.197508
O92   O     O_3   0.193030 0.446730 0.935526 -0.548753
C164  C     C_3   0.197401 0.413399 0.967377 -0.154182
H50   H     H_    0.169692 0.400540 0.977613 0.175304
H51   H     H_    0.213700 0.418513 0.007038 0.136573
H52   H     H_    0.213466 0.392790 0.941491 0.198932
O93   O     O_3   0.553260 0.806964 0.064464 -0.548715
C165  C     C_3   0.586582 0.802583 0.032604 -0.154898
H53   H     H_    0.599441 0.830293 0.022352 0.175331
H54   H     H_    0.581462 0.786275 0.992952 0.136570
H55   H     H_    0.607192 0.786520 0.058489 0.198729
O94   O     O_3   0.192927 0.552540 0.064650 -0.548265
C166  C     C_3   0.197198 0.585873 0.032835 -0.156618
H56   H     H_    0.169452 0.598858 0.022696 0.175332
H57   H     H_    0.213458 0.580717 0.993121 0.136222
H58   H     H_    0.213255 0.606396 0.058707 0.198398
O95   O     O_3   0.445296 0.192122 0.065648 -0.549885
C167  C     C_3   0.411846 0.195767 0.033879 -0.146306
H59   H     H_    0.399516 0.167785 0.023840 0.174221
H60   H     H_    0.416579 0.212066 0.994109 0.145247
H61   H     H_    0.390968 0.211495 0.059743 0.198296
O96   O     O_3   0.807055 0.447824 0.065285 -0.561298
C168  C     C_3   0.802945 0.414259 0.033975 -0.180243
H62   H     H_    0.830743 0.401231 0.024310 0.183082
H63   H     H_    0.786842 0.419110 0.994026 0.146665
H64   H     H_    0.786806 0.393903 0.060032 0.196604
O97   O     O_3   0.948385 0.384096 0.433901 -0.566217
C169  C     C_3   0.964074 0.389440 0.379455 -0.181568
H65   H     H_    0.970139 0.362053 0.358326 0.189837
H66   H     H_    0.990017 0.406888 0.381382 0.117265
H67   H     H_    0.943345 0.404758 0.352769 0.185199
O98   O     O_3   0.385819 0.052003 0.431562 -0.565558
C170  C     C_3   0.391202 0.035718 0.377505 -0.184408
H68   H     H_    0.363838 0.030286 0.356029 0.188072
H69   H     H_    0.408024 0.009288 0.380205 0.117273
H70   H     H_    0.407192 0.055773 0.350710 0.185777
O99   O     O_3   0.051253 0.615879 0.433274 -0.566645
C171  C     C_3   0.035271 0.610519 0.379026 -0.182075
H71   H     H_    0.029094 0.637898 0.357952 0.190112
H72   H     H_    0.009340 0.593072 0.381283 0.117492
H73   H     H_    0.055855 0.595190 0.352096 0.185112
O100  O     O_3   0.614186 0.947894 0.431731 -0.565551
C172  C     C_3   0.608803 0.964099 0.377621 -0.184346
H74   H     H_    0.636166 0.969504 0.356129 0.187998
H75   H     H_    0.591977 0.990531 0.380234 0.117284
H76   H     H_    0.592816 0.944004 0.350891 0.185739
O101  O     O_3   0.052158 0.385820 0.568179 -0.565526
C173  C     C_3   0.035999 0.391202 0.622321 -0.183918
H77   H     H_    0.030618 0.363835 0.643823 0.188060
H78   H     H_    0.009565 0.408025 0.619760 0.117332
H79   H     H_    0.056113 0.407194 0.649012 0.185711
O102  O     O_3   0.615898 0.051570 0.566196 -0.566254
C174  C     C_3   0.610545 0.035835 0.620610 -0.181760
H80   H     H_    0.637925 0.029748 0.641736 0.189818
H81   H     H_    0.593096 0.009893 0.618627 0.117302
H82   H     H_    0.595227 0.056545 0.647331 0.185151
O103  O     O_3   0.948194 0.614156 0.568775 -0.565616
C175  C     C_3   0.964631 0.608765 0.622724 -0.184787
H83   H     H_    0.970116 0.636128 0.644178 0.188100
H84   H     H_    0.991054 0.591948 0.619846 0.117327
H85   H     H_    0.944658 0.592762 0.649641 0.185800
O104  O     O_3   0.384112 0.948538 0.566384 -0.566476
C176  C     C_3   0.389466 0.964360 0.620741 -0.181667
H86   H     H_    0.362087 0.970477 0.641850 0.190007
H87   H     H_    0.406912 0.990301 0.618664 0.117458
H88   H     H_    0.404789 0.943694 0.647534 0.185096
O105  O     O_3   0.448322 0.885077 0.932724 -0.566004
C177  C     C_3   0.464268 0.890442 0.878455 -0.183385
H89   H     H_    0.470063 0.863063 0.857131 0.188798
H90   H     H_    0.490421 0.907554 0.880747 0.117281
H91   H     H_    0.443826 0.906124 0.851746 0.185549
O106  O     O_3   0.884996 0.551686 0.932228 -0.566029
C178  C     C_3   0.890365 0.535434 0.878143 -0.182622
H92   H     H_    0.862992 0.529665 0.856902 0.189623
H93   H     H_    0.907508 0.509205 0.880731 0.117349
H94   H     H_    0.906016 0.555662 0.851186 0.185263
O107  O     O_3   0.551574 0.115890 0.933817 -0.566343
C179  C     C_3   0.535847 0.110538 0.879398 -0.181484
H95   H     H_    0.529768 0.137922 0.858271 0.189902
H96   H     H_    0.509904 0.093092 0.881371 0.117445
H97   H     H_    0.556556 0.095215 0.852683 0.185093
O108  O     O_3   0.115027 0.447946 0.932861 -0.565766
C180  C     C_3   0.109670 0.463901 0.878573 -0.183220
H98   H     H_    0.137048 0.469556 0.857276 0.188822
H99   H     H_    0.092524 0.490141 0.880826 0.116914
H100  H     H_    0.094028 0.443525 0.851861 0.185713
O109  O     O_3   0.552049 0.884974 0.067133 -0.565784
C181  C     C_3   0.536099 0.890331 0.121422 -0.183266
H101  H     H_    0.530446 0.862950 0.142719 0.188814
H102  H     H_    0.509861 0.907479 0.119173 0.116969
H103  H     H_    0.556474 0.905974 0.148132 0.185681
O110  O     O_3   0.114930 0.551679 0.067277 -0.566057
C182  C     C_3   0.109564 0.535730 0.121544 -0.183318
H104  H     H_    0.136939 0.529930 0.142867 0.188811
H105  H     H_    0.092451 0.509576 0.119249 0.117314
H106  H     H_    0.093886 0.556175 0.148256 0.185561
O111  O     O_3   0.447889 0.114187 0.068247 -0.565466
C183  C     C_3   0.464082 0.108806 0.122366 -0.184194
H107  H     H_    0.469481 0.136174 0.143858 0.188034
H108  H     H_    0.490513 0.091980 0.119767 0.117209
H109  H     H_    0.443984 0.092818 0.149087 0.185772
O112  O     O_3   0.885086 0.448696 0.067914 -0.566295
C184  C     C_3   0.890462 0.464946 0.121975 -0.182926
H110  H     H_    0.863091 0.470864 0.143237 0.189546
H111  H     H_    0.907574 0.491087 0.119342 0.117726
H112  H     H_    0.906147 0.444651 0.148938 0.185126

loop_
_geom_bond_atom_site_label_1
_geom_bond_atom_site_label_2
_geom_bond_distance
_ccdc_geom_bond_type
C67   C148  1.465268 S    
O97   C169  1.410167 S    
O25   C13   1.277091 A    
C65   C146  1.465207 S    
C177  H91   1.109256 S    
C46   N14   1.441980 S    
O111  C183  1.410084 S    
C10   C18   1.415869 S    
O93   C165  1.409591 S    
C123  O107  1.383244 S    
C158  H33   1.113512 S    
C164  H50   1.113076 S    
O33   Zn9   1.999706 S    
C18   C26   1.194387 T    
O82   C154  1.409687 S    
O102  C174  1.410169 S    
C14   C22   1.415859 S    
C101  C137  1.401891 A    
C178  H93   1.113363 S    
C53   C65   1.399506 A    
O18   Zn2   1.982645 S    
C58   H10   1.083206 S    
N8    O64   1.301369 A    
N15   O77   1.301568 A    
O100  C172  1.410088 S    
C116  O100  1.383317 S    
C169  H67   1.109254 S    
O47   Zn12  1.999706 S    
O24   Zn4   1.982648 S    
O46   C150  1.273339 A    
C102  C118  1.401359 A    
O19   Zn3   1.982657 S    
O38   Zn10  1.999493 S    
O3    C3    1.280150 A    
C6    C134  1.459251 S    
C159  H37   1.109235 S    
C87   C95   1.194719 T    
C180  H99   1.113376 S    
C42   C58   1.396552 A    
C44   N12   1.441988 S    
C126  C136  1.409459 A    
C110  O94   1.383047 S    
O47   C149  1.273391 A    
C171  H71   1.113098 S    
C168  H63   1.113545 S    
C182  H106  1.109257 S    
N4    O56   1.301355 A    
O39   C145  1.273746 A    
C162  H44   1.113036 S    
C44   C60   1.396479 A    
C155  H25   1.109241 S    
C51   H3    1.083168 S    
C121  C133  1.409444 A    
C172  H76   1.109280 S    
O17   C9    1.277088 A    
O94   C166  1.409607 S    
C122  O106  1.383307 S    
C69   C150  1.464106 S    
C120  O104  1.383252 S    
C42   C78   1.413972 A    
O48   C152  1.273568 A    
N1    O49   1.301582 A    
C95   C143  1.424505 S    
C158  H32   1.113097 S    
C184  H112  1.109300 S    
O43   C151  1.273451 A    
O96   C168  1.409663 S    
N2    O52   1.301351 A    
O13   C5    1.280199 A    
O37   Zn10  1.999698 S    
C37   C73   1.413356 A    
C47   C63   1.396869 A    
C111  O95   1.383139 S    
O112  C184  1.410125 S    
C179  H96   1.113375 S    
O26   Zn6   1.982645 S    
O7    C3    1.280823 A    
C98   O82   1.383141 S    
C157  H29   1.113035 S    
C105  C121  1.400090 A    
O103  C175  1.410090 S    
O27   C13   1.277088 A    
O35   Zn9   1.999706 S    
C183  H108  1.113376 S    
O31   C15   1.277090 A    
C164  H52   1.109211 S    
O32   C16   1.277005 A    
C54   C68   1.399654 A    
C161  H43   1.109207 S    
N11   O70   1.301364 A    
C105  C141  1.402007 A    
C176  H86   1.113100 S    
C106  C142  1.401970 A    
C34   C50   1.396952 A    
C172  H75   1.113371 S    
O45   Zn12  1.999698 S    
C15   C23   1.415861 S    
C114  O98   1.383319 S    
O9    C5    1.280305 A    
C38   C54   1.397184 A    
O11   C7    1.280206 A    
C167  H59   1.113023 S    
C33   C49   1.397111 A    
O4    C4    1.280830 A    
C123  C135  1.409462 A    
C163  H48   1.113521 S    
N1    O50   1.301368 A    
O5    Zn3   2.003587 S    
C41   N9    1.441977 S    
O36   Zn9   1.999492 S    
C102  O86   1.382956 S    
C171  H73   1.109295 S    
C155  H24   1.113541 S    
C121  O105  1.383298 S    
N6    O60   1.301370 A    
O42   C150  1.273351 A    
C110  C126  1.400160 A    
C33   N1    1.442173 S    
N6    O59   1.301579 A    
C103  C139  1.401961 A    
C96   C144  1.423618 S    
O48   Zn12  1.999509 S    
O23   C11   1.277090 A    
C37   N5    1.441959 S    
C36   N4    1.441955 S    
O108  C180  1.410130 S    
N16   O79   1.301582 A    
C62   C72   1.399257 A    
N9    O65   1.301546 A    
C160  H39   1.113530 S    
C4    C132  1.460495 S    
O98   C170  1.410087 S    
O88   C160  1.409581 S    
C105  O89   1.383049 S    
N5    O57   1.301575 A    
O14   C8    1.280260 A    
C38   C76   1.413506 A    
C161  H42   1.113485 S    
O2    Zn2   2.003785 S    
C19   C27   1.194385 T    
O44   Zn11  1.999492 S    
C52   H4    1.083180 S    
C175  H83   1.113142 S    
N10   O68   1.301286 A    
C61   C69   1.399256 A    
O28   C14   1.277003 A    
O26   C14   1.277005 A    
O29   C15   1.277081 A    
C63   C71   1.399504 A    
O8    Zn4   2.006055 S    
O30   C16   1.277009 A    
C11   C19   1.415873 S    
C106  O90   1.383090 S    
C79   C87   1.427095 S    
C107  C143  1.402384 A    
C40   N8    1.442171 S    
O81   C153  1.409581 S    
C154  H22   1.109223 S    
C48   C64   1.396540 A    
C159  H36   1.113477 S    
C181  H102  1.113377 S    
C176  H88   1.109271 S    
C66   C147  1.465377 S    
O92   C164  1.409591 S    
C45   C77   1.413779 A    
C70   C151  1.464486 S    
C184  H111  1.113367 S    
C100  C116  1.400013 A    
C167  H61   1.109218 S    
C102  C140  1.402419 A    
C162  H45   1.113524 S    
C39   N7    1.441949 S    
O16   Zn8   2.006055 S    
C156  H26   1.113019 S    
C124  O108  1.383294 S    
C181  H103  1.109255 S    
O39   Zn10  1.999706 S    
C5    C133  1.459234 S    
N3    O53   1.301587 A    
C39   C75   1.413366 A    
C73   C81   1.427099 S    
C8    C136  1.459393 S    
O6    Zn2   2.006052 S    
C169  H66   1.113377 S    
N13   O74   1.301290 A    
C125  O109  1.383294 S    
C115  O99   1.383265 S    
C71   C152  1.465207 S    
C165  H54   1.113480 S    
C166  H57   1.113486 S    
C107  C123  1.401293 A    
O110  C182  1.410129 S    
C170  H70   1.109288 S    
C128  C134  1.409404 A    
C90   C138  1.424707 S    
C46   C62   1.396427 A    
C183  H107  1.113151 S    
O18   C10   1.277000 A    
O106  C178  1.410131 S    
O21   Zn3   1.982664 S    
C55   C67   1.399513 A    
C68   C145  1.465357 S    
O37   C147  1.273749 A    
C60   C72   1.399270 A    
C163  H47   1.113097 S    
C72   C149  1.464245 S    
C41   C77   1.413778 A    
N12   O71   1.301541 A    
C25   C32   1.393911 S    
O12   C8    1.280165 A    
O1    C1    1.280206 A    
C27   C30   1.393911 S    
C101  O85   1.383136 S    
O34   C146  1.273705 A    
C173  H77   1.113150 S    
C174  H82   1.109263 S    
C48   C78   1.413964 A    
C88   C96   1.194248 T    
O105  C177  1.410127 S    
C36   C76   1.413392 A    
C82   C90   1.194839 T    
C175  H85   1.109308 S    
C179  H95   1.113104 S    
C94   C142  1.423526 S    
C177  H90   1.113376 S    
C106  C122  1.400354 A    
C75   C83   1.427182 S    
C119  C131  1.409659 A    
O29   Zn7   1.982664 S    
C97   C137  1.402382 A    
C49   H1    1.083170 S    
C154  H20   1.113007 S    
C111  C143  1.401899 A    
C153  H17   1.113089 S    
C64   H16   1.083207 S    
C57   H9    1.083219 S    
C53   H5    1.083179 S    
C180  H98   1.113128 S    
O41   C149  1.273376 A    
C60   H12   1.083217 S    
C42   N10   1.442223 S    
C171  H72   1.113366 S    
C168  H62   1.113007 S    
C182  H105  1.113378 S    
O10   C6    1.280126 A    
C112  C142  1.401954 A    
O36   C148  1.273717 A    
O15   Zn5   2.003583 S    
C81   C89   1.194717 T    
C100  C140  1.401930 A    
C156  H28   1.109216 S    
C52   C68   1.399523 A    
C59   H11   1.083167 S    
C122  C134  1.409432 A    
C16   C24   1.415871 S    
O5    C1    1.280884 A    
C100  O84   1.383141 S    
C97   O81   1.382956 S    
O85   C157  1.409686 S    
C3    C131  1.460167 S    
C125  C133  1.409468 A    
C178  H92   1.113121 S    
C1    C129  1.460377 S    
C28   C29   1.393911 S    
O32   Zn8   1.982648 S    
C153  H19   1.109212 S    
C170  H68   1.113146 S    
C43   N11   1.442175 S    
O34   Zn9   1.999502 S    
C89   C137  1.424512 S    
C108  C124  1.400250 A    
C183  H109  1.109268 S    
C164  H51   1.113484 S    
O90   C162  1.409657 S    
O22   Zn2   1.982661 S    
C43   C59   1.397116 A    
O21   C11   1.277087 A    
O22   C12   1.277011 A    
C157  H30   1.113486 S    
O23   Zn1   1.982660 S    
C163  H49   1.109216 S    
C158  H34   1.109220 S    
N7    O62   1.301354 A    
C33   C73   1.413474 A    
O87   C159  1.409689 S    
C47   C79   1.413355 A    
C178  H94   1.109302 S    
C50   H2    1.083177 S    
C34   N2    1.441952 S    
O95   C167  1.409682 S    
O3    Zn3   2.005853 S    
C59   C71   1.399635 A    
C108  O92   1.383023 S    
N8    O63   1.301580 A    
C54   H6    1.083167 S    
O8    C2    1.280145 A    
C157  H31   1.109207 S    
C39   C55   1.396895 A    
O28   Zn8   1.982658 S    
C109  C141  1.402020 A    
C78   C86   1.425976 S    
C176  H87   1.113372 S    
O83   C155  1.409574 S    
O30   Zn6   1.982661 S    
C117  C129  1.409767 A    
C114  C130  1.409733 A    
C167  H60   1.113487 S    
C112  O96   1.383123 S    
C57   C69   1.399244 A    
C126  O110  1.383298 S    
C180  H100  1.109261 S    
O9    Zn5   2.005857 S    
C173  H78   1.113373 S    
C165  H55   1.109206 S    
C168  H64   1.109231 S    
O11   Zn7   2.005853 S    
N4    O55   1.301576 A    
C44   C80   1.413813 A    
O16   C6    1.280214 A    
C17   C25   1.194376 T    
O104  C176  1.410167 S    
C170  H69   1.113370 S    
C115  C131  1.409371 A    
C76   C84   1.427280 S    
O6    C4    1.280159 A    
C77   C85   1.425864 S    
C56   C66   1.399659 A    
C61   H13   1.083220 S    
C86   C94   1.194209 T    
C173  H79   1.109267 S    
C9    C17   1.415859 S    
O91   C163  1.409578 S    
C80   C88   1.426047 S    
C155  H23   1.113040 S    
O45   C151  1.273441 A    
C98   C114  1.400026 A    
C160  H38   1.113070 S    
O31   Zn5   1.982660 S    
C49   C65   1.399639 A    
C12   C20   1.415861 S    
C13   C21   1.415866 S    
N2    O51   1.301576 A    
O17   Zn1   1.982661 S    
C99   C139  1.402424 A    
O33   C145  1.273604 A    
C58   C70   1.399290 A    
N14   O75   1.301556 A    
C20   C28   1.194378 T    
C175  H84   1.113366 S    
C97   C113  1.401306 A    
O41   Zn11  1.999706 S    
C118  O102  1.383241 S    
C108  C144  1.402048 A    
C101  C117  1.399935 A    
O13   Zn7   2.003587 S    
O40   C148  1.273589 A    
C166  H56   1.113054 S    
O2    C2    1.280810 A    
O42   Zn11  1.999502 S    
O99   C171  1.410168 S    
C84   C92   1.194823 T    
C7    C135  1.460339 S    
O109  C181  1.410131 S    
C85   C93   1.194139 T    
O38   C146  1.273565 A    
C51   C67   1.399643 A    
C56   H8    1.083168 S    
C83   C91   1.194769 T    
O4    Zn4   2.003782 S    
C127  O111  1.383315 S    
O84   C156  1.409680 S    
C113  O97   1.383240 S    
C48   N16   1.442218 S    
C47   N15   1.441957 S    
C92   C140  1.424687 S    
C111  C127  1.399946 A    
C26   C31   1.393909 S    
C119  O103  1.383330 S    
C112  C128  1.400287 A    
C50   C66   1.399525 A    
O107  C179  1.410166 S    
C91   C139  1.424585 S    
C40   C56   1.397193 A    
O46   Zn12  1.999493 S    
N13   O73   1.301545 A    
N16   O80   1.301288 A    
C62   H14   1.083221 S    
C118  C132  1.409478 A    
O15   C7    1.280866 A    
C103  C119  1.399968 A    
N3    O54   1.301362 A    
C22   C30   1.194378 T    
C169  H65   1.113102 S    
C128  O112  1.383312 S    
C104  O88   1.382964 S    
O25   Zn5   1.982661 S    
C40   C74   1.413513 A    
O27   Zn7   1.982657 S    
C45   N13   1.441990 S    
O7    Zn1   2.003583 S    
C38   N6    1.442171 S    
C124  C136  1.409486 A    
C182  H104  1.113128 S    
N9    O66   1.301274 A    
C160  H40   1.109228 S    
N12   O72   1.301292 A    
C2    C130  1.460430 S    
N5    O58   1.301358 A    
C174  H81   1.113373 S    
C161  H41   1.113066 S    
O19   C9    1.277086 A    
C179  H97   1.109257 S    
N10   O67   1.301580 A    
O24   C12   1.277001 A    
C107  O91   1.382957 S    
C35   N3    1.442175 S    
C109  O93   1.383026 S    
O101  C173  1.410087 S    
O12   Zn8   2.003782 S    
C36   C52   1.396944 A    
C46   C80   1.413815 A    
O14   Zn6   2.006052 S    
O44   C152  1.273704 A    
C165  H53   1.113082 S    
C34   C74   1.413393 A    
C153  H18   1.113524 S    
C99   O83   1.382979 S    
N11   O69   1.301585 A    
C45   C61   1.396409 A    
C159  H35   1.113015 S    
C37   C53   1.396876 A    
C104  C138  1.402427 A    
C181  H101  1.113126 S    
C21   C29   1.194383 T    
N15   O78   1.301363 A    
O86   C158  1.409582 S    
C117  O101  1.383312 S    
N14   O76   1.301262 A    
C43   C79   1.413482 A    
C104  C120  1.401382 A    
C63   H15   1.083177 S    
C23   C31   1.194383 T    
C127  C135  1.409749 A    
N7    O61   1.301571 A    
C120  C130  1.409450 A    
C35   C51   1.397150 A    
O35   C147  1.273611 A    
C162  H46   1.109247 S    
C109  C125  1.400184 A    
O40   Zn10  1.999509 S    
C113  C129  1.409474 A    
C156  H27   1.113491 S    
C55   H7    1.083180 S    
C172  H74   1.113149 S    
O20   Zn4   1.982658 S    
C41   C57   1.396361 A    
C116  C132  1.409767 A    
O20   C10   1.277010 A    
C24   C32   1.194385 T    
O89   C161  1.409602 S    
O10   Zn6   2.003785 S    
C110  C144  1.402040 A    
C98   C138  1.401946 A    
C99   C115  1.401354 A    
C64   C70   1.399272 A    
C35   C75   1.413499 A    
C184  H110  1.113126 S    
C166  H58   1.109212 S    
C103  O87   1.383142 S    
C177  H89   1.113128 S    
O43   Zn11  1.999706 S    
O1    Zn1   2.005857 S    
C174  H80   1.113103 S    
C93   C141  1.423438 S    
C154  H21   1.113494 S    
C74   C82   1.427304 S    
