data_mof_unit_51627.cif
_audit_creation_date              2012-12-10T18:11:47-0500
_audit_creation_method            fapswitch 2.2
_symmetry_space_group_name_H-M    P1
_symmetry_Int_Tables_number       1
_space_group_crystal_system       triclinic
_cell_length_a                    15.852202
_cell_length_b                    10.721232
_cell_length_c                    9.510106
_cell_angle_alpha                 88.703279
_cell_angle_beta                  90.023881
_cell_angle_gamma                 89.352267
_cell_volume                      1615.77380704

loop_
_atom_site_label
_atom_site_type_symbol
_atom_type_description
_atom_site_fract_x
_atom_site_fract_y
_atom_site_fract_z
_atom_type_partial_charge
C1    C     C_R   0.496362 0.260225 0.500951 0.752746
C2    C     C_3   0.083101 0.496920 0.499316 0.067087
C3    C     C_3   0.970661 0.610909 0.542775 -0.216064
C4    C     C_3   0.916657 0.498360 0.500641 0.114111
C5    C     C_3   0.026117 0.585614 0.413304 0.286854
C6    C     C_3   0.971020 0.475990 0.368668 -0.151684
C7    C     C_1   0.174821 0.497988 0.499503 -0.061450
C8    C     C_1   0.825077 0.498731 0.500644 -0.057304
C9    C     C_3   0.461138 0.069138 0.644662 -0.384343
C10   C     C_3   0.464200 0.925809 0.646547 -0.381452
C11   C     C_3   0.433205 0.075737 0.385298 -0.386508
C12   C     C_R   0.340063 0.499886 0.499960 0.812689
C13   C     C_3   0.583143 0.070391 0.471513 -0.382961
C14   C     C_3   0.493486 0.122054 0.501486 0.176085
C15   C     C_3   0.493245 0.877972 0.500788 0.179624
C16   C     C_3   0.430285 0.931802 0.389310 -0.384060
C17   C     C_3   0.583129 0.927094 0.472818 -0.381722
C18   C     C_3   0.552929 0.606001 0.078643 0.269737
C19   C     C_3   0.556951 0.599941 0.912353 -0.264539
C20   C     C_3   0.537127 0.381281 0.085752 0.209801
C21   C     C_3   0.415044 0.513626 0.083191 -0.309111
C22   C     C_3   0.529661 0.378767 0.918418 0.254921
C23   C     C_R   0.495873 0.739809 0.499494 0.754406
C24   C     C_3   0.415742 0.527158 0.917101 -0.299985
C25   C     C_R   0.659898 0.499779 0.500094 0.836650
C26   C     C_3   0.971942 0.406765 0.589319 -0.191917
C27   C     C_3   0.028278 0.385491 0.457718 -0.246425
C28   C     C_1   0.250376 0.498967 0.499814 -0.193655
C29   C     C_1   0.749540 0.499240 0.500437 -0.223238
C30   C     C_3   0.027059 0.518375 0.627426 0.281865
Cu1   Cu    Cu3+1 0.500040 0.499860 0.642410 0.906350
Cu2   Cu    Cu3+1 0.499960 0.500140 0.357590 0.924292
H1    H     H_    0.052838 0.293819 0.423083 0.147885
H2    H     H_    0.400763 0.888753 0.673491 0.155873
H3    H     H_    0.368603 0.114803 0.400706 0.148844
H4    H     H_    0.365223 0.901181 0.415769 0.146349
H5    H     H_    0.605246 0.104662 0.366923 0.147047
H6    H     H_    0.628752 0.103575 0.550450 0.151057
H7    H     H_    0.627013 0.890928 0.556036 0.146661
H8    H     H_    0.607511 0.893182 0.371473 0.175785
H9    H     H_    0.455193 0.107953 0.279567 0.162035
H10   H     H_    0.444397 0.896304 0.283538 0.189906
H11   H     H_    0.617423 0.599019 0.121585 0.154066
H12   H     H_    0.948440 0.333846 0.663713 0.133811
H13   H     H_    0.538045 0.691046 0.864394 0.177428
H14   H     H_    0.622718 0.585965 0.876582 0.119189
H15   H     H_    0.376653 0.431212 0.114367 0.147340
H16   H     H_    0.381323 0.594377 0.128935 0.179332
H17   H     H_    0.392773 0.621918 0.884348 0.165937
H18   H     H_    0.369677 0.460280 0.874703 0.165519
H19   H     H_    0.494743 0.304901 0.122226 0.064411
H20   H     H_    0.946727 0.459643 0.261202 0.128358
H21   H     H_    0.478619 0.311297 0.895030 0.084764
H22   H     H_    0.946820 0.703104 0.577031 0.128344
H23   H     H_    0.395276 0.101952 0.663095 0.151820
H24   H     H_    0.499766 0.102647 0.732336 0.184679
H25   H     H_    0.508628 0.892981 0.730576 0.166043
N1    N     N_3   0.501840 0.500250 0.143650 -0.165350
N2    N     N_3   0.501160 0.503300 0.856280 -0.166159
O1    O     O_R   0.500050 0.317570 0.620260 -0.561386
O2    O     O_R   0.499980 0.317810 0.379740 -0.608642
O3    O     O_R   0.379110 0.499870 0.620240 -0.588319
O4    O     O_R   0.379040 0.500110 0.379720 -0.586827
O5    O     O_R   0.500020 0.682190 0.620260 -0.604340
O6    O     O_R   0.499950 0.682430 0.379740 -0.542796
O7    O     O_R   0.620960 0.499890 0.620280 -0.580490
O8    O     O_R   0.620890 0.500130 0.379760 -0.566500
N3    N     N_2   0.521682 0.729571 0.116128 -0.386647
H26   H     H_    0.463161 0.753661 0.076173 0.236039
C31   C     C_3   0.581736 0.830138 0.096473 -0.809269
H27   H     H_    0.554674 0.918908 0.134651 0.230176
H28   H     H_    0.597173 0.845090 0.983638 0.212286
H29   H     H_    0.640949 0.808955 0.155124 0.232627
N4    N     N_2   0.620359 0.345961 0.144466 -0.389654
H30   H     H_    0.621670 0.279772 0.224432 0.256323
C32   C     C_3   0.701756 0.400925 0.111387 -0.700494
H31   H     H_    0.725311 0.453952 0.201401 0.238279
H32   H     H_    0.700451 0.463792 0.018740 0.192944
H33   H     H_    0.748864 0.325903 0.092746 0.209257
N5    N     N_2   0.604822 0.328802 0.849988 -0.359855
H34   H     H_    0.654949 0.386084 0.829874 0.269899
C33   C     C_3   0.627603 0.199033 0.878271 -0.729596
H35   H     H_    0.644680 0.154232 0.778553 0.220093
H36   H     H_    0.575476 0.146718 0.929642 0.202653
H37   H     H_    0.683599 0.191845 0.947503 0.234297
N6    N     N_2   0.057878 0.681095 0.318007 -0.426027
H38   H     H_    0.102548 0.736421 0.363674 0.248334
C34   C     C_3   0.993721 0.752197 0.242449 -0.728161
H39   H     H_    0.024194 0.816723 0.165490 0.229658
H40   H     H_    0.955399 0.807838 0.316701 0.220653
H41   H     H_    0.951916 0.689179 0.183814 0.232083
N7    N     N_2   0.060194 0.539593 0.766553 -0.424907
H42   H     H_    0.104501 0.473502 0.797827 0.249382
C35   C     C_3   0.997285 0.563040 0.872980 -0.715004
H43   H     H_    0.029038 0.583380 0.973847 0.243162
H44   H     H_    0.956863 0.479913 0.888976 0.216264
H45   H     H_    0.957453 0.645022 0.842043 0.232729

loop_
_geom_bond_atom_site_label_1
_geom_bond_atom_site_label_2
_ccdc_geom_bond_type
Cu1   O7    S    
C2    C7    S    
C25   O8    A    
C32   H33   S    
Cu2   N1    S    
C4    C8    S    
C19   H14   S    
C26   H12   S    
C27   H1    S    
C26   C27   S    
N4    C32   S    
C12   C28   S    
C8    C29   T    
C32   H32   S    
Cu2   O2    S    
C20   H19   S    
C10   C15   S    
C5    C6    S    
C11   C14   S    
N6    C34   S    
C18   N3    S    
C15   C16   S    
C18   C19   S    
C17   H7    S    
Cu1   N2    S    
C18   N1    S    
C6    C27   S    
N3    H26   S    
C31   H27   S    
C9    H23   S    
C9    C10   S    
C13   H5    S    
C21   H16   S    
C15   C23   S    
C13   C14   S    
C25   C29   S    
Cu1   O3    S    
C22   H21   S    
C24   H18   S    
N4    H30   S    
C10   H25   S    
C32   H31   S    
C4    C6    S    
C1    O1    A    
C22   N2    S    
C12   O4    A    
N6    H38   S    
C35   H45   S    
C19   N2    S    
C7    C28   T    
C17   H8    S    
Cu1   O1    S    
C3    C30   S    
C9    C14   S    
C12   O3    A    
C11   C16   S    
Cu1   Cu2   S    
C34   H41   S    
C31   H29   S    
N7    C35   S    
C20   N4    S    
C10   H2    S    
C9    H24   S    
C35   H44   S    
C13   H6    S    
C2    C27   S    
Cu2   O8    S    
C5    N6    S    
C30   N7    S    
C23   O5    A    
C34   H40   S    
C26   C30   S    
C33   H36   S    
C2    C5    S    
C20   N1    S    
C3    C4    S    
C16   H10   S    
C24   H17   S    
C15   C17   S    
Cu1   O5    S    
C25   O7    A    
Cu2   O4    S    
C20   C22   S    
N5    H34   S    
C3    C5    S    
C1    O2    A    
C4    C26   S    
C19   H13   S    
C33   H37   S    
C13   C17   S    
C2    C30   S    
C23   O6    A    
C11   H3    S    
C22   N5    S    
C21   N1    S    
C18   H11   S    
C16   H4    S    
C24   N2    S    
N7    H42   S    
C3    H22   S    
N5    C33   S    
C11   H9    S    
C35   H43   S    
C34   H39   S    
N3    C31   S    
C33   H35   S    
C21   C24   S    
C31   H28   S    
C1    C14   S    
C6    H20   S    
Cu2   O6    S    
C21   H15   S    
