data_mof_unit_32112.cif
_audit_creation_date              2012-12-10T17:05:40-0500
_audit_creation_method            fapswitch 2.2
_symmetry_space_group_name_H-M    P1
_symmetry_Int_Tables_number       1
_space_group_crystal_system       triclinic
_cell_length_a                    15.883463
_cell_length_b                    10.950027
_cell_length_c                    9.925914
_cell_angle_alpha                 110.778808
_cell_angle_beta                  98.394896
_cell_angle_gamma                 93.257602
_cell_volume                      1585.72788536

loop_
_atom_site_label
_atom_site_type_symbol
_atom_type_description
_atom_site_fract_x
_atom_site_fract_y
_atom_site_fract_z
_atom_type_partial_charge
C1    C     C_R   0.490561 0.253724 0.441094 0.839984
C2    C     C_3   0.960192 0.443533 0.611174 0.576481
C3    C     C_3   0.917194 0.509337 0.500516 -0.124554
C4    C     C_3   0.960224 0.656760 0.548839 0.173385
C5    C     C_3   0.061342 0.658504 0.567501 0.168991
C6    C     C_1   0.824644 0.505262 0.500166 0.140176
C7    C     C_1   0.176356 0.509186 0.502617 0.136381
C8    C     C_1   0.251478 0.504250 0.502049 -0.086445
C9    C     C_2   0.482120 0.112806 0.410586 -0.305161
C10   C     C_2   0.459561 0.064017 0.508751 0.197196
C11   C     C_2   0.496321 0.884829 0.590469 -0.290898
C12   C     C_R   0.340548 0.500002 0.500433 0.787687
C13   C     C_2   0.467513 0.925333 0.481565 -0.133626
C14   C     C_2   0.509378 0.515595 0.082990 0.461400
C15   C     C_2   0.487975 0.498004 0.923689 -0.088548
C16   C     C_R   0.503268 0.745874 0.559075 0.900602
C17   C     C_R   0.659460 0.499609 0.499558 0.855051
C18   C     C_3   0.057306 0.440332 0.600309 -0.583596
C19   C     C_3   0.032971 0.445933 0.342147 -0.010911
C20   C     C_3   0.934665 0.429927 0.342453 -0.131035
C21   C     C_1   0.748983 0.502110 0.499512 0.005206
C22   C     C_3   0.084175 0.513833 0.501884 -0.020490
Cu1   Cu    Cu3+1 0.514650 0.521810 0.644910 1.029595
Cu2   Cu    Cu3+1 0.485350 0.478190 0.355090 1.037500
H1    H     H_    0.097832 0.484724 0.711128 0.221284
H2    H     H_    0.454044 0.856907 0.368406 0.194743
H3    H     H_    0.513113 0.953462 0.703119 0.167634
H4    H     H_    0.498618 0.048053 0.308756 0.157140
H5    H     H_    0.429111 0.438228 0.858027 0.131405
H6    H     H_    0.597491 0.597266 0.913115 0.291925
H7    H     H_    0.073545 0.337852 0.557369 0.204915
H8    H     H_    0.412453 0.380858 0.066742 0.165765
H9    H     H_    0.045618 0.511253 0.281822 0.255762
H10   H     H_    0.911745 0.325166 0.311689 0.217907
H11   H     H_    0.085503 0.692737 0.686935 0.165286
H12   H     H_    0.945409 0.711729 0.658134 0.174349
N1    N     N_2   0.463320 0.445430 0.137380 -0.347873
N2    N     N_2   0.536720 0.554500 0.862620 -0.250555
O1    O     O_R   0.507820 0.332330 0.577400 -0.538486
O2    O     O_R   0.483070 0.295500 0.332660 -0.582893
O3    O     O_R   0.391820 0.518430 0.622420 -0.585306
O4    O     O_R   0.367070 0.481600 0.377680 -0.567909
O5    O     O_R   0.516930 0.704500 0.667340 -0.567752
O6    O     O_R   0.492180 0.667670 0.422600 -0.532237
O7    O     O_R   0.632930 0.518400 0.622320 -0.557888
O8    O     O_R   0.608180 0.481570 0.377580 -0.522600
S1    S     S_3+6 0.912306 0.274342 0.570049 0.038160
O9    O     O_2   0.817204 0.269552 0.565730 -0.237869
O10   O     O_2   0.928615 0.178821 0.427226 -0.355007
O11   O     O_3   0.953971 0.219651 0.700975 -0.417886
H13   H     H_    0.012843 0.202608 0.684037 0.358934
S2    S     S_3+6 0.949829 0.535029 0.802082 0.027670
O12   O     O_2   0.857548 0.553595 0.811544 -0.245902
O13   O     O_2   0.980345 0.459515 0.896425 -0.229225
O14   O     O_3   0.008585 0.683243 0.874849 -0.588806
H14   H     H_    0.995746 0.723101 0.974975 0.416398
S3    S     S_3+6 0.911386 0.750263 0.443850 0.113195
O15   O     O_2   0.952067 0.737005 0.312733 -0.176303
O16   O     O_2   0.817176 0.706333 0.391967 -0.235035
O17   O     O_3   0.921489 0.909591 0.553567 -0.432837
H15   H     H_    0.888811 0.953054 0.494205 0.418762
N3    N     N_3   0.428857 0.145334 0.637510 -0.540983
H16   H     H_    0.408992 0.088575 0.694850 0.228048
H17   H     H_    0.373311 0.180436 0.602003 0.206067
S4    S     S_3+6 0.602746 0.636500 0.182066 0.047059
O18   O     O_2   0.625378 0.690442 0.345260 -0.234057
O19   O     O_2   0.679530 0.576403 0.125636 -0.279504
O20   O     O_3   0.589944 0.769287 0.136131 -0.572729
H18   H     H_    0.648436 0.815487 0.155423 0.392037
N4    N     N_3   0.062861 0.319694 0.263931 -0.572993
H19   H     H_    0.046368 0.250006 0.307926 0.270288
H20   H     H_    0.031571 0.284633 0.154783 0.258840
N5    N     N_3   0.887492 0.469806 0.229185 -0.432170
H21   H     H_    0.904989 0.417198 0.128763 0.271110
H22   H     H_    0.822121 0.440017 0.216143 0.266262
S5    S     S_3+6 0.123455 0.778054 0.520386 0.054111
O21   O     O_2   0.215066 0.793570 0.594746 -0.318427
O22   O     O_2   0.121183 0.733834 0.358118 -0.251281
O23   O     O_3   0.088624 0.926563 0.581608 -0.442781
H23   H     H_    0.123411 0.982240 0.545405 0.367865

loop_
_geom_bond_atom_site_label_1
_geom_bond_atom_site_label_2
_ccdc_geom_bond_type
O14   H14   S    
C4    H12   S    
Cu1   O7    S    
C2    C18   S    
Cu2   O4    S    
N5    H21   S    
C19   C20   S    
S5    O23   S    
C3    C6    S    
C7    C8    T    
S1    O10   D    
C12   O3    A    
S5    O22   D    
S3    O16   D    
Cu1   O5    S    
H6    N2    S    
C12   O4    A    
C1    O2    A    
C5    C22   S    
O20   H18   S    
S4    O19   D    
C4    S3    S    
N3    H17   S    
Cu1   Cu2   S    
N4    H19   S    
C9    C10   D    
C16   O6    A    
S2    O14   S    
C20   H10   S    
N5    H22   S    
C10   N3    S    
C18   H1    S    
S2    O13   D    
C15   H5    S    
S1    O11   S    
C19   C22   S    
C1    C9    S    
S5    O21   D    
Cu2   N1    S    
C19   H9    S    
S3    O17   S    
C6    C21   T    
C17   C21   S    
O17   H15   S    
C15   N2    D    
N3    H16   S    
C11   C16   S    
S1    O9    D    
C11   H3    S    
C8    C12   S    
S4    O20   S    
O11   H13   S    
C3    C20   S    
H8    N1    S    
C17   O8    A    
C16   O5    A    
C2    S2    S    
Cu2   O6    S    
C13   H2    S    
C3    C4    S    
C7    C22   S    
S2    O12   D    
C18   C22   S    
C17   O7    A    
C4    C5    S    
C10   C13   S    
C2    S1    S    
Cu1   N2    S    
Cu1   O3    S    
Cu2   O8    S    
C5    S5    S    
C2    C3    S    
C14   N1    D    
C11   C13   D    
S3    O15   D    
Cu1   O1    S    
C5    H11   S    
Cu2   O2    S    
C14   S4    S    
C20   N5    S    
C1    O1    A    
O23   H23   S    
S4    O18   D    
C14   C15   S    
C19   N4    S    
N4    H20   S    
C18   H7    S    
C9    H4    S    
