data_mof_unit_46093.cif
_audit_creation_date              2012-10-26T18:33:35-0400
_audit_creation_method            fapswitch 2.2
_symmetry_space_group_name_H-M    P1
_symmetry_Int_Tables_number       1
_space_group_crystal_system       triclinic
_cell_length_a                    14.981215
_cell_length_b                    13.778379
_cell_length_c                    10.785113
_cell_angle_alpha                 89.577478
_cell_angle_beta                  87.487271
_cell_angle_gamma                 90.614023
_cell_volume                      2223.8923582

loop_
_atom_site_label
_atom_site_type_symbol
_atom_type_description
_atom_site_fract_x
_atom_site_fract_y
_atom_site_fract_z
_atom_type_partial_charge
C1    C     C_R   0.328930 0.499593 0.500374 0.534681
C2    C     C_R   0.037882 0.431580 0.715334 -0.000864
C3    C     C_R   0.089883 0.464308 0.609404 0.022300
C4    C     C_R   0.499792 0.500342 0.259598 0.537571
C5    C     C_R   0.046707 0.501576 0.504865 0.043175
C6    C     C_R   0.097105 0.539243 0.400959 0.012865
C7    C     C_R   0.053940 0.576419 0.298498 -0.141199
C8    C     C_R   0.961103 0.574994 0.297017 -0.144928
C9    C     C_R   0.183653 0.461192 0.604088 -0.152916
C10   C     C_R   0.232527 0.499079 0.501345 -0.010062
C11   C     C_R   0.189968 0.539138 0.401066 -0.140343
C12   C     C_3   0.589337 0.467544 0.921584 -0.234236
C13   C     C_R   0.427960 0.796498 0.545779 0.145336
C14   C     C_R   0.428231 0.201265 0.546068 0.142407
C15   C     C_R   0.574750 0.793094 0.454016 0.010335
C16   C     C_R   0.573122 0.209666 0.449017 0.005340
C17   C     C_R   0.580682 0.897096 0.453301 -0.033755
C18   C     C_R   0.579254 0.105921 0.448113 -0.029576
C19   C     C_R   0.671025 0.500371 0.499848 0.550640
C20   C     C_R   0.501681 0.948571 0.480177 0.019385
C21   C     C_R   0.501372 0.051844 0.479407 0.017556
C22   C     C_R   0.423045 0.896846 0.516935 0.007977
C23   C     C_R   0.817203 0.537958 0.398900 -0.154081
C24   C     C_R   0.422968 0.101191 0.516934 0.000855
C25   C     C_R   0.662022 0.950743 0.427363 -0.001275
C26   C     C_R   0.660471 0.055476 0.420102 -0.000652
C27   C     C_R   0.342413 0.048321 0.531320 -0.165910
C28   C     C_R   0.342422 0.947685 0.530878 -0.161585
C29   C     C_R   0.498310 0.499889 0.739987 0.536878
C30   C     C_3   0.486254 0.607645 0.069137 -0.103923
C31   C     C_3   0.418400 0.436899 0.074495 -0.100159
C32   C     C_3   0.475892 0.603090 0.927346 -0.225438
C33   C     C_3   0.424057 0.430533 0.931068 -0.225294
C34   C     C_R   0.767281 0.500994 0.501117 -0.002881
C35   C     C_3   0.589337 0.463768 0.064574 -0.229445
C36   C     C_3   0.499172 0.500996 0.121210 0.063131
C37   C     C_3   0.497175 0.500262 0.877413 0.031788
C38   C     C_3   0.560681 0.684341 0.096194 -0.251577
C39   C     C_3   0.522887 0.787702 0.089413 -0.306723
C40   C     C_3   0.594529 0.864965 0.105622 -0.459805
C41   C     C_3   0.395599 0.335402 0.134336 -0.238353
C42   C     C_3   0.469526 0.258208 0.126886 -0.277771
C43   C     C_3   0.432571 0.158119 0.164879 -0.453317
C44   C     C_3   0.078906 0.398719 0.834482 -0.254466
C45   C     C_R   0.809002 0.464076 0.604391 -0.141945
C46   C     C_3   0.115925 0.485293 0.905952 -0.294166
C47   C     C_3   0.154604 0.452616 0.027781 -0.463906
C48   C     C_3   0.358595 0.752757 0.638725 -0.217144
C49   C     C_3   0.354383 0.805971 0.764108 -0.333452
C50   C     C_3   0.273865 0.771615 0.845304 -0.471917
C51   C     C_3   0.360422 0.241744 0.640952 -0.218767
C52   C     C_3   0.359688 0.185887 0.765649 -0.327237
C53   C     C_3   0.279856 0.214559 0.849228 -0.477459
C54   C     C_3   0.751752 0.898611 0.425862 -0.248213
C55   C     C_3   0.794957 0.886027 0.294332 -0.302656
C56   C     C_R   0.902058 0.465194 0.606985 -0.007608
C57   C     C_3   0.800863 0.779914 0.255989 -0.456084
C58   C     C_3   0.745913 0.114094 0.389406 -0.260070
C59   C     C_3   0.784608 0.158254 0.506385 -0.300312
C60   C     C_3   0.866004 0.222465 0.473532 -0.448083
C61   C     C_R   0.953082 0.501742 0.503819 0.051872
C62   C     C_R   0.910276 0.538318 0.399171 0.013331
C63   C     C_R   0.944380 0.431291 0.711549 -0.138509
Cu1   Cu    Cu3+1 0.499990 0.597420 0.500010 0.892240
Cu2   Cu    Cu3+1 0.499990 0.402580 0.500010 0.884544
H1    H     H_    0.220102 0.431137 0.679499 0.095992
H2    H     H_    0.357259 0.479585 0.098011 0.092306
H3    H     H_    0.406244 0.621697 0.906279 0.100027
H4    H     H_    0.358274 0.449478 0.893666 0.082439
H5    H     H_    0.519560 0.657972 0.877849 0.146455
H6    H     H_    0.439149 0.355916 0.899821 0.139933
H7    H     H_    0.645616 0.508860 0.096982 0.093412
H8    H     H_    0.603261 0.389088 0.095526 0.110009
H9    H     H_    0.642308 0.518938 0.885529 0.108318
H10   H     H_    0.605865 0.394554 0.884023 0.117293
H11   H     H_    0.783363 0.565188 0.319058 0.090380
H12   H     H_    0.229412 0.568433 0.322380 0.097406
H13   H     H_    0.768800 0.435775 0.682933 0.099413
H14   H     H_    0.904097 0.405508 0.791336 0.097109
H15   H     H_    0.619064 0.859545 0.200370 0.169268
H16   H     H_    0.650890 0.855790 0.036472 0.148953
H17   H     H_    0.565658 0.938126 0.093446 0.139942
H18   H     H_    0.492909 0.800074 0.998553 0.151839
H19   H     H_    0.469661 0.796683 0.163483 0.170340
H20   H     H_    0.590033 0.674440 0.187465 0.172137
H21   H     H_    0.618079 0.677466 0.027922 0.134239
H22   H     H_    0.399288 0.160792 0.258801 0.167859
H23   H     H_    0.091995 0.606404 0.219282 0.103835
H24   H     H_    0.383834 0.132422 0.097561 0.142157
H25   H     H_    0.488055 0.105385 0.166895 0.139245
H26   H     H_    0.500182 0.253538 0.031698 0.144254
H27   H     H_    0.522796 0.275600 0.191161 0.185642
H28   H     H_    0.371244 0.344103 0.232303 0.177177
H29   H     H_    0.336812 0.305988 0.087038 0.123408
H30   H     H_    0.100978 0.422027 0.091386 0.161320
H31   H     H_    0.206413 0.396937 0.010611 0.140843
H32   H     H_    0.186058 0.515608 0.073064 0.127478
H33   H     H_    0.169176 0.523759 0.849449 0.154367
H34   H     H_    0.929066 0.603005 0.216228 0.101524
H35   H     H_    0.061417 0.537634 0.926849 0.162227
H36   H     H_    0.028011 0.360496 0.895775 0.132925
H37   H     H_    0.131634 0.344859 0.813445 0.131090
H38   H     H_    0.211065 0.795255 0.803719 0.152887
H39   H     H_    0.272350 0.691326 0.854548 0.138850
H40   H     H_    0.277260 0.803673 0.939166 0.141047
H41   H     H_    0.416617 0.791562 0.812789 0.148969
H42   H     H_    0.349755 0.885699 0.753388 0.169212
H43   H     H_    0.292055 0.750979 0.597119 0.127111
H44   H     H_    0.374757 0.678416 0.664621 0.211617
H45   H     H_    0.630178 0.750791 0.419357 0.132696
H46   H     H_    0.280722 0.293900 0.864735 0.139189
H47   H     H_    0.216721 0.193527 0.805766 0.147184
H48   H     H_    0.282239 0.176564 0.939981 0.141696
H49   H     H_    0.356176 0.106219 0.753745 0.170224
H50   H     H_    0.422511 0.201739 0.813026 0.154769
H51   H     H_    0.375896 0.316762 0.665250 0.208174
H52   H     H_    0.293048 0.241451 0.601824 0.120297
H53   H     H_    0.840689 0.739402 0.323043 0.163737
H54   H     H_    0.733538 0.746376 0.252557 0.138137
H55   H     H_    0.834418 0.774858 0.162447 0.133037
H56   H     H_    0.628001 0.254267 0.413789 0.137086
H57   H     H_    0.758857 0.927548 0.223917 0.157773
H58   H     H_    0.864287 0.915825 0.292715 0.142759
H59   H     H_    0.798368 0.940544 0.482722 0.125265
H60   H     H_    0.747206 0.828486 0.476938 0.138514
H61   H     H_    0.918452 0.180082 0.422881 0.143991
H62   H     H_    0.846719 0.284887 0.415025 0.164512
H63   H     H_    0.893988 0.250829 0.559895 0.153101
H64   H     H_    0.734044 0.202617 0.557683 0.169357
H65   H     H_    0.804753 0.099205 0.569652 0.152551
H66   H     H_    0.798237 0.070199 0.342427 0.142094
H67   H     H_    0.279313 0.084054 0.549469 0.112086
H68   H     H_    0.732790 0.171323 0.319773 0.117594
H69   H     H_    0.279264 0.910254 0.548492 0.112642
H70   H     H_    0.422129 0.634488 0.111951 0.127404
N1    N     N_R   0.499930 0.743810 0.499950 -0.238861
N2    N     N_R   0.499930 0.256190 0.499950 -0.241036
O1    O     O_R   0.370250 0.582280 0.500040 -0.519123
O2    O     O_R   0.370250 0.417720 0.500040 -0.523750
O3    O     O_R   0.499970 0.582270 0.317700 -0.511021
O4    O     O_R   0.499970 0.417730 0.317700 -0.509972
O5    O     O_R   0.629730 0.582260 0.499980 -0.508240
O6    O     O_R   0.629730 0.417740 0.499980 -0.509963
O7    O     O_R   0.500000 0.582270 0.682320 -0.522250
O8    O     O_R   0.500000 0.417730 0.682320 -0.520055

loop_
_geom_bond_atom_site_label_1
_geom_bond_atom_site_label_2
_ccdc_geom_bond_type
C4    C36   S    
C59   H65   S    
C50   H39   S    
C12   H9    S    
C18   C21   A    
C41   C42   S    
C16   N2    A    
C18   C26   A    
C24   C27   A    
C23   H11   S    
Cu1   N1    S    
C7    C8    A    
C49   H42   S    
C41   H29   S    
C63   H14   S    
C32   H3    S    
C52   C53   S    
C31   H2    S    
C43   H24   S    
C38   H21   S    
C28   H69   S    
C8    H34   S    
C39   H19   S    
C29   O8    A    
C5    C6    A    
Cu2   O6    S    
C17   C20   A    
C30   C38   S    
C42   H26   S    
C14   C24   A    
C12   C37   S    
C9    H1    S    
C54   H59   S    
C11   H12   S    
C46   C47   S    
C23   C62   A    
C41   H28   S    
C14   C51   S    
C45   C56   A    
C2    C44   S    
C50   H40   S    
C47   H31   S    
C31   C33   S    
C45   H13   S    
C35   H8    S    
C9    C10   A    
C1    O2    A    
C33   H4    S    
C57   H54   S    
Cu2   N2    S    
C53   H46   S    
C48   H44   S    
C46   H33   S    
C55   H57   S    
C59   C60   S    
C22   C28   A    
C27   H67   S    
C15   H45   S    
C53   H48   S    
C58   H68   S    
C54   H60   S    
C55   H58   S    
C43   H25   S    
C38   H20   S    
C51   C52   S    
C40   H17   S    
C60   H63   S    
C25   C54   S    
C6    C11   A    
C44   H37   S    
Cu1   O1    S    
C15   N1    A    
Cu1   O7    S    
C58   C59   S    
C29   O7    A    
C33   C37   S    
C35   C36   S    
C16   H56   S    
C3    C9    A    
C4    O3    A    
Cu2   O4    S    
C7    H23   S    
C14   N2    A    
C58   H66   S    
C23   C34   A    
C40   H15   S    
C56   C63   A    
C5    C61   A    
C34   C45   A    
C32   C37   S    
C12   C35   S    
C26   C58   S    
C49   H41   S    
C57   H55   S    
C53   H47   S    
C48   C49   S    
C20   C22   A    
C35   H7    S    
C49   C50   S    
C19   O5    A    
C55   C57   S    
C48   H43   S    
C13   N1    A    
C21   C24   A    
C42   C43   S    
Cu2   O8    S    
C39   C40   S    
C2    C63   A    
Cu1   O3    S    
C52   H50   S    
C15   C17   A    
C46   H35   S    
C54   C55   S    
C59   H64   S    
C19   O6    A    
C31   C41   S    
C31   C36   S    
C40   H16   S    
C60   H62   S    
C1    C10   S    
C3    C5    A    
C19   C34   S    
C13   C48   S    
C32   H5    S    
C44   H36   S    
C6    C7    A    
C52   H49   S    
C51   H51   S    
C47   H32   S    
C30   C36   S    
C43   H22   S    
Cu1   Cu2   S    
C60   H61   S    
C2    C3    A    
C25   C26   A    
C17   C25   A    
C4    O4    A    
C30   C32   S    
C38   C39   S    
Cu1   O5    S    
C51   H52   S    
C13   C22   A    
C42   H27   S    
C61   C62   A    
C10   C11   A    
C33   H6    S    
C39   H18   S    
Cu2   O2    S    
C50   H38   S    
C20   C21   A    
C16   C18   A    
C30   H70   S    
C12   H10   S    
C29   C37   S    
C27   C28   A    
C47   H30   S    
C56   C61   A    
C44   C46   S    
C1    O1    A    
C8    C62   A    
C57   H53   S    
