data_mof_unit_20837.cif
_audit_creation_date              2013-03-05T16:48:11-0500
_audit_creation_method            fapswitch 2.2
_symmetry_space_group_name_H-M    P1
_symmetry_Int_Tables_number       1
_space_group_crystal_system       triclinic
_cell_length_a                    10.858658
_cell_length_b                    12.324432
_cell_length_c                    13.243519
_cell_angle_alpha                 116.515159
_cell_angle_beta                  77.224338
_cell_angle_gamma                 100.96123
_cell_volume                      1538.1437665

loop_
_atom_site_label
_atom_site_type_symbol
_atom_site_description
_atom_site_fract_x
_atom_site_fract_y
_atom_site_fract_z
_atom_type_partial_charge
O1    O     O_R   0.536940 0.972510 0.318130 -0.529639
O2    O     O_R   0.487330 0.806530 0.359650 -0.612670
C1    C     C_R   0.513700 0.854665 0.286678 0.786267
O3    O     O_R   0.705160 0.082990 0.479250 -0.541582
O4    O     O_R   0.655550 0.917010 0.520760 -0.597112
C2    C     C_R   0.736900 0.001278 0.503444 0.809833
Cu1   Cu    Cu3+1 0.529370 0.098270 0.475420 0.998995
Cu2   Cu    Cu3+1 0.470630 0.901730 0.524580 0.943241
O5    O     O_R   0.512670 0.193470 0.640350 -0.576189
O6    O     O_R   0.463060 0.027490 0.681870 -0.596186
O7    O     O_R   0.344450 0.082990 0.479240 -0.586762
O8    O     O_R   0.294840 0.917010 0.520750 -0.583623
C3    C     C_R   0.481144 0.144864 0.713174 0.775069
C4    C     C_R   0.263006 0.000153 0.498616 0.775746
H1    H     H_    0.592137 0.707276 0.791233 0.192486
C5    C     C_R   0.648140 0.875143 0.773762 -0.131058
H2    H     H_    0.575131 0.922593 0.841547 0.203568
C6    C     C_R   0.732233 0.935923 0.715207 -0.138812
H3    H     H_    0.724417 0.031147 0.739992 0.142166
C7    C     C_R   0.823237 0.873657 0.622848 -0.052323
C8    C     C_R   0.835330 0.750314 0.595280 0.320248
C9    C     C_R   0.753951 0.692145 0.659574 0.220305
C10   C     C_R   0.658341 0.753607 0.745493 -0.240041
C11   C     C_R   0.040388 0.944215 0.557358 -0.148766
H4    H     H_    0.071638 0.900800 0.601384 0.162789
C12   C     C_R   0.129578 0.002620 0.498933 -0.091225
C13   C     C_R   0.088960 0.065065 0.446815 0.002417
C14   C     C_R   0.959827 0.066075 0.454491 -0.198431
H5    H     H_    0.929707 0.114198 0.414599 0.211322
C15   C     C_R   0.870233 0.002778 0.508112 -0.091074
C16   C     C_R   0.910884 0.940863 0.561071 0.069717
C17   C     C_R   0.173361 0.254964 0.418763 -0.133261
H6    H     H_    0.108612 0.305515 0.493703 0.166085
C18   C     C_R   0.255022 0.316229 0.358973 -0.182229
H7    H     H_    0.252830 0.413045 0.387472 0.179585
C19   C     C_R   0.341096 0.253141 0.263667 -0.188527
H8    H     H_    0.406332 0.301757 0.219529 0.171383
C20   C     C_R   0.343074 0.127792 0.225734 0.315242
C21   C     C_R   0.259905 0.065572 0.284161 -0.101054
H9    H     H_    0.261785 0.968391 0.254186 0.135173
C22   C     C_R   0.176283 0.129377 0.382713 0.073068
C23   C     C_R   0.320311 0.280509 0.016887 -0.173923
H10   H     H_    0.317362 0.100172 0.882065 0.156062
H11   H     H_    0.240530 0.466293 0.208664 0.173114
H12   H     H_    0.243961 0.253542 0.071991 0.158555
C24   C     C_R   0.455673 0.227179 0.834167 -0.054950
C25   C     C_R   0.628544 0.807226 0.092152 -0.109045
C26   C     C_R   0.675720 0.722919 0.985415 -0.148633
C27   C     C_R   0.627498 0.601126 0.947967 -0.189207
C28   C     C_R   0.525368 0.561286 0.015128 0.080302
C29   C     C_R   0.475354 0.648809 0.123802 0.069935
C30   C     C_R   0.472248 0.437333 0.978466 0.083149
C31   C     C_R   0.371894 0.402744 0.051011 0.136224
C32   C     C_R   0.320487 0.490952 0.154738 -0.232121
C33   C     C_R   0.368711 0.612440 0.188996 -0.175875
C34   C     C_R   0.512576 0.347002 0.870092 -0.242276
C35   C     C_R   0.362679 0.192834 0.909164 -0.149714
C36   C     C_R   0.533438 0.770908 0.164628 -0.099874
H13   H     H_    0.584242 0.367651 0.808933 0.165973
H14   H     H_    0.672355 0.899765 0.120242 0.219337
H15   H     H_    0.673576 0.541056 0.866416 0.175820
H16   H     H_    0.753525 0.751566 0.932660 0.174839
H17   H     H_    0.319682 0.677593 0.266611 0.187586
C37   C     C_R   0.697599 0.346730 0.325415 -0.229533
H18   H     H_    0.735864 0.543540 0.289398 0.187093
H19   H     H_    0.775216 0.346692 0.257887 0.174818
N1    N     N_R   0.573890 0.246290 0.438210 -0.199673
C38   C     C_R   0.328406 0.761066 0.646638 0.116310
C39   C     C_R   0.290583 0.664924 0.678646 -0.206299
C40   C     C_R   0.353973 0.560380 0.622911 -0.196258
C41   C     C_R   0.456424 0.551023 0.534028 0.003112
C42   C     C_R   0.491749 0.652327 0.504485 0.271498
C43   C     C_R   0.525713 0.446023 0.473740 -0.012908
C44   C     C_R   0.626381 0.445273 0.384943 0.106470
C45   C     C_R   0.658273 0.544048 0.357085 -0.204295
C46   C     C_R   0.594004 0.646167 0.417005 -0.170727
C47   C     C_R   0.501262 0.341602 0.497598 0.033341
C48   C     C_R   0.671215 0.248374 0.353351 0.489233
N2    N     N_R   0.426890 0.754320 0.561170 -0.210163
H20   H     H_    0.425478 0.334280 0.562891 0.131680
H21   H     H_    0.278715 0.841887 0.690365 0.122042
H22   H     H_    0.320791 0.488422 0.650663 0.142843
H23   H     H_    0.211852 0.671443 0.746782 0.160904
H24   H     H_    0.629058 0.718883 0.392348 0.214391
Br1   Br    Br    0.459725 0.041998 0.094471 -0.593839
Br2   Br    Br    0.778377 0.120708 0.267764 -0.539282
N3    N     N_R   0.927867 0.684152 0.501814 0.127237
O9    O     O_R   0.938084 0.685704 0.402695 -0.383863
O10   O     O_R   0.008004 0.628963 0.517431 -0.342955
Br3   Br    Br    0.768808 0.528207 0.631862 -0.530597

loop_
_geom_bond_atom_site_label_1
_geom_bond_atom_site_label_2
_geom_bond_distance
_ccdc_geom_bond_type
N3    O9    1.301171 A    
C8    N3    1.437729 S    
C43   C44   1.415465 A    
N1    C47   1.368744 A    
C42   C46   1.401951 A    
C46   H24   1.063599 S    
Cu1   Cu2   2.708288 S    
C21   C22   1.406180 A    
C31   C32   1.392384 A    
Cu1   O7    1.972256 S    
C12   C13   1.414648 A    
C38   H21   1.081592 S    
C19   H8    1.081972 S    
C11   C12   1.398392 A    
C6    H3    1.083445 S    
C42   N2    1.378377 A    
C23   C31   1.403797 A    
O4    C2    1.298344 A    
O7    C4    1.296314 A    
C6    C7    1.406142 A    
C18   H7    1.082350 S    
O5    C3    1.303086 A    
C25   H14   1.076350 S    
C5    H2    1.081289 S    
C33   H17   1.080919 S    
Cu2   N2    2.029059 S    
C28   C30   1.424310 A    
C17   C22   1.405987 A    
C40   C41   1.408888 A    
C18   C19   1.396276 A    
C48   Br2   1.906576 S    
C38   N2    1.358732 A    
H1    C10   1.081636 S    
C8    C9    1.411085 A    
N1    C48   1.367737 A    
O3    Cu1   1.967174 S    
C23   C35   1.391721 A    
C27   H15   1.073696 S    
C44   C45   1.386417 A    
C20   Br1   1.907554 S    
C11   H4    1.084680 S    
O3    C2    1.305579 A    
C21   H9    1.083371 S    
C41   C43   1.435356 A    
C38   C39   1.392396 A    
O1    C1    1.309018 A    
C23   H12   1.083763 S    
C37   H19   1.084683 S    
C45   C46   1.377709 A    
C39   H23   1.082490 S    
C13   C22   1.485600 S    
C26   H16   1.082730 S    
C25   C26   1.382371 A    
C15   C16   1.418410 A    
Cu2   O8    1.967173 S    
C28   C29   1.421545 A    
C9    Br3   1.917977 S    
C29   C36   1.420568 A    
C4    C12   1.453987 S    
Cu2   O6    1.959134 S    
C26   C27   1.387272 A    
C2    C15   1.459010 S    
O8    C4    1.305027 A    
C5    C10   1.392870 A    
N3    O10   1.301114 A    
C24   C35   1.398060 A    
C30   C31   1.420643 A    
C47   H20   1.076924 S    
C3    C24   1.460323 S    
Cu1   O5    1.948839 S    
C32   C33   1.386446 A    
C14   H5    1.080646 S    
C43   C47   1.422152 A    
O1    Cu1   1.959135 S    
C37   C48   1.381958 A    
O2    Cu2   1.948840 S    
O6    C3    1.302120 A    
O4    Cu2   1.972258 S    
H18   C45   1.084627 S    
C34   H13   1.075328 S    
C17   H6    1.083215 S    
C19   C20   1.397962 A    
O2    C1    1.301066 A    
C11   C16   1.389523 A    
C41   C42   1.430605 A    
C25   C36   1.399134 A    
C20   C21   1.399908 A    
C14   C15   1.399923 A    
C29   C33   1.411832 A    
C39   C40   1.393597 A    
C40   H22   1.078126 S    
H10   C35   1.083318 S    
Cu1   N1    2.041178 S    
C1    C36   1.471492 S    
H11   C32   1.084174 S    
C7    C8    1.421447 A    
C5    C6    1.393433 A    
C27   C28   1.417286 A    
C24   C34   1.394503 A    
C13   C14   1.385335 A    
C37   C44   1.388236 A    
C9    C10   1.397636 A    
C30   C34   1.404238 A    
C17   C18   1.397162 A    
C7    C16   1.490666 S    
