data_mof_unit_56468.cif
_audit_creation_date              2012-12-11T14:41:06-0500
_audit_creation_method            fapswitch 2.2
_symmetry_space_group_name_H-M    P1
_symmetry_Int_Tables_number       1
_space_group_crystal_system       triclinic
_cell_length_a                    6.933521
_cell_length_b                    17.808778
_cell_length_c                    19.061168
_cell_angle_alpha                 89.903823
_cell_angle_beta                  89.928772
_cell_angle_gamma                 91.441986
_cell_volume                      2352.87545083

loop_
_atom_site_label
_atom_site_type_symbol
_atom_type_description
_atom_site_fract_x
_atom_site_fract_y
_atom_site_fract_z
_atom_type_partial_charge
O1    O     O_R   0.377350 0.828520 0.186660 -0.551327
O2    O     O_R   0.622650 0.171480 0.813340 -0.538207
O3    O     O_R   0.122650 0.171480 0.686660 -0.518356
O4    O     O_R   0.877350 0.828520 0.313340 -0.520744
O5    O     O_R   0.877350 0.671480 0.313340 -0.507791
O6    O     O_R   0.122650 0.328520 0.686660 -0.513339
O7    O     O_R   0.622650 0.328520 0.813340 -0.529752
O8    O     O_R   0.377350 0.671480 0.186660 -0.543716
O9    O     O_R   0.707090 0.671930 0.178410 -0.521589
O10   O     O_R   0.292910 0.328070 0.821590 -0.535805
O11   O     O_R   0.792910 0.328070 0.678410 -0.539102
O12   O     O_R   0.207090 0.671930 0.321590 -0.537955
O13   O     O_R   0.207090 0.828070 0.321590 -0.553527
O14   O     O_R   0.792910 0.171930 0.678410 -0.552788
O15   O     O_R   0.292910 0.171930 0.821590 -0.534345
O16   O     O_R   0.707090 0.828070 0.178410 -0.524910
C1    C     C_R   0.536269 0.646489 0.160948 0.853127
C2    C     C_R   0.463637 0.354040 0.838373 0.739933
C3    C     C_R   0.963620 0.354249 0.661696 0.789946
C4    C     C_R   0.036329 0.645491 0.337826 0.773283
C5    C     C_R   0.040000 0.853709 0.338966 0.792729
C6    C     C_R   0.960182 0.146717 0.660803 0.811599
C7    C     C_R   0.459674 0.146126 0.838620 0.730003
C8    C     C_R   0.540616 0.854269 0.161219 0.770624
O17   O     O_3   0.543850 0.750000 0.294270 -0.362644
O18   O     O_3   0.456150 0.250000 0.705730 -0.363017
O19   O     O_3   0.956150 0.250000 0.794270 -0.379100
O20   O     O_3   0.043850 0.750000 0.205730 -0.382981
V1    V     V_3+5 0.818700 0.750000 0.241790 1.650169
V2    V     V_3+5 0.181300 0.250000 0.758210 1.621652
V3    V     V_3+5 0.681300 0.250000 0.741790 1.581932
V4    V     V_3+5 0.318700 0.750000 0.258210 1.574109
C9    C     C_R   0.981661 0.418198 0.611020 -0.121359
C10   C     C_R   0.020376 0.582039 0.388790 -0.127858
C11   C     C_R   0.515972 0.584721 0.108238 -0.112906
C12   C     C_R   0.479171 0.419209 0.887409 -0.135373
C13   C     C_R   0.462504 0.082166 0.889150 -0.111489
C14   C     C_R   0.543183 0.916077 0.107394 -0.111848
C15   C     C_R   0.038791 0.916948 0.390514 -0.081180
C16   C     C_R   0.962658 0.084076 0.608858 -0.123857
C17   C     C_R   0.957017 0.448795 0.414984 -0.076374
C18   C     C_R   0.121062 0.541917 0.579893 -0.065214
C19   C     C_R   0.588245 0.548749 0.912759 -0.109866
C20   C     C_R   0.336478 0.472191 0.071243 -0.066267
C21   C     C_R   0.718026 0.023164 0.053376 -0.033446
C22   C     C_R   0.346825 0.956651 0.925916 -0.053003
C23   C     C_R   0.841219 0.960456 0.570517 -0.106445
C24   C     C_R   0.163594 0.040105 0.428451 -0.132466
C25   C     C_R   0.976806 0.508032 0.365236 -0.056708
C26   C     C_R   0.080820 0.485486 0.630970 -0.078348
C27   C     C_R   0.562197 0.488650 0.864303 -0.049713
C28   C     C_R   0.403848 0.519723 0.125500 -0.121187
C29   C     C_R   0.693226 0.971804 0.109449 -0.070024
C30   C     C_R   0.355805 0.014894 0.874901 -0.061978
C31   C     C_R   0.847498 0.018692 0.621016 -0.066229
C32   C     C_R   0.167277 0.979171 0.381181 -0.095710
C33   C     C_R   0.049920 0.595644 0.461198 -0.082080
C34   C     C_R   0.918183 0.409081 0.540898 -0.073039
C35   C     C_R   0.418270 0.411186 0.957994 -0.073193
C36   C     C_R   0.585859 0.594284 0.038477 -0.096001
C37   C     C_R   0.414224 0.914481 0.049494 -0.066095
C38   C     C_R   0.567075 0.088990 0.952603 -0.071066
C39   C     C_R   0.080641 0.088912 0.548105 -0.098966
C40   C     C_R   0.910943 0.916104 0.448720 -0.120696
C41   C     C_R   0.047845 0.534485 0.510161 0.112938
C42   C     C_R   0.971588 0.463647 0.488503 0.108680
C43   C     C_R   0.430007 0.473867 0.004801 0.142757
C44   C     C_R   0.538377 0.539397 0.985294 0.043753
C45   C     C_R   0.442769 0.965619 0.991852 0.098494
C46   C     C_R   0.577162 0.026402 0.999315 0.099912
C47   C     C_R   0.061622 0.033592 0.493628 0.077484
C48   C     C_R   0.936184 0.969785 0.504262 0.009869
C49   C     C_2   0.780492 0.345826 0.525281 0.488828
H1    H     H_    0.802818 0.290338 0.546944 0.049174
O21   O     O_2   0.636904 0.356099 0.489828 -0.504813
C50   C     C_2   0.055512 0.675215 0.485360 0.502770
H2    H     H_    0.129121 0.718564 0.454649 0.027187
O22   O     O_2   0.969859 0.693502 0.538436 -0.513077
C51   C     C_2   0.726015 0.657024 0.024271 0.446054
H3    H     H_    0.861878 0.645666 0.998517 0.044740
O23   O     O_2   0.688329 0.721759 0.038930 -0.520332
C52   C     C_2   0.369595 0.334048 0.984703 0.469481
H4    H     H_    0.305221 0.291717 0.950646 0.019572
O24   O     O_2   0.407905 0.316099 0.044851 -0.491406
C53   C     C_2   0.637853 0.165213 0.974792 0.437952
H5    H     H_    0.687885 0.206539 0.936740 0.034830
O25   O     O_2   0.633576 0.183681 0.036432 -0.492501
C54   C     C_2   0.242351 0.863011 0.052662 0.441101
H6    H     H_    0.257811 0.804211 0.065950 0.077255
O26   O     O_2   0.081375 0.886506 0.041364 -0.539183
C55   C     C_2   0.739452 0.864208 0.448214 0.396416
H7    H     H_    0.597205 0.886522 0.457072 0.065523
O27   O     O_2   0.756148 0.796504 0.441873 -0.515621
C56   C     C_2   0.234294 0.148630 0.545085 0.476346
H8    H     H_    0.382544 0.133525 0.535136 0.013270
O28   O     O_2   0.195444 0.214854 0.550885 -0.508617
C57   C     C_2   0.139892 0.498556 0.705686 0.393317
H9    H     H_    0.254659 0.538358 0.718649 0.066744
O29   O     O_2   0.057192 0.466855 0.754386 -0.536258
C58   C     C_2   0.956717 0.490679 0.288568 0.384325
H10   H     H_    0.985548 0.435043 0.268930 0.020031
O30   O     O_2   0.904799 0.537339 0.246137 -0.525923
C59   C     C_2   0.370143 0.495980 0.200066 0.411036
H11   H     H_    0.305099 0.441468 0.211612 0.038998
O31   O     O_2   0.424966 0.533886 0.249811 -0.516932
C60   C     C_2   0.622692 0.500141 0.789225 0.403523
H12   H     H_    0.723529 0.545013 0.774985 0.064223
O32   O     O_2   0.559785 0.460720 0.741780 -0.530766
C61   C     C_2   0.253748 0.004004 0.806377 0.406205
H13   H     H_    0.126177 0.967937 0.802957 0.080910
O33   O     O_2   0.312535 0.033826 0.752512 -0.539299
C62   C     C_2   0.824542 0.977941 0.171060 0.418242
H14   H     H_    0.978165 0.987336 0.163590 0.094953
O34   O     O_2   0.760844 0.974273 0.230760 -0.530294
C63   C     C_2   0.296268 0.985097 0.318559 0.386207
H15   H     H_    0.442467 0.007362 0.324222 0.069095
O35   O     O_2   0.238607 0.968064 0.260129 -0.527173
C64   C     C_2   0.744951 0.007710 0.689418 0.398419
H16   H     H_    0.606291 0.978697 0.691388 0.151091
O36   O     O_2   0.816432 0.029270 0.744544 -0.537363
C65   C     C_2   0.945716 0.370255 0.388776 0.461962
H17   H     H_    0.843756 0.354250 0.347994 0.064732
O37   O     O_2   0.054483 0.323321 0.411713 -0.462531
C66   C     C_2   0.261394 0.603615 0.597573 0.441908
H18   H     H_    0.245616 0.635859 0.645363 0.058414
O38   O     O_2   0.397550 0.618218 0.558743 -0.495502
C67   C     C_2   0.640016 0.624045 0.883956 0.386120
H19   H     H_    0.777037 0.633895 0.857555 0.045397
O39   O     O_2   0.527138 0.675280 0.888810 -0.459141
C68   C     C_2   0.145018 0.432606 0.080280 0.446478
H20   H     H_    0.087040 0.419583 0.131727 0.050559
O40   O     O_2   0.042857 0.418166 0.029651 -0.524260
C69   C     C_2   0.903664 0.067031 0.047614 0.453421
H21   H     H_    0.971535 0.091539 0.093705 0.064128
O41   O     O_2   0.984530 0.074669 0.990984 -0.530636
C70   C     C_2   0.265618 0.882108 0.904442 0.441400
H22   H     H_    0.121580 0.876781 0.882672 0.062780
O42   O     O_2   0.361773 0.825945 0.910211 -0.475081
C71   C     C_2   0.763866 0.885203 0.592170 0.358418
H23   H     H_    0.855810 0.836941 0.588640 0.141328
O43   O     O_2   0.595811 0.875933 0.610051 -0.523286
C72   C     C_2   0.244295 0.113181 0.402796 0.441371
H24   H     H_    0.393760 0.118533 0.386251 0.035163
O44   O     O_2   0.140583 0.167250 0.397562 -0.453421

loop_
_geom_bond_atom_site_label_1
_geom_bond_atom_site_label_2
_ccdc_geom_bond_type
C28   C59   S    
C9    C34   A    
C49   H1    S    
O13   V4    S    
C35   C52   S    
O14   V3    S    
C12   C35   A    
C62   O34   D    
C13   C38   A    
C18   C66   S    
C36   C51   S    
O5    C4    A    
C53   H5    S    
C15   C40   A    
C39   C56   S    
O11   C3    A    
C16   C39   A    
C33   C50   S    
C23   C31   A    
O20   V1    S    
C50   O22   D    
C61   O33   D    
C60   H12   S    
C20   C68   S    
C63   H15   S    
C27   C60   S    
C38   C46   A    
C17   C65   S    
C64   H16   S    
C22   C45   A    
C35   C43   A    
C34   C42   A    
C19   C44   A    
C63   O35   D    
C18   C41   A    
C8    C14   S    
O4    V1    S    
O11   V3    S    
O9    V1    S    
C14   C37   A    
C4    C10   S    
C20   C28   A    
O17   V4    S    
O15   C7    A    
C21   C29   A    
O18   V3    S    
O16   C8    A    
O12   V4    S    
O19   V2    S    
C49   O21   D    
O12   C4    A    
C45   C46   A    
C17   C25   A    
C62   H14   S    
C57   O29   D    
C57   H9    S    
O5    V1    S    
O2    C7    A    
C53   O25   D    
O17   V1    S    
C38   C53   S    
O7    V3    S    
O19   V3    S    
C43   C44   A    
O8    V4    S    
O20   V4    S    
C50   H2    S    
C70   O42   D    
C3    C9    S    
C19   C67   S    
C55   H7    S    
C51   O23   D    
O16   V1    S    
C7    C13   S    
O1    V4    S    
C30   C61   S    
O2    V3    S    
O3    V2    S    
C68   O40   D    
C67   O39   D    
O6    C3    A    
C37   C54   S    
C55   O27   D    
O10   V2    S    
C15   C32   A    
C5    C15   S    
O7    C2    A    
C6    C16   S    
C22   C30   A    
C58   O30   D    
O13   C5    A    
C59   O31   D    
C56   O28   D    
C65   H17   S    
C12   C27   A    
C18   C26   A    
C13   C30   A    
C29   C62   S    
O9    C1    A    
O6    V2    S    
C54   O26   D    
O18   V2    S    
C52   O24   D    
C69   H21   S    
C72   O44   D    
C24   C47   A    
C67   H19   S    
C11   C28   A    
O15   V2    S    
C66   O38   D    
C37   C45   A    
C24   C32   A    
C10   C25   A    
C26   C57   S    
C21   C46   A    
C39   C47   A    
C70   H22   S    
C20   C43   A    
C16   C31   A    
C71   H23   S    
C17   C42   A    
C21   C69   S    
O8    C1    A    
O14   C6    A    
C68   H20   S    
C9    C26   A    
C47   C48   A    
C41   C42   A    
C61   H13   S    
C25   C58   S    
O4    C5    A    
C71   O43   D    
C19   C27   A    
C14   C29   A    
C60   O32   D    
O10   C2    A    
C10   C33   A    
C58   H10   S    
C32   C63   S    
C40   C48   A    
C56   H8    S    
C64   O36   D    
C23   C48   A    
C65   O37   D    
C22   C70   S    
C51   H3    S    
C24   C72   S    
C54   H6    S    
C36   C44   A    
O1    C8    A    
C52   H4    S    
C23   C71   S    
C59   H11   S    
C69   O41   D    
C72   H24   S    
C11   C36   A    
O3    C6    A    
C1    C11   S    
C40   C55   S    
C2    C12   S    
C34   C49   S    
C66   H18   S    
C33   C41   A    
C31   C64   S    
