data_mof_unit_42145.cif
_audit_creation_date              2012-12-10T20:38:25-0500
_audit_creation_method            fapswitch 2.2
_symmetry_space_group_name_H-M    P1
_symmetry_Int_Tables_number       1
_space_group_crystal_system       triclinic
_cell_length_a                    9.845148
_cell_length_b                    10.690368
_cell_length_c                    16.558193
_cell_angle_alpha                 90.31328
_cell_angle_beta                  85.332229
_cell_angle_gamma                 90.662446
_cell_volume                      1736.80686317

loop_
_atom_site_label
_atom_site_type_symbol
_atom_type_description
_atom_site_fract_x
_atom_site_fract_y
_atom_site_fract_z
_atom_type_partial_charge
C1    C     C_R   0.500291 0.740243 0.503087 0.920879
C2    C     C_R   0.529793 0.464286 0.260686 -0.167685
C3    C     C_R   0.376666 0.934868 0.510108 -0.002446
C4    C     C_R   0.481357 0.493095 0.653523 0.845985
C5    C     C_R   0.498584 0.872058 0.516339 -0.145808
C6    C     C_R   0.614829 0.938415 0.538607 0.440418
C7    C     C_R   0.611611 0.068741 0.538680 -0.344190
C8    C     C_R   0.495235 0.129389 0.516250 -0.140130
C9    C     C_R   0.374923 0.062283 0.510129 -0.003413
C10   C     C_3   0.271187 0.065572 0.448535 0.277141
C11   C     C_3   0.273182 0.923221 0.448943 -0.465338
C12   C     C_R   0.351207 0.464754 0.787496 -0.207329
C13   C     C_R   0.925122 0.595314 0.536276 0.229146
C14   C     C_R   0.932605 0.412150 0.457974 -0.126053
C15   C     C_R   0.076742 0.412089 0.458017 -0.150790
C16   C     C_R   0.498931 0.260105 0.502652 0.940631
C17   C     C_R   0.067799 0.595715 0.535628 0.207660
C18   C     C_3   0.065435 0.635180 0.621959 0.234251
C19   C     C_3   0.910420 0.631428 0.623870 -0.575923
C20   C     C_R   0.518722 0.497615 0.346243 0.847197
C21   C     C_R   0.471113 0.449623 0.737003 -0.023225
C22   C     C_R   0.577280 0.377457 0.763031 -0.209944
C23   C     C_R   0.453701 0.323711 0.158187 -0.154117
C24   C     C_R   0.566318 0.325578 0.839730 -0.160341
C25   C     C_R   0.450952 0.348975 0.892717 0.196484
C26   C     C_R   0.341570 0.415219 0.865377 -0.168076
C27   C     C_3   0.132837 0.789795 0.708497 0.094741
C28   C     C_3   0.185347 0.924598 0.712607 -0.317656
C29   C     C_3   0.198759 0.966356 0.799889 -0.964507
C30   C     C_R   0.438539 0.372773 0.235848 -0.221990
C31   C     C_R   0.638738 0.506808 0.206271 0.440722
C32   C     C_R   0.653265 0.455798 0.128459 -0.161692
C33   C     C_R   0.559307 0.367088 0.103511 0.097719
C34   C     C_2   0.449980 0.321810 0.979391 -0.225383
C35   C     C_2   0.564775 0.333985 0.017474 -0.200197
H1    H     H_    0.668189 0.359044 0.723575 0.150478
H2    H     H_    0.357080 0.336378 0.277431 0.210236
H3    H     H_    0.863641 0.555548 0.662900 0.171181
H4    H     H_    0.862877 0.724191 0.634462 0.259520
H5    H     H_    0.662123 0.348158 0.982835 0.145013
H6    H     H_    0.251238 0.433212 0.905412 0.127276
H7    H     H_    0.382253 0.252632 0.140910 0.154357
H8    H     H_    0.266326 0.516098 0.767323 0.125537
H9    H     H_    0.351459 0.320504 0.014046 0.151473
H10   H     H_    0.649674 0.270069 0.858075 0.128761
H11   H     H_    0.802261 0.937582 0.568698 0.323603
H12   H     H_    0.734335 0.490564 0.085941 0.150789
H13   H     H_    0.410907 0.081414 0.357031 0.341191
H14   H     H_    0.207815 0.727582 0.734503 0.130039
H15   H     H_    0.032734 0.782219 0.744855 0.140283
H16   H     H_    0.286847 0.932106 0.678285 0.230523
H17   H     H_    0.114138 0.987846 0.684301 0.219750
H18   H     H_    0.097942 0.962329 0.835219 0.264124
H19   H     H_    0.237890 0.064197 0.800530 0.272001
H20   H     H_    0.271204 0.905410 0.828922 0.268141
H21   H     H_    0.691503 0.646897 0.272920 0.333339
H22   H     H_    0.702316 0.121672 0.550863 0.164223
H23   H     H_    0.172485 0.105886 0.472775 0.126205
H24   H     H_    0.175964 0.880945 0.475339 0.217813
H25   H     H_    0.315028 0.879929 0.391066 0.198948
H26   H     H_    0.881688 0.339929 0.425339 0.161051
H27   H     H_    0.134820 0.339909 0.425385 0.181636
H28   H     H_    0.110670 0.564071 0.660473 0.084810
N1    N     N_R   0.857140 0.500860 0.500530 -0.111105
N2    N     N_R   0.142780 0.500820 0.500530 -0.141921
O1    O     O_R   0.385310 0.683210 0.499990 -0.600256
O2    O     O_3   0.320677 0.118128 0.373836 -0.768714
O3    O     O_3   0.118922 0.757937 0.626815 -0.616116
O4    O     O_3   0.730346 0.598950 0.225402 -0.759877
O5    O     O_R   0.614650 0.683240 0.500000 -0.552355
O6    O     O_R   0.371780 0.500000 0.615800 -0.626095
O7    O     O_R   0.601120 0.500040 0.615800 -0.617826
O8    O     O_R   0.385350 0.316760 0.500000 -0.607451
O9    O     O_R   0.614690 0.316790 0.500010 -0.638267
O10   O     O_R   0.398880 0.499960 0.384200 -0.602715
O11   O     O_R   0.628220 0.500000 0.384200 -0.598927
O12   O     O_3   0.731403 0.876044 0.555042 -0.768304
Zn1   Zn    Zn3+2 0.346870 0.499980 0.499990 0.966032
Zn2   Zn    Zn3+2 0.653130 0.500020 0.500010 0.974854

loop_
_geom_bond_atom_site_label_1
_geom_bond_atom_site_label_2
_ccdc_geom_bond_type
O11   Zn2   S    
C7    C8    A    
C10   O2    S    
C23   H7    S    
C1    C5    S    
C24   H10   S    
C28   C29   S    
C10   H23   S    
C18   C19   S    
C12   H8    S    
C5    C6    A    
C28   H16   S    
C18   H28   S    
C29   H19   S    
C18   O3    S    
C15   N2    A    
C20   O11   A    
C34   C35   D    
C27   O3    S    
C8    C9    A    
C23   C33   A    
O8    Zn1   S    
C9    C10   S    
C27   H15   S    
C25   C34   S    
C8    C16   S    
C21   C22   A    
C11   H24   S    
C17   C18   S    
O1    Zn1   S    
C13   C19   S    
C2    C20   S    
C16   O8    A    
C23   C30   A    
C32   H12   S    
C34   H9    S    
C24   C25   A    
C6    O12   S    
C29   H20   S    
C25   C26   A    
C14   H26   S    
C12   C21   A    
C30   H2    S    
C12   C26   A    
C2    C31   A    
C3    C9    A    
C19   H3    S    
C31   C32   A    
C14   N1    A    
C1    O1    A    
C19   H4    S    
O9    Zn2   S    
N1    Zn2   S    
C16   O9    A    
C11   H25   S    
C4    O7    A    
N2    Zn1   S    
O5    Zn2   S    
C3    C5    A    
H11   O12   S    
C6    C7    A    
O7    Zn2   S    
C22   H1    S    
C17   N2    A    
C1    O5    A    
C13   C17   A    
C2    C30   A    
C32   C33   A    
C35   H5    S    
C4    C21   S    
C28   H17   S    
C13   N1    A    
C29   H18   S    
C33   C35   S    
C15   H27   S    
C22   C24   A    
O6    Zn1   S    
H13   O2    S    
O10   Zn1   S    
C3    C11   S    
C10   C11   S    
C31   O4    S    
C20   O10   A    
H21   O4    S    
C27   C28   S    
C14   C15   A    
C7    H22   S    
C4    O6    A    
C27   H14   S    
C26   H6    S    
