data_mof_unit_12344.cif
_audit_creation_date              2012-12-11T14:08:27-0500
_audit_creation_method            fapswitch 2.2
_symmetry_space_group_name_H-M    P1
_symmetry_Int_Tables_number       1
_space_group_crystal_system       triclinic
_cell_length_a                    11.217875
_cell_length_b                    11.065251
_cell_length_c                    18.756827
_cell_angle_alpha                 89.010329
_cell_angle_beta                  89.092481
_cell_angle_gamma                 59.53508
_cell_volume                      2006.4516266

loop_
_atom_site_label
_atom_site_type_symbol
_atom_type_description
_atom_site_fract_x
_atom_site_fract_y
_atom_site_fract_z
_atom_type_partial_charge
C1    C     C_R   0.245467 0.639877 0.611505 0.637733
C2    C     C_2   0.804589 0.078084 0.690800 -0.013046
C3    C     C_2   0.213180 0.641709 0.689061 0.024126
C4    C     C_R   0.651885 0.621053 0.601971 0.648515
C5    C     C_2   0.214065 0.650220 0.846857 -0.054950
C6    C     C_2   0.250846 0.528354 0.813117 0.267480
C7    C     C_2   0.261228 0.523612 0.731975 0.321573
C8    C     C_2   0.664465 0.686552 0.330363 -0.073107
C9    C     C_2   0.676955 0.681739 0.173808 -0.124379
C10   C     C_2   0.780889 0.659898 0.217393 -0.102843
C11   C     C_2   0.782758 0.626931 0.293059 0.222074
C12   C     C_3   0.737375 0.555702 0.800635 -0.144491
C13   C     C_2   0.644135 0.180713 0.323350 0.232707
C14   C     C_2   0.635519 0.195802 0.163679 -0.044375
C15   C     C_2   0.540579 0.196986 0.206972 -0.093069
C16   C     C_R   0.631665 0.217902 0.597272 0.639401
C17   C     C_2   0.533791 0.236968 0.279749 -0.131537
C18   C     C_2   0.182999 0.667652 0.329310 -0.013894
C19   C     C_2   0.185738 0.640273 0.172406 0.181165
C20   C     C_2   0.240744 0.703282 0.210051 0.219734
C21   C     C_2   0.278660 0.659448 0.282876 -0.078258
C22   C     C_R   0.730061 0.040353 0.890993 0.547727
C23   C     C_3   0.709613 0.705526 0.807842 -0.086149
C24   C     C_R   0.750385 0.713065 0.882654 0.569787
C25   C     C_R   0.124910 0.702225 0.910621 0.608488
C26   C     C_R   0.673278 0.111532 0.101030 0.566102
C27   C     C_R   0.699475 0.691374 0.098250 0.576792
C28   C     C_R   0.221624 0.650953 0.402396 0.561167
C29   C     C_R   0.097817 0.705623 0.111124 0.584448
C30   C     C_R   0.644212 0.627645 0.396025 0.566498
C31   C     C_R   0.616135 0.231374 0.395242 0.565208
C32   C     C_3   0.555811 0.819095 0.786748 0.138835
C33   C     C_3   0.537109 0.792385 0.707131 0.115453
C34   C     C_3   0.671755 0.654946 0.675549 -0.037114
C35   C     C_3   0.799130 0.732895 0.752138 0.029737
C36   C     C_3   0.787707 0.690352 0.675426 0.029161
C37   C     C_3   0.720359 0.518717 0.725203 0.339310
C38   C     C_2   0.681675 0.124493 0.659900 -0.029263
C39   C     C_2   0.723055 0.072034 0.814221 -0.047391
C40   C     C_2   0.828488 0.038305 0.767930 0.238328
Cl1   Cl    Cl    0.968719 0.647653 0.776197 -0.629594
Cl2   Cl    Cl    0.996196 0.968749 0.797490 -0.484484
Cl3   Cl    Cl    0.315588 0.359999 0.693249 -0.489837
Cl4   Cl    Cl    0.944684 0.505823 0.330263 -0.466387
Cl5   Cl    Cl    0.813815 0.050884 0.298612 -0.555150
Cl6   Cl    Cl    0.371489 0.817919 0.689257 -0.438432
Cl7   Cl    Cl    0.206127 0.476813 0.200653 -0.598931
Cl8   Cl    Cl    0.763851 0.821745 0.610527 -0.666699
Cr1   Cr    Cr6+3 0.393010 0.398050 0.501480 1.157009
Cr2   Cr    Cr6+3 0.398820 0.707980 0.501630 1.155032
Cr3   Cr    Cr6+3 0.708140 0.393940 0.496850 1.189946
Cr4   Cr    Cr6+3 0.937950 0.938450 0.008940 1.169961
Cr5   Cr    Cr6+3 0.626180 0.937030 0.994750 1.148283
Cr6   Cr    Cr6+3 0.937790 0.625760 0.001410 1.171082
H1    H     H_    0.552561 0.921429 0.785801 0.088979
H2    H     H_    0.572668 0.774098 0.307222 0.123662
H3    H     H_    0.471606 0.160503 0.190857 0.196971
H4    H     H_    0.430760 0.312096 0.299075 0.189056
H5    H     H_    0.701381 0.235547 0.180786 0.167422
H6    H     H_    0.379024 0.639543 0.300734 0.137780
H7    H     H_    0.079511 0.694169 0.313790 0.174497
H8    H     H_    0.528282 0.883348 0.676375 0.165451
H9    H     H_    0.766918 0.844686 0.751753 0.134449
H10   H     H_    0.845433 0.483096 0.817072 0.242093
H11   H     H_    0.678174 0.535161 0.842106 0.183114
H12   H     H_    0.885135 0.599745 0.656802 0.277484
H13   H     H_    0.105384 0.289555 0.715749 0.414619
H14   H     H_    0.322973 0.188896 0.808403 0.396162
H15   H     H_    0.329490 0.001675 0.942533 0.376953
H16   H     H_    0.357193 0.957332 0.219438 0.374529
H17   H     H_    0.483581 0.530906 0.831479 0.366804
H18   H     H_    0.886449 0.080766 0.661052 0.222009
H19   H     H_    0.619735 0.121521 0.793657 0.160565
H20   H     H_    0.606343 0.102897 0.684559 0.136419
H21   H     H_    0.227962 0.728382 0.819719 0.209705
H22   H     H_    0.163530 0.744426 0.712291 0.156818
H23   H     H_    0.875001 0.651571 0.195377 0.199614
H24   H     H_    0.582871 0.686831 0.192863 0.147100
O1    O     O_R   0.507110 0.256280 0.580300 -0.439527
O2    O     O_R   0.837080 0.593860 0.915300 -0.459474
O3    O     O_R   0.064770 0.636080 0.932550 -0.432650
O4    O     O_R   0.280830 0.527190 0.577940 -0.435321
O5    O     O_R   0.068250 0.829200 0.092940 -0.443324
O6    O     O_R   0.799650 0.057040 0.080330 -0.475966
O7    O     O_R   0.586130 0.079760 0.077080 -0.493763
O8    O     O_R   0.627700 0.809630 0.066580 -0.463327
O9    O     O_R   0.816140 0.597180 0.075920 -0.485419
O10   O     O_R   0.045360 0.639170 0.081440 -0.475662
O11   O     O_3   0.833980 0.833750 0.001700 -0.371271
O12   O     O_R   0.524640 0.695370 0.425100 -0.512572
O13   O     O_R   0.261360 0.738990 0.584270 -0.445081
O14   O     O_R   0.532590 0.694780 0.574370 -0.439877
O15   O     O_R   0.744470 0.503750 0.577000 -0.441933
O16   O     O_R   0.698520 0.277230 0.571620 -0.444117
O17   O     O_R   0.498530 0.256920 0.419280 -0.531574
O18   O     O_R   0.272880 0.527780 0.428680 -0.486544
O19   O     O_R   0.252780 0.739630 0.423250 -0.486949
O20   O     O_2   0.913978 0.255027 0.764890 -0.215655
O21   O     O_2   0.897918 0.285021 0.636848 -0.239512
O22   O     O_3   0.023744 0.383346 0.706494 -0.479781
O23   O     O_R   0.735890 0.504390 0.415980 -0.437835
O24   O     O_2   0.319388 0.382065 0.937241 -0.242647
O25   O     O_2   0.130300 0.389964 0.870581 -0.205127
O26   O     O_3   0.380023 0.226514 0.826612 -0.469167
O27   O     O_2   0.273325 0.924109 0.818158 -0.160270
O28   O     O_2   0.440893 0.740595 0.897784 -0.280144
O29   O     O_3   0.397085 0.992087 0.905170 -0.457682
O30   O     O_2   0.312150 0.832858 0.109698 -0.278282
O31   O     O_2   0.108014 0.981583 0.184029 -0.179739
O32   O     O_3   0.348062 0.879840 0.240755 -0.559578
O33   O     O_2   0.525023 0.481877 0.660084 -0.263097
O34   O     O_R   0.690560 0.277820 0.422350 -0.478713
O35   O     O_2   0.643130 0.332011 0.762375 -0.302226
O36   O     O_3   0.466297 0.584889 0.786315 -0.530041
O37   O     O_3   0.499990 0.499990 0.499980 -0.319422
O38   O     O_R   0.089190 0.825870 0.932320 -0.443637
O39   O     O_R   0.819070 0.053960 0.931440 -0.434032
O40   O     O_R   0.607070 0.076440 0.916460 -0.425094
O41   O     O_R   0.647110 0.806550 0.917690 -0.445403
S1    S     S_3+6 0.889237 0.356766 0.705201 0.060642
S2    S     S_3+6 0.268390 0.380787 0.863774 0.119311
S3    S     S_3+6 0.412509 0.864376 0.851511 0.094485
S4    S     S_3+6 0.250262 0.853531 0.183336 0.041016
S5    S     S_3+6 0.587865 0.474337 0.730791 0.034244

loop_
_geom_bond_atom_site_label_1
_geom_bond_atom_site_label_2
_ccdc_geom_bond_type
C28   O19   A    
C22   O39   A    
Cr6   O10   S    
Cr3   O34   S    
C27   O8    A    
C18   C21   D    
C35   C36   S    
C30   O12   A    
C8    H2    S    
H15   O29   S    
C14   H5    S    
O35   S5    D    
C12   C23   S    
C29   O5    A    
C3    C7    D    
C8    C11   D    
Cr6   O9    S    
C12   H10   S    
C36   H12   S    
C34   C37   S    
C15   C17   S    
Cr2   O37   S    
C12   C37   S    
Cr4   O6    S    
C29   O10   A    
H16   O32   S    
O21   S1    D    
C24   O2    A    
C19   C20   D    
C33   H8    S    
C20   S4    S    
C23   C24   S    
Cr5   O8    S    
O22   S1    S    
C7    Cl3   S    
O24   S2    D    
C9    C10   D    
C32   H1    S    
C17   H4    S    
O36   S5    S    
Cr4   O39   S    
C40   Cl2   S    
C1    O13   A    
C25   O3    A    
C33   Cl6   S    
C15   H3    S    
Cr4   O11   S    
C2    H18   S    
C10   H23   S    
Cr2   O12   S    
Cr6   O2    S    
Cr4   O38   S    
C4    C34   S    
C32   S3    S    
C18   C28   S    
C21   H6    S    
C25   O38   A    
C39   C40   D    
Cr5   O40   S    
O31   S4    D    
O26   S2    S    
C1    O4    A    
Cr1   O17   S    
Cr1   O1    S    
H17   O36   S    
C1    C3    S    
Cr1   O4    S    
C5    H21   S    
Cr4   O5    S    
O32   S4    S    
C37   S5    S    
C2    C38   D    
C31   O34   A    
O28   S3    D    
C33   C34   S    
C11   Cl4   S    
C14   C26   S    
C27   O9    A    
C3    H22   S    
H13   O22   S    
Cr6   O11   S    
C5    C25   S    
Cr2   O14   S    
Cr1   O37   S    
Cr3   O15   S    
C23   C35   S    
Cr5   O11   S    
O30   S4    D    
O25   S2    D    
C9    C27   S    
C38   H20   S    
C22   O40   A    
Cr2   O19   S    
C26   O6    A    
O33   S5    D    
C13   C31   S    
H14   O26   S    
Cr5   O7    S    
Cr5   O41   S    
C18   H7    S    
O20   S1    D    
C6    C7    S    
C24   O41   A    
Cr3   O23   S    
C12   H11   S    
C16   O16   A    
C6    S2    S    
C13   C17   D    
C28   O18   A    
C16   O1    A    
C8    C30   S    
C23   C32   S    
C32   C33   S    
C13   Cl5   S    
C5    C6    D    
C37   S1    S    
C26   O7    A    
C31   O17   A    
C22   C39   S    
C30   O23   A    
O27   S3    D    
C36   Cl8   S    
C34   C36   S    
C9    H24   S    
C39   H19   S    
Cr1   O18   S    
C35   Cl1   S    
Cr3   O37   S    
C10   C11   S    
Cr3   O16   S    
C4    O15   A    
C2    C40   S    
Cr2   O13   S    
C20   C21   S    
C19   Cl7   S    
C14   C15   D    
C35   H9    S    
O29   S3    S    
Cr6   O3    S    
C16   C38   S    
C4    O14   A    
C19   C29   S    
