data_mof_unit_67826.cif
_audit_creation_date              2013-03-05T15:41:49-0500
_audit_creation_method            fapswitch 2.2
_symmetry_space_group_name_H-M    P1
_symmetry_Int_Tables_number       1
_space_group_crystal_system       triclinic
_cell_length_a                    7.944801
_cell_length_b                    8.694314
_cell_length_c                    10.619488
_cell_angle_alpha                 94.576359
_cell_angle_beta                  85.011814
_cell_angle_gamma                 93.182738
_cell_volume                      727.556639122

loop_
_atom_site_label
_atom_site_type_symbol
_atom_site_description
_atom_site_fract_x
_atom_site_fract_y
_atom_site_fract_z
_atom_type_partial_charge
O1    O     O_R   0.389250 0.738570 0.508410 -0.640907
O2    O     O_R   0.610750 0.261430 0.491590 -0.629812
O3    O     O_R   0.678390 0.711620 0.486450 -0.574221
O4    O     O_R   0.321610 0.288380 0.513550 -0.581575
C1    C     C_R   0.544117 0.793131 0.496979 0.925677
C2    C     C_R   0.456062 0.206702 0.501745 0.948000
O5    O     O_R   0.355460 0.513510 0.697030 -0.559306
O6    O     O_R   0.644540 0.486490 0.302970 -0.559240
O7    O     O_R   0.644600 0.486560 0.675070 -0.559650
O8    O     O_R   0.355400 0.513440 0.324930 -0.566440
C3    C     C_R   0.500731 0.508953 0.742156 0.954145
C4    C     C_R   0.499226 0.490959 0.257871 0.973355
Zn1   Zn    Zn3+2 0.306940 0.517990 0.514670 1.153454
Zn2   Zn    Zn3+2 0.693060 0.482010 0.485330 1.159411
N1    N     N_2   0.950320 0.457950 0.465730 0.105565
N2    N     N_2   0.049680 0.542050 0.534270 0.108404
C5    C     C_3   0.376461 0.591855 0.980270 -0.182460
C6    C     C_3   0.623420 0.408589 0.019856 -0.170477
C7    C     C_3   0.528636 0.638901 0.056456 0.377469
C8    C     C_3   0.471198 0.361406 0.943777 0.432400
C9    C     C_3   0.503303 0.488709 0.122498 -0.187880
C10   C     C_3   0.496567 0.511624 0.877599 -0.190052
C11   C     C_3   0.349946 0.440300 0.047043 -0.225219
C12   C     C_3   0.649812 0.560295 0.953182 -0.267043
H1    H     H_    0.230684 0.377312 0.076772 0.260966
H2    H     H_    0.769249 0.622666 0.923190 0.243487
C13   C     C_2   0.566603 0.955772 0.506205 -0.231893
C14   C     C_2   0.434954 0.043884 0.489053 -0.215611
S1    S     S_3+6 0.583663 0.825948 0.126874 0.036688
O9    O     O_2   0.428242 0.897090 0.191369 -0.273771
O10   O     O_2   0.711003 0.814200 0.221829 -0.320934
O11   O     O_3   0.667784 0.937872 0.013689 -0.489385
H3    H     H_    0.782951 0.901064 0.990549 0.374833
S2    S     S_3+6 0.413502 0.173490 0.876456 0.038508
O12   O     O_2   0.339975 0.077264 0.981014 -0.223653
O13   O     O_2   0.283188 0.184769 0.783695 -0.313785
O14   O     O_3   0.585016 0.091523 0.803100 -0.559405
H4    H     H_    0.549877 0.980859 0.788337 0.384212
C15   C     C_1   0.236129 0.693434 0.976906 0.506429
N3    N     N_1   0.124406 0.773690 0.978816 -0.075063
C16   C     C_1   0.766036 0.309495 0.022610 0.533483
N4    N     N_1   0.880130 0.231890 0.020194 -0.054298
S3    S     S_3+6 0.011101 0.370860 0.319952 0.124291
O15   O     O_2   0.035812 0.493683 0.227515 -0.313146
O16   O     O_2   0.164924 0.278276 0.316781 -0.322613
O17   O     O_3   0.851505 0.247499 0.278749 -0.526745
H5    H     H_    0.871973 0.149403 0.314963 0.375999
S4    S     S_3+6 0.988970 0.629836 0.679838 0.115005
O18   O     O_2   0.834863 0.722055 0.683040 -0.349758
O19   O     O_2   0.965002 0.507574 0.772787 -0.304966
O20   O     O_3   0.148372 0.753798 0.720312 -0.539776
H6    H     H_    0.130053 0.850120 0.680576 0.371069
C17   C     C_1   0.730164 0.014767 0.547622 0.358330
N5    N     N_1   0.859335 0.061627 0.581200 -0.120267
C18   C     C_1   0.273758 0.984493 0.443866 0.388549
N6    N     N_1   0.146410 0.937124 0.407331 -0.120374

loop_
_geom_bond_atom_site_label_1
_geom_bond_atom_site_label_2
_geom_bond_distance
_ccdc_geom_bond_type
O7    Zn2   2.015899 S    
C13   C17   1.460992 S    
O14   H4    0.990939 S    
S2    O14   1.675155 S    
S3    O16   1.496778 D    
C16   N4    1.157008 T    
C3    C10   1.434197 S    
S2    O13   1.501970 D    
C5    C10   1.535426 S    
O1    C1    1.293067 A    
C8    C11   1.539712 S    
C1    C13   1.412068 S    
O6    C4    1.291445 A    
C8    S2    1.782679 S    
O11   H3    0.990374 S    
N2    S4    1.711079 S    
C18   N6    1.157712 T    
S4    O19   1.500924 D    
C7    C12   1.538350 S    
N1    S3    1.710742 S    
S1    O10   1.502032 D    
O2    C2    1.291744 A    
C17   N5    1.157732 T    
O5    C3    1.291345 A    
O7    C3    1.308769 A    
C5    C11   1.541345 S    
O3    Zn2   2.005181 S    
O8    C4    1.308473 A    
C6    C12   1.541911 S    
C4    C9    1.433731 S    
S4    O18   1.496813 D    
C7    C9    1.526418 S    
C14   C18   1.459760 S    
C8    C10   1.527376 S    
S1    O11   1.677211 S    
C6    C8    1.531520 S    
C11   H1    1.102412 S    
S3    O15   1.500991 D    
O2    Zn2   1.995872 S    
S3    O17   1.679315 S    
C10   C12   1.537584 S    
Zn1   N2    2.056957 S    
O1    Zn1   1.995872 S    
S1    O9    1.498839 D    
O20   H6    0.990540 S    
C6    C9    1.534863 S    
O3    C1    1.305104 A    
O5    Zn1   2.010956 S    
O4    C2    1.306824 A    
S2    O12   1.501753 D    
C5    C15   1.464776 S    
C6    C16   1.464628 S    
C15   N3    1.156947 T    
O17   H5    0.990132 S    
O6    Zn2   2.010954 S    
C5    C7    1.531644 S    
Zn2   N1    2.056957 S    
C9    C11   1.537116 S    
S4    O20   1.679080 S    
C2    C14   1.413261 S    
N1    N2    1.280025 D    
O4    Zn1   2.005181 S    
C12   H2    1.101719 S    
C13   C14   1.363227 D    
O8    Zn1   2.015899 S    
C7    S1    1.782933 S    
