data_mof_unit_14295.cif
_audit_creation_date              2013-03-05T15:57:37-0500
_audit_creation_method            fapswitch 2.2
_symmetry_space_group_name_H-M    P1
_symmetry_Int_Tables_number       1
_space_group_crystal_system       triclinic
_cell_length_a                    15.032386
_cell_length_b                    13.933484
_cell_length_c                    11.691155
_cell_angle_alpha                 90.392682
_cell_angle_beta                  87.756252
_cell_angle_gamma                 90.395618
_cell_volume                      2446.76458935

loop_
_atom_site_label
_atom_site_type_symbol
_atom_site_description
_atom_site_fract_x
_atom_site_fract_y
_atom_site_fract_z
_atom_type_partial_charge
O1    O     O_R   0.370260 0.582280 0.500020 -0.598049
O2    O     O_R   0.629740 0.417720 0.499980 -0.545473
O3    O     O_R   0.629740 0.582280 0.499980 -0.588821
O4    O     O_R   0.370260 0.417720 0.500020 -0.541085
C1    C     C_R   0.329153 0.499410 0.502648 0.863240
C2    C     C_R   0.670803 0.500164 0.497777 0.882852
O5    O     O_R   0.500010 0.582270 0.337200 -0.572473
O6    O     O_R   0.499990 0.417730 0.662800 -0.565337
O7    O     O_R   0.499990 0.582270 0.662800 -0.576467
O8    O     O_R   0.500010 0.417730 0.337200 -0.565294
C3    C     C_R   0.500219 0.499767 0.284292 0.919091
C4    C     C_R   0.499445 0.500278 0.715722 0.921757
Cu1   Cu    Cu3+1 0.500000 0.597420 0.500000 1.023986
Cu2   Cu    Cu3+1 0.500000 0.402580 0.500000 1.057423
C5    C     C_1   0.500000 0.499419 0.162500 -0.037746
C6    C     C_1   0.499116 0.500715 0.837571 -0.003989
C7    C     C_1   0.499641 0.499738 0.059966 0.026895
C8    C     C_1   0.499228 0.500402 0.940121 0.039762
C9    C     C_R   0.818555 0.487349 0.397118 -0.042120
C10   C     C_R   0.183353 0.498999 0.610943 -0.097830
C11   C     C_R   0.767824 0.498579 0.499886 -0.184765
C12   C     C_R   0.231909 0.495032 0.505269 -0.173959
C13   C     C_R   0.808230 0.500131 0.606319 -0.044090
C14   C     C_R   0.189225 0.476276 0.402649 -0.021081
C15   C     C_R   0.901321 0.484893 0.611884 -0.008660
C16   C     C_R   0.096441 0.458578 0.405129 -0.002585
C17   C     C_R   0.952330 0.473137 0.507928 0.040683
C18   C     C_R   0.046249 0.471520 0.509139 0.049149
C19   C     C_R   0.909893 0.464601 0.401897 -0.007321
C20   C     C_R   0.089794 0.482485 0.613925 0.005175
C21   C     C_R   0.944712 0.474807 0.717311 -0.101593
C22   C     C_R   0.052757 0.422743 0.308129 -0.068901
C23   C     C_R   0.038568 0.471469 0.717956 -0.090912
C24   C     C_R   0.959193 0.427721 0.305256 -0.062956
C25   C     C_R   0.440452 0.794542 0.568975 0.113938
C26   C     C_R   0.556335 0.205611 0.426534 0.100727
C27   C     C_R   0.562411 0.794037 0.433541 0.137840
C28   C     C_R   0.443443 0.206379 0.574682 0.115819
N1    N     N_R   0.500000 0.743810 0.500000 -0.285127
N2    N     N_R   0.500000 0.256190 0.500000 -0.284413
C29   C     C_R   0.564393 0.897362 0.431613 -0.159481
C30   C     C_R   0.443064 0.103154 0.578431 -0.155761
C31   C     C_R   0.445403 0.896854 0.578565 -0.162753
C32   C     C_R   0.564648 0.103580 0.434831 -0.163565
C33   C     C_R   0.505154 0.948689 0.506042 -0.040955
C34   C     C_R   0.504647 0.051837 0.507009 -0.033359
C35   C     C_R   0.626145 0.950717 0.360699 0.397140
C36   C     C_R   0.384291 0.049274 0.652601 0.378767
C37   C     C_R   0.391823 0.948950 0.659458 0.372609
C38   C     C_R   0.630914 0.051791 0.370829 0.404108
C39   C     C_2   0.779945 0.514982 0.286269 0.841895
O9    O     O_2   0.705480 0.488231 0.261821 -0.579761
O10   O     O_R   0.829681 0.573050 0.210046 -0.726497
H1    H     H_    0.796936 0.587397 0.137991 0.371057
C40   C     C_2   0.229796 0.530195 0.715252 0.836439
O11   O     O_2   0.296502 0.488537 0.744036 -0.593902
O12   O     O_R   0.195725 0.606349 0.781658 -0.725296
H2    H     H_    0.231927 0.619838 0.851424 0.369756
C41   C     C_2   0.752831 0.529251 0.708261 0.824889
O13   O     O_2   0.696678 0.474049 0.748735 -0.610970
O14   O     O_R   0.765447 0.619724 0.757524 -0.709658
H3    H     H_    0.723797 0.631385 0.826457 0.344384
C42   C     C_2   0.240305 0.487751 0.291911 0.821220
O15   O     O_2   0.304274 0.436561 0.268669 -0.584302
O16   O     O_R   0.213126 0.555689 0.213304 -0.708000
H4    H     H_    0.252197 0.556176 0.140615 0.349985
C43   C     C_2   0.893491 0.452881 0.825260 0.911878
O17   O     O_2   0.890077 0.511816 0.903264 -0.486287
O18   O     O_R   0.848993 0.364867 0.836648 -0.730308
H5    H     H_    0.816038 0.358250 0.913556 0.357245
C44   C     C_2   0.102903 0.363008 0.221957 0.864888
O19   O     O_2   0.105100 0.384655 0.120811 -0.507459
O20   O     O_R   0.150263 0.283553 0.258387 -0.735862
H6    H     H_    0.183056 0.249243 0.192815 0.353289
C45   C     C_2   0.081129 0.439754 0.824055 0.905591
O21   O     O_2   0.071616 0.486407 0.912579 -0.450128
O22   O     O_R   0.132562 0.356565 0.821531 -0.771702
H7    H     H_    0.159421 0.342823 0.897829 0.374197
C46   C     C_2   0.912470 0.379574 0.210330 0.866546
O23   O     O_2   0.929583 0.401832 0.110943 -0.486953
O24   O     O_R   0.847296 0.310182 0.235667 -0.745675
H8    H     H_    0.819379 0.283328 0.164565 0.353661
C47   C     C_2   0.362758 0.744843 0.621376 0.996161
O25   O     O_2   0.369054 0.700866 0.710618 -0.582072
O26   O     O_R   0.280209 0.755135 0.571894 -0.747081
H9    H     H_    0.230000 0.722292 0.616885 0.356108
C48   C     C_2   0.596223 0.254360 0.325221 1.001584
O27   O     O_2   0.664886 0.300784 0.332075 -0.539459
O28   O     O_R   0.557030 0.242466 0.219573 -0.730694
H10   H     H_    0.590615 0.277907 0.155714 0.341098
C49   C     C_2   0.634261 0.740999 0.372824 0.972939
O29   O     O_2   0.623717 0.708541 0.276908 -0.558457
O30   O     O_R   0.717067 0.735148 0.422748 -0.772943
H11   H     H_    0.763253 0.701627 0.371708 0.329711
C50   C     C_2   0.378532 0.260167 0.647014 1.010163
O31   O     O_2   0.395797 0.281558 0.745320 -0.540294
O32   O     O_R   0.293376 0.275565 0.607291 -0.747084
H12   H     H_    0.252547 0.307592 0.666638 0.365463
O33   O     O_3   0.669875 0.906402 0.267731 -0.557421
C51   C     C_3   0.763215 0.907070 0.278528 -0.164436
H13   H     H_    0.783712 0.904059 0.368914 0.146344
H14   H     H_    0.793747 0.969814 0.233894 0.209897
H15   H     H_    0.790771 0.842472 0.234359 0.194071
O34   O     O_3   0.323507 0.093936 0.727090 -0.565560
C52   C     C_3   0.236553 0.077808 0.688850 -0.160970
H16   H     H_    0.213548 0.003385 0.707044 0.203973
H17   H     H_    0.231516 0.093293 0.595932 0.164657
H18   H     H_    0.190401 0.126989 0.736371 0.203846
O35   O     O_3   0.345636 0.902845 0.748058 -0.574718
C53   C     C_3   0.400269 0.900722 0.843382 -0.174358
H19   H     H_    0.415063 0.974454 0.874909 0.186423
H20   H     H_    0.463283 0.861425 0.823274 0.150233
H21   H     H_    0.364186 0.861904 0.913732 0.203173
O36   O     O_3   0.701707 0.099153 0.316698 -0.572325
C54   C     C_3   0.765392 0.120927 0.399301 -0.261518
H22   H     H_    0.784228 0.056751 0.448736 0.126665
H23   H     H_    0.741123 0.177508 0.460023 0.194323
H24   H     H_    0.826738 0.148181 0.354582 0.234352

loop_
_geom_bond_atom_site_label_1
_geom_bond_atom_site_label_2
_geom_bond_distance
_ccdc_geom_bond_type
C15   C21   1.425138 A    
C39   O10   1.398956 S    
C48   O27   1.219314 D    
C42   O16   1.397947 S    
C16   C22   1.418662 A    
O30   H11   1.012175 S    
C17   C19   1.420074 A    
O20   H6    1.013837 S    
C50   O31   1.222582 D    
C40   O11   1.221797 D    
O3    C2    1.303428 A    
O32   H12   1.011661 S    
C10   C20   1.422662 A    
O10   H1    1.013927 S    
C13   C41   1.482867 S    
C52   H17   1.114563 S    
O1    C1    1.305838 A    
C37   O35   1.383603 S    
C9    C11   1.406033 A    
C14   C16   1.413928 A    
C28   C30   1.439209 A    
O18   H5    1.013890 S    
C54   H22   1.112295 S    
C36   O34   1.385156 S    
C35   O33   1.391116 S    
C30   C34   1.416301 A    
O7    Cu1   1.916422 S    
C53   H19   1.113021 S    
C3    C5    1.423992 S    
C23   C45   1.488891 S    
C1    C12   1.461789 S    
C4    C6    1.424339 S    
C54   H23   1.111128 S    
C28   C50   1.471643 S    
C21   C23   1.412283 A    
C35   C38   1.414039 A    
C25   C31   1.430845 A    
O3    Cu1   1.963114 S    
O22   H7    1.013391 S    
C41   O13   1.221798 D    
Cu1   Cu2   2.714799 S    
C27   C29   1.440082 A    
O2    C2    1.300248 A    
C10   C40   1.489533 S    
O34   C52   1.413962 S    
C32   C34   1.408954 A    
O5    C3    1.301628 A    
C22   C44   1.487833 S    
C26   C48   1.474338 S    
C52   H18   1.109392 S    
C41   O14   1.397185 S    
C27   C49   1.469821 S    
C42   O15   1.222138 D    
C43   O17   1.222816 D    
C26   N2    1.376418 A    
O8    Cu2   1.916422 S    
C49   O29   1.221930 D    
C46   O24   1.396620 S    
C25   C47   1.468849 S    
C31   C37   1.417407 A    
O26   H9    1.011538 S    
C2    C11   1.459945 S    
C19   C24   1.421807 A    
C51   H15   1.109245 S    
O24   H8    1.013906 S    
C39   O9    1.221260 D    
C43   O18   1.397498 S    
C22   C24   1.410400 A    
C25   N1    1.376831 A    
C45   O21   1.222535 D    
C9    C39   1.494472 S    
C24   C46   1.489746 S    
C49   O30   1.398459 S    
C45   O22   1.397254 S    
C47   O25   1.220770 D    
O6    C4    1.302213 A    
C54   H24   1.108192 S    
C51   H14   1.108695 S    
C7    C8    1.401483 S    
C29   C35   1.428434 A    
C30   C36   1.426840 A    
C31   C33   1.409643 A    
C53   H21   1.109210 S    
C36   C37   1.406307 A    
C47   O26   1.398164 S    
C10   C12   1.411092 A    
C14   C42   1.488147 S    
C11   C13   1.405841 A    
C12   C14   1.404651 A    
C26   C32   1.432261 A    
O1    Cu1   1.960220 S    
C9    C19   1.414584 A    
C44   O20   1.398205 S    
C32   C38   1.420232 A    
C5    C7    1.199004 T    
O6    Cu2   1.913546 S    
C20   C23   1.422454 A    
O4    C1    1.298499 A    
C50   O32   1.397159 S    
O36   C54   1.416177 S    
C15   C17   1.420544 A    
C52   H16   1.110164 S    
C16   C18   1.416860 A    
O33   C51   1.413666 S    
C40   O12   1.398588 S    
C44   O19   1.221512 D    
C27   N1    1.383836 A    
O35   C53   1.410606 S    
C28   N2    1.381620 A    
O12   H2    1.013907 S    
C18   C20   1.418254 A    
C51   H13   1.113390 S    
C13   C15   1.420917 A    
O4    Cu2   1.963116 S    
O14   H3    1.013892 S    
O2    Cu2   1.960218 S    
O7    C4    1.302770 A    
C53   H20   1.113692 S    
Cu1   N1    2.039723 S    
O8    C3    1.303348 A    
C21   C43   1.484892 S    
Cu2   N2    2.039723 S    
C46   O23   1.221853 D    
C33   C34   1.437253 A    
O5    Cu1   1.913546 S    
C6    C8    1.199033 T    
O16   H4    1.013977 S    
C17   C18   1.412789 A    
C48   O28   1.397498 S    
C29   C33   1.414650 A    
C38   O36   1.382663 S    
O28   H10   1.014000 S    
