data_mof_unit_58681.cif
_audit_creation_date              2013-03-05T15:58:19-0500
_audit_creation_method            fapswitch 2.2
_symmetry_space_group_name_H-M    P1
_symmetry_Int_Tables_number       1
_space_group_crystal_system       triclinic
_cell_length_a                    14.882168
_cell_length_b                    14.99863
_cell_length_c                    15.173311
_cell_angle_alpha                 110.378694
_cell_angle_beta                  109.086777
_cell_angle_gamma                 108.636806
_cell_volume                      2616.6917796

loop_
_atom_site_label
_atom_site_type_symbol
_atom_site_description
_atom_site_fract_x
_atom_site_fract_y
_atom_site_fract_z
_atom_type_partial_charge
C1    C     C_R   0.973421 0.246707 0.059668 -0.114001
C2    C     C_R   0.091795 0.803826 0.005914 -0.131144
H1    H     H_    0.937747 0.232176 0.107972 0.092408
H2    H     H_    0.149983 0.829656 0.980244 0.094957
N1    N     N_R   0.947560 0.293820 0.002910 -0.043940
N2    N     N_R   0.052440 0.706180 0.997090 -0.042271
C3    C     C_R   0.314480 0.750790 0.223009 -0.133109
C4    C     C_R   0.701278 0.197887 0.790894 -0.138223
H3    H     H_    0.380238 0.770563 0.204955 0.099691
H4    H     H_    0.652961 0.168706 0.824713 0.107747
N3    N     N_R   0.208960 0.706170 0.152110 -0.039963
N4    N     N_R   0.791040 0.293830 0.847890 -0.039197
C5    C     C_R   0.213806 0.410149 0.907898 -0.164251
C6    C     C_R   0.776068 0.592150 0.024418 -0.145366
H5    H     H_    0.187852 0.326855 0.851734 0.111231
H6    H     H_    0.795280 0.676504 0.058662 0.111278
N5    N     N_R   0.154330 0.443160 0.946140 -0.039528
N6    N     N_R   0.845670 0.556840 0.053860 -0.038962
C7    C     C_R   0.997753 0.590600 0.299488 -0.170231
C8    C     C_R   0.944475 0.410184 0.686110 -0.138136
H7    H     H_    0.019636 0.673207 0.351854 0.120569
H8    H     H_    0.902419 0.327284 0.620169 0.104809
N7    N     N_R   0.002190 0.556820 0.208880 -0.040465
N8    N     N_R   0.997810 0.443180 0.791120 -0.040282
C9    C     C_R   0.302406 0.592097 0.999376 -0.142374
C10   C     C_R   0.685471 0.409044 0.933143 -0.146614
H9    H     H_    0.356940 0.676094 0.027943 0.115078
H10   H     H_    0.621927 0.324826 0.882548 0.124074
N9    N     N_R   0.210550 0.556810 0.002910 -0.039523
N10   N     N_R   0.789450 0.443190 0.997090 -0.039876
C11   C     C_R   0.914871 0.408898 0.212534 -0.132130
C12   C     C_R   0.024375 0.592654 0.781703 -0.096243
H11   H     H_    0.863947 0.324858 0.186530 0.113180
H12   H     H_    0.048580 0.676600 0.805434 0.118186
N11   N     N_R   0.945970 0.443180 0.152110 -0.039986
N12   N     N_R   0.054030 0.556820 0.847890 -0.043592
C13   C     C_R   0.217910 0.731358 0.307127 -0.124144
C14   C     C_R   0.787674 0.203102 0.696039 -0.148153
H13   H     H_    0.193311 0.723798 0.364326 0.123538
H14   H     H_    0.814261 0.186183 0.638282 0.126864
N13   N     N_R   0.151530 0.706170 0.208880 -0.044858
N14   N     N_R   0.848470 0.293830 0.791120 -0.039686
C15   C     C_R   0.068505 0.251345 0.971467 -0.130016
C16   C     C_R   0.002675 0.803624 0.098276 -0.141985
H15   H     H_    0.124717 0.247692 0.942502 0.113139
H16   H     H_    0.983980 0.829546 0.162312 0.115375
N15   N     N_R   0.004980 0.293810 0.946140 -0.044509
N16   N     N_R   0.995020 0.706190 0.053860 -0.040755
C17   C     C_R   0.051334 0.220567 0.043148 0.098125
C18   C     C_R   0.062432 0.867776 0.069781 0.059483
C19   C     C_R   0.322032 0.770513 0.322711 0.045125
C20   C     C_R   0.696154 0.138126 0.694464 0.063853
C21   C     C_R   0.305472 0.502082 0.940304 0.083397
C22   C     C_R   0.675150 0.501038 0.949342 0.061174
C23   C     C_R   0.946497 0.500508 0.305147 0.057862
C24   C     C_R   0.962215 0.503825 0.679316 0.045110
C25   C     C_R   0.162941 0.032466 0.070661 -0.221020
C26   C     C_R   0.065137 0.137512 0.155998 -0.191947
C27   C     C_R   0.140596 0.041307 0.775413 -0.290270
C28   C     C_R   0.925355 0.971792 0.317387 -0.265344
H17   H     H_    0.085140 0.987506 0.689325 0.172290
H18   H     H_    0.950473 0.986145 0.398494 0.186488
Ni1   Ni    Ni4+2 0.869690 0.369690 0.000000 0.219129
Ni2   Ni    Ni4+2 0.130310 0.630310 0.000000 0.219289
Ni3   Ni    Ni4+2 0.001390 0.369680 0.869810 0.216528
Ni4   Ni    Ni4+2 0.998610 0.630320 0.130190 0.211311
C29   C     C_R   0.103562 0.039085 0.849388 -0.076679
C30   C     C_R   0.002670 0.027260 0.294914 -0.114248
H19   H     H_    0.407529 0.224899 0.950887 0.128670
H20   H     H_    0.701065 0.821513 0.066685 0.143373
H21   H     H_    0.507987 0.111866 0.998309 0.119051
H22   H     H_    0.434622 0.875627 0.940539 0.101941
C31   C     C_R   0.615654 0.284888 0.104203 -0.137354
C32   C     C_R   0.327933 0.710355 0.807686 -0.115771
H23   H     H_    0.587087 0.305159 0.042711 0.108865
H24   H     H_    0.387584 0.684406 0.828855 0.099508
C33   C     C_R   0.698308 0.368189 0.208401 -0.137469
C34   C     C_R   0.224510 0.635914 0.717126 -0.125481
H25   H     H_    0.729834 0.451854 0.226105 0.126121
H26   H     H_    0.204975 0.552549 0.669121 0.116872
C35   C     C_R   0.745295 0.343098 0.286681 0.114651
C36   C     C_R   0.146912 0.669373 0.688552 0.110655
C37   C     C_R   0.701127 0.233522 0.261158 -0.157230
C38   C     C_R   0.174269 0.778183 0.751583 -0.205207
H27   H     H_    0.735965 0.211677 0.319616 0.106518
H28   H     H_    0.114420 0.804602 0.732233 0.143776
C39   C     C_R   0.614440 0.150722 0.158047 -0.110770
C40   C     C_R   0.277611 0.852211 0.842367 -0.119812
H29   H     H_    0.581616 0.066520 0.138517 0.113518
H30   H     H_    0.297831 0.935617 0.891167 0.127258
C41   C     C_R   0.572728 0.176247 0.079092 -0.093421
C42   C     C_R   0.354509 0.818319 0.870348 -0.096375
C43   C     C_R   0.854185 0.433811 0.486842 -0.237777
C44   C     C_R   0.029101 0.587513 0.496589 -0.236118
H31   H     H_    0.787248 0.374757 0.484893 0.130460
H32   H     H_    0.099816 0.643113 0.500092 0.134619
C45   C     C_R   0.950143 0.511979 0.585099 0.083365
C46   C     C_R   0.936347 0.506418 0.397677 0.070993
C47   C     C_R   0.038234 0.591154 0.590545 0.024957
C48   C     C_R   0.845759 0.429637 0.391191 0.026658
H33   H     H_    0.346977 0.228278 0.081899 0.143174
H34   H     H_    0.837373 0.903882 0.022024 0.139270
C49   C     C_R   0.177993 0.113371 0.961746 0.033351
C50   C     C_R   0.971875 0.996303 0.185959 0.011527
C51   C     C_R   0.322883 0.175189 0.921756 -0.208894
C52   C     C_R   0.784776 0.877263 0.130520 -0.209432
H35   H     H_    0.028652 0.872431 0.469940 0.135006
H36   H     H_    0.005743 0.153908 0.568084 0.181594
C53   C     C_R   0.153177 0.924077 0.428218 -0.020548
C54   C     C_R   0.913053 0.059426 0.616967 -0.085372
H37   H     H_    0.104443 0.933272 0.365862 0.090662
H38   H     H_    0.984223 0.078751 0.685163 0.114826
C55   C     C_R   0.257804 0.943931 0.447873 -0.126976
C56   C     C_R   0.809516 0.998787 0.600079 -0.061905
H39   H     H_    0.289802 0.972064 0.402273 0.131398
H40   H     H_    0.802011 0.972150 0.656361 0.126984
C57   C     C_R   0.314716 0.913871 0.515528 0.077287
C58   C     C_R   0.717489 0.985285 0.519304 0.117883
C59   C     C_R   0.271688 0.877509 0.573840 -0.122246
C60   C     C_R   0.729157 0.023863 0.449246 -0.123269
H41   H     H_    0.315117 0.855436 0.627613 0.132548
H42   H     H_    0.659147 0.015473 0.387579 0.119714
C61   C     C_R   0.169675 0.865230 0.558884 -0.165367
C62   C     C_R   0.833083 0.083807 0.466279 -0.157861
H43   H     H_    0.135113 0.836035 0.601804 0.132232
H44   H     H_    0.842508 0.118031 0.415677 0.127164
C63   C     C_R   0.109556 0.886583 0.484748 -0.077601
C64   C     C_R   0.925072 0.103513 0.551670 -0.125610
C65   C     C_R   0.510239 0.996480 0.610274 -0.233201
C66   C     C_R   0.520645 0.864927 0.435685 -0.213338
H45   H     H_    0.503182 0.047747 0.675236 0.153273
H46   H     H_    0.524802 0.813307 0.368101 0.129647
C67   C     C_R   0.609244 0.026616 0.610658 0.054727
C68   C     C_R   0.419567 0.846476 0.428496 0.063350
C69   C     C_R   0.615898 0.956744 0.524610 0.007991
C70   C     C_R   0.414870 0.912982 0.518551 0.023411
C71   C     C_R   0.249023 0.111789 0.811210 0.015471
C72   C     C_R   0.816295 0.897975 0.236211 0.014650
C73   C     C_R   0.050351 0.040634 0.153605 0.124825
C74   C     C_R   0.149981 0.109013 0.045113 0.078131
H47   H     H_    0.208927 0.998145 0.043417 0.116307
H48   H     H_    0.033305 0.182029 0.197336 0.110261
C75   C     C_R   0.287788 0.177474 0.996391 -0.197962
C76   C     C_R   0.862303 0.924462 0.105186 -0.157166
C77   C     C_R   0.096190 0.983377 0.105039 0.102990
C78   C     C_R   0.096418 0.161240 0.085971 0.085795
C79   C     C_3   0.474336 0.404353 0.906770 -0.308130
C80   C     C_3   0.498362 0.603903 0.955843 -0.288072
C81   C     C_3   0.399379 0.428798 0.831761 -0.184250
C82   C     C_3   0.572699 0.578398 0.029910 -0.147030
H49   H     H_    0.326316 0.367842 0.751019 0.169139
H50   H     H_    0.645513 0.636942 0.110821 0.136133
H51   H     H_    0.468781 0.324523 0.886921 0.159447
H52   H     H_    0.506683 0.685708 0.976553 0.154233
C83   C     C_3   0.399064 0.504630 0.930329 0.090524
C84   C     C_3   0.573999 0.502484 0.932032 0.102078
C85   C     C_3   0.473234 0.480604 0.004216 0.288459
C86   C     C_3   0.501130 0.527507 0.858254 0.267518
C87   C     C_2   0.988851 0.956953 0.806564 0.957337
O1    O     O_2   0.938830 0.877076 0.715710 -0.654945
O2    O     O_R   0.936945 0.970073 0.868262 -0.819226
H53   H     H_    0.859407 0.908421 0.829437 0.318849
C88   C     C_2   0.113933 0.115075 0.385939 0.987988
O3    O     O_2   0.127667 0.162616 0.476973 -0.637165
O4    O     O_R   0.203466 0.142497 0.369095 -0.816839
H54   H     H_    0.274134 0.202407 0.437902 0.324534
C89   C     C_3   0.458791 0.453124 0.088747 -0.415041
C90   C     C_3   0.490256 0.552824 0.191124 -0.854507
H55   H     H_    0.578400 0.611977 0.232719 0.274946
H56   H     H_    0.441833 0.592975 0.172102 0.254517
H57   H     H_    0.474043 0.527049 0.247112 0.254572
H58   H     H_    0.372514 0.392425 0.053118 0.207026
H59   H     H_    0.510509 0.416977 0.111368 0.193900
C91   C     C_3   0.520309 0.555906 0.776380 -0.408288
C92   C     C_3   0.516344 0.462300 0.689152 -0.843429
H60   H     H_    0.581110 0.444137 0.725548 0.258007
H61   H     H_    0.435583 0.387887 0.644872 0.258395
H62   H     H_    0.529551 0.485428 0.630632 0.252635
H63   H     H_    0.456508 0.574053 0.737679 0.191685
H64   H     H_    0.601197 0.629844 0.819279 0.191795
C93   C     C_2   0.284661 0.121499 0.733596 0.979124
O5    O     O_2   0.225341 0.121201 0.655487 -0.624537
O6    O     O_R   0.386913 0.133476 0.750536 -0.848655
H65   H     H_    0.403747 0.144970 0.694554 0.319097
C94   C     C_2   0.734702 0.844418 0.261944 0.951361
O7    O     O_2   0.762414 0.827160 0.336875 -0.649414
O8    O     O_R   0.625649 0.814494 0.200923 -0.840190
H66   H     H_    0.577619 0.780444 0.227172 0.310411

loop_
_geom_bond_atom_site_label_1
_geom_bond_atom_site_label_2
_geom_bond_distance
_ccdc_geom_bond_type
C26   C73   1.383739 A    
C37   C39   1.398996 A    
O4    H54   1.013920 S    
C82   C85   1.526831 S    
C25   C77   1.392811 A    
C83   C85   1.526897 S    
N5    N9    1.393623 A    
C36   C47   1.484219 S    
C6    N6    1.328820 A    
C7    N7    1.321682 A    
C88   O3    1.222470 D    
C8    C24   1.390880 A    
C85   C89   1.533957 S    
C57   C59   1.404885 A    
O2    H53   1.013775 S    
C29   C49   1.424126 A    
C92   H61   1.110806 S    
C2    N2    1.330343 A    
C93   O5    1.222103 D    
C3    N3    1.339135 A    
N1    N15   1.397715 A    
C25   H47   1.079907 S    
N8    N12   1.393498 A    
C32   H24   1.078953 S    
C1    N1    1.330414 A    
C12   N12   1.315240 A    
N7    Ni4   1.885831 S    
N15   Ni3   1.885584 S    
C79   C81   1.547858 S    
C9    C21   1.360737 A    
C14   N14   1.320565 A    
C39   C41   1.397160 A    
C53   H37   1.070628 S    
C22   C84   1.449755 S    
C13   C19   1.372585 A    
C19   C68   1.458441 S    
C34   H26   1.083212 S    
C52   C72   1.398664 A    
C71   C93   1.472400 S    
C44   C46   1.392117 A    
N13   Ni4   1.876484 S    
C32   C42   1.398226 A    
N1    Ni1   1.866613 S    
C28   H18   1.078784 S    
N2    Ni2   1.866612 S    
C26   H48   1.080959 S    
C91   C92   1.525834 S    
N4    N14   1.397840 A    
C2    C18   1.395555 A    
C27   C29   1.408420 A    
C53   C63   1.392904 A    
C90   H57   1.110188 S    
C40   C42   1.397396 A    
C16   H16   1.074926 S    
C80   H52   1.108349 S    
C21   C83   1.439530 S    
N14   Ni3   1.876482 S    
C50   C76   1.404430 A    
C66   H46   1.083520 S    
N6    N10   1.393622 A    
C80   C83   1.539078 S    
C81   C86   1.549537 S    
C4    C20   1.385649 A    
C53   C55   1.392907 A    
C89   H59   1.107998 S    
C59   H41   1.083084 S    
N9    Ni2   1.866551 S    
C43   H31   1.084578 S    
C82   C84   1.535445 S    
N10   Ni1   1.866549 S    
C20   C67   1.465511 S    
C31   H23   1.079115 S    
C81   H49   1.110148 S    
C66   C68   1.398895 A    
H34   C76   1.083770 S    
C24   C45   1.434852 S    
C10   C22   1.382658 A    
C45   C47   1.414735 A    
C60   H42   1.083306 S    
C92   H62   1.110180 S    
C5    C21   1.375119 A    
C33   H25   1.083280 S    
C9    N9    1.325525 A    
C27   H17   1.083406 S    
C94   O8    1.398193 S    
C38   C40   1.397675 A    
C72   C94   1.475556 S    
C31   C41   1.396978 A    
N3    Ni2   1.882730 S    
H20   C52   1.081839 S    
C93   O6    1.396892 S    
C74   C78   1.420376 A    
C89   C90   1.525587 S    
N4    Ni1   1.882731 S    
H19   C51   1.069663 S    
C15   C17   1.384703 A    
C68   C70   1.422943 A    
C51   C71   1.393296 A    
C25   C74   1.381381 A    
C49   C75   1.397426 A    
C1    H1    1.076256 S    
C12   H12   1.074352 S    
C2    H2    1.078394 S    
O6    H65   1.013701 S    
C51   C75   1.388413 A    
N5    Ni3   1.876250 S    
C65   C70   1.370394 A    
C34   C36   1.402830 A    
C61   C63   1.394370 A    
C87   O1    1.224128 D    
C14   C20   1.385470 A    
C33   C35   1.406308 A    
C4    N4    1.323741 A    
C11   H11   1.079986 S    
C80   C86   1.547802 S    
H36   C64   1.080766 S    
C29   C87   1.492334 S    
C44   H32   1.085088 S    
C79   C84   1.533991 S    
C15   H15   1.071883 S    
C43   C48   1.392371 A    
C56   C58   1.403912 A    
N2    N16   1.397716 A    
N8    Ni3   1.885833 S    
C55   C57   1.404362 A    
C58   C60   1.407062 A    
C18   C77   1.471842 S    
C90   H55   1.109489 S    
C37   H27   1.083123 S    
C66   C69   1.390624 A    
C8    H8    1.079558 S    
C65   C67   1.393623 A    
C36   C38   1.406243 A    
C5    H5    1.082130 S    
C11   N11   1.331498 A    
N6    Ni4   1.876247 S    
C79   C85   1.531203 S    
C43   C45   1.398858 A    
C62   H44   1.082408 S    
C30   C88   1.492536 S    
C7    C23   1.371127 A    
C3    H3    1.080317 S    
C54   C56   1.396732 A    
C73   C77   1.417187 A    
C40   H30   1.082745 S    
C7    H7    1.076912 S    
C6    H6    1.079926 S    
C10   H10   1.079628 S    
C30   C50   1.411599 A    
C80   C82   1.545975 S    
C86   C91   1.526097 S    
C35   C37   1.408143 A    
C56   H40   1.082971 S    
C26   C78   1.397611 A    
C52   C76   1.391990 A    
C89   H58   1.107196 S    
C35   C48   1.486737 S    
C59   C61   1.398972 A    
C9    H9    1.081607 S    
C91   H64   1.110938 S    
C46   C48   1.412596 A    
C50   C73   1.467321 S    
C62   C64   1.398176 A    
C6    C22   1.380560 A    
N16   Ni4   1.885584 S    
C84   C86   1.526041 S    
C87   O2    1.397725 S    
C81   C83   1.534203 S    
C3    C19   1.394499 A    
O8    H66   1.012375 S    
C13   H13   1.072347 S    
C92   H60   1.110265 S    
C49   C74   1.470781 S    
C14   H14   1.060679 S    
H33   C75   1.083944 S    
C94   O7    1.223213 D    
C15   N15   1.328473 A    
C44   C47   1.366822 A    
H22   C42   1.082393 S    
C23   C46   1.436115 S    
C90   H56   1.108002 S    
C12   C24   1.369377 A    
C17   C78   1.470805 S    
N3    N13   1.397839 A    
C82   H50   1.106131 S    
C13   N13   1.321757 A    
C79   H51   1.095665 S    
N7    N11   1.393499 A    
C54   H38   1.074571 S    
C61   H43   1.074315 S    
H35   C63   1.082467 S    
C5    N5    1.334624 A    
C60   C62   1.398294 A    
C65   H45   1.079501 S    
H21   C41   1.082532 S    
C28   C30   1.405239 A    
C16   C18   1.377660 A    
C4    H4    1.080990 S    
C32   C34   1.397755 A    
C28   C72   1.404105 A    
C67   C69   1.417995 A    
C39   H29   1.082499 S    
C31   C33   1.394234 A    
C38   H28   1.082633 S    
C88   O4    1.398415 S    
N11   Ni1   1.882960 S    
C11   C23   1.376081 A    
N12   Ni2   1.882962 S    
C57   C70   1.480653 S    
C1    C17   1.404704 A    
C91   H63   1.110082 S    
C8    N8    1.336548 A    
C27   C71   1.397494 A    
C58   C69   1.471560 S    
C16   N16   1.326747 A    
C54   C64   1.395515 A    
C55   H39   1.083488 S    
C10   N10   1.328056 A    
