data_mof_unit_52874.cif
_audit_creation_date              2012-12-10T19:27:35-0500
_audit_creation_method            fapswitch 2.2
_symmetry_space_group_name_H-M    P1
_symmetry_Int_Tables_number       1
_space_group_crystal_system       triclinic
_cell_length_a                    23.453524
_cell_length_b                    10.488112
_cell_length_c                    9.719409
_cell_angle_alpha                 89.635834
_cell_angle_beta                  89.873227
_cell_angle_gamma                 90.064987
_cell_volume                      2390.75547723

loop_
_atom_site_label
_atom_site_type_symbol
_atom_type_description
_atom_site_fract_x
_atom_site_fract_y
_atom_site_fract_z
_atom_type_partial_charge
C1    C     C_R   0.500024 0.257372 0.500492 0.881092
C2    C     C_R   0.700028 0.524754 0.626660 -0.271577
C3    C     C_R   0.240844 0.474502 0.641139 0.059713
C4    C     C_R   0.758978 0.520066 0.640096 0.060186
C5    C     C_R   0.207962 0.505399 0.525018 0.258302
C6    C     C_R   0.791834 0.484701 0.525591 0.255187
C7    C     C_3   0.499952 0.039286 0.631422 -0.149941
C8    C     C_3   0.500042 0.960695 0.368495 -0.132067
C9    C     C_3   0.546904 0.957203 0.564665 -0.189912
C10   C     C_3   0.453092 0.042785 0.435250 -0.166659
C11   C     C_3   0.499977 0.877664 0.498377 0.023520
C12   C     C_R   0.499975 0.742624 0.499493 0.880321
C13   C     C_3   0.500018 0.122327 0.501548 0.013886
C14   C     C_3   0.453025 0.957030 0.564951 -0.158578
C15   C     C_3   0.546969 0.042958 0.434961 -0.163678
C16   C     C_R   0.389274 0.503007 0.500227 0.895772
C17   C     C_R   0.610691 0.496132 0.500002 0.898119
C18   C     C_3   0.479142 0.394683 0.049516 -0.058420
C19   C     C_3   0.520857 0.605298 0.950453 -0.105581
C20   C     C_3   0.530329 0.407047 0.951698 -0.063358
C21   C     C_3   0.469712 0.592979 0.048248 -0.068480
C22   C     C_3   0.448779 0.487707 0.951822 -0.072540
C23   C     C_R   0.233995 0.537914 0.400230 -0.171971
C24   C     C_3   0.551203 0.512372 0.048149 -0.058677
C25   C     C_R   0.879569 0.602980 0.530171 0.511976
C26   C     C_R   0.120271 0.386828 0.535023 0.512189
C27   C     C_R   0.881721 0.374845 0.533844 0.476942
C28   C     C_R   0.118043 0.614932 0.529066 0.476249
C29   C     C_R   0.941218 0.375360 0.536538 -0.011084
C30   C     C_R   0.058562 0.614422 0.531693 -0.011431
C31   C     C_R   0.969966 0.493394 0.535269 -0.024136
C32   C     C_R   0.029830 0.496400 0.535295 -0.024194
C33   C     C_R   0.939005 0.608428 0.532409 -0.017757
C34   C     C_R   0.765807 0.449953 0.402254 -0.169124
C35   C     C_R   0.060810 0.381372 0.537363 -0.017906
C36   C     C_R   0.972448 0.261294 0.539621 -0.167278
C37   C     C_R   0.027340 0.728504 0.529918 -0.167305
C38   C     C_R   0.031780 0.264280 0.540182 -0.167157
C39   C     C_R   0.968023 0.725531 0.530413 -0.167673
C40   C     C_2   0.317188 0.593974 0.258537 0.926318
C41   C     C_2   0.682518 0.393941 0.262269 0.905586
C42   C     C_R   0.214724 0.445632 0.776988 0.115114
C43   C     C_R   0.178791 0.534596 0.841130 -0.151027
C44   C     C_R   0.155979 0.508926 0.971471 -0.118663
C45   C     C_R   0.293183 0.543272 0.388848 -0.044707
C46   C     C_R   0.169058 0.394773 0.039152 -0.066879
C47   C     C_R   0.204985 0.306063 0.976546 -0.089289
C48   C     C_R   0.227877 0.331324 0.846180 -0.112171
C49   C     C_R   0.785044 0.550369 0.774960 0.116039
C50   C     C_R   0.819955 0.460932 0.842413 -0.150076
C51   C     C_R   0.842629 0.487853 0.971990 -0.110223
C52   C     C_R   0.830439 0.603779 0.035603 -0.066595
C53   C     C_R   0.795574 0.693050 0.969636 -0.101440
C54   C     C_R   0.772817 0.666533 0.840020 -0.113115
C55   C     C_R   0.706575 0.447331 0.390554 -0.045486
C56   C     C_R   0.326746 0.507045 0.503812 -0.139800
C57   C     C_R   0.673140 0.489135 0.503464 -0.140029
C58   C     C_R   0.299894 0.472969 0.628308 -0.270709
H1    H     H_    0.951202 0.169533 0.541039 0.190777
H2    H     H_    0.945055 0.815071 0.528427 0.192058
H3    H     H_    0.207495 0.563273 0.312960 0.163149
H4    H     H_    0.792346 0.421154 0.316405 0.168019
H5    H     H_    0.324975 0.446626 0.717596 0.164987
H6    H     H_    0.674997 0.554739 0.714604 0.170562
H7    H     H_    0.585013 0.917377 0.617070 0.140796
H8    H     H_    0.414980 0.082586 0.382836 0.144807
H9    H     H_    0.499928 0.075416 0.738568 0.144026
H10   H     H_    0.500052 0.924546 0.261357 0.147834
H11   H     H_    0.414852 0.917060 0.617538 0.146050
H12   H     H_    0.048582 0.820260 0.527560 0.190959
H13   H     H_    0.585148 0.082858 0.382359 0.180039
H14   H     H_    0.315143 0.593025 0.050982 0.332177
H15   H     H_    0.687912 0.382296 0.055387 0.334904
H16   H     H_    0.169328 0.624804 0.791696 0.163051
H17   H     H_    0.128526 0.578045 0.020528 0.138042
H18   H     H_    0.151599 0.375376 0.140358 0.132879
H19   H     H_    0.215264 0.217857 0.029250 0.139614
H20   H     H_    0.255781 0.261821 0.799087 0.137394
H21   H     H_    0.828693 0.369424 0.796186 0.162881
H22   H     H_    0.869263 0.418340 0.023639 0.136943
H23   H     H_    0.555837 0.329043 0.905576 0.125883
H24   H     H_    0.847776 0.624143 0.136250 0.135221
H25   H     H_    0.786009 0.782675 0.019162 0.140327
H26   H     H_    0.745729 0.736487 0.790314 0.137254
H27   H     H_    0.444700 0.671847 0.093957 0.165579
H28   H     H_    0.461576 0.306232 0.096595 0.125488
H29   H     H_    0.538434 0.693740 0.903367 0.129269
H30   H     H_    0.405682 0.477354 0.906247 0.126414
H31   H     H_    0.594174 0.524133 0.093711 0.151058
H32   H     H_    0.054753 0.174746 0.542000 0.192016
N1    N     N_R   0.852478 0.487511 0.531443 -0.352885
N2    N     N_R   0.147322 0.502311 0.531357 -0.353154
N3    N     N_3   0.499960 0.500030 0.863290 -0.078115
N4    N     N_3   0.500040 0.499970 0.136710 -0.074329
O1    O     O_R   0.500000 0.313960 0.616610 -0.632005
O2    O     O_2   0.150966 0.278029 0.534960 -0.560084
O3    O     O_2   0.853118 0.263079 0.534239 -0.562791
O4    O     O_2   0.146613 0.726710 0.524867 -0.561595
O5    O     O_2   0.353347 0.678001 0.260740 -0.641481
O6    O     O_R   0.296067 0.550331 0.132900 -0.815388
O7    O     O_2   0.643305 0.317085 0.267325 -0.639092
O8    O     O_R   0.707138 0.426225 0.135536 -0.818863
O9    O     O_R   0.500000 0.686040 0.383390 -0.615826
O10   O     O_R   0.500030 0.313950 0.383350 -0.607754
O11   O     O_R   0.499970 0.686050 0.616650 -0.627924
O12   O     O_R   0.416140 0.499970 0.616650 -0.629098
O13   O     O_R   0.583860 0.500030 0.383350 -0.597248
O14   O     O_R   0.416170 0.499960 0.383400 -0.594707
O15   O     O_R   0.583830 0.500040 0.616600 -0.626040
O16   O     O_2   0.848921 0.711788 0.525358 -0.561139
Zn1   Zn    Zn3+2 0.499980 0.500010 0.655740 0.940084
Zn2   Zn    Zn3+2 0.500020 0.499990 0.344260 0.989158

loop_
_geom_bond_atom_site_label_1
_geom_bond_atom_site_label_2
_ccdc_geom_bond_type
C20   N3    S    
C3    C42   S    
C23   C45   A    
C27   C29   A    
O13   Zn2   S    
C36   H1    S    
C50   H21   S    
C40   O5    D    
C46   H18   S    
C2    C57   A    
C53   C54   A    
C29   C36   A    
C33   C39   A    
C21   C22   S    
C19   C21   S    
C19   H29   S    
C17   O13   A    
C12   O11   A    
C11   C14   S    
C21   N4    S    
C26   N2    A    
C49   C54   A    
C34   H4    S    
C41   O8    S    
C48   H20   S    
C51   H22   S    
C41   C55   S    
O15   Zn1   S    
C7    C14   S    
C20   C24   S    
C45   C56   A    
C2    H6    S    
C31   C33   A    
C27   N1    A    
C22   H30   S    
N4    Zn2   S    
C19   N3    S    
C16   O12   A    
C43   H16   S    
O11   Zn1   S    
C34   C55   A    
C37   H12   S    
C24   H31   S    
C54   H26   S    
C44   C46   A    
O12   Zn1   S    
C10   H8    S    
C26   O2    S    
C40   C45   S    
C21   H27   S    
C25   N1    A    
C51   C52   A    
C32   C35   A    
C35   C38   A    
C12   O9    A    
C4    C6    A    
C10   C14   S    
O10   Zn2   S    
C42   C48   A    
O14   Zn2   S    
C30   C37   A    
O9    Zn2   S    
C44   H17   S    
C2    C4    A    
C43   C44   A    
C16   C56   S    
C24   N4    S    
C47   C48   A    
C5    C23   A    
C7    C13   S    
C1    O1    A    
C50   C51   A    
C28   N2    A    
C18   H28   S    
C52   H24   S    
C9    C11   S    
C1    O10   A    
C25   O16   S    
N3    Zn1   S    
C8    C10   S    
H15   O8    S    
C8    H10   S    
C8    C15   S    
C13   C15   S    
C18   N4    S    
C22   N3    S    
C1    C13   S    
C42   C43   A    
C47   H19   S    
C52   C53   A    
H14   O6    S    
C28   O4    S    
C58   H5    S    
C7    C9    S    
C46   C47   A    
C27   O3    S    
C41   O7    D    
C18   C22   S    
C31   C32   A    
C3    C5    A    
C10   C13   S    
C17   O15   A    
C40   O6    S    
C11   C12   S    
C15   H13   S    
C38   H32   S    
C4    C49   S    
C53   H25   S    
C55   C57   A    
C19   C24   S    
C9    C15   S    
C28   C30   A    
C29   C31   A    
O1    Zn1   S    
C30   C32   A    
C8    C11   S    
C39   H2    S    
C36   C38   A    
C14   H11   S    
C56   C58   A    
C18   C20   S    
C9    H7    S    
C5    N2    S    
C16   O14   A    
C7    H9    S    
C3    C58   A    
C6    C34   A    
C26   C35   A    
C23   H3    S    
C37   C39   A    
C49   C50   A    
C17   C57   S    
C20   H23   S    
C6    N1    S    
C25   C33   A    
