data_mof_unit_53148.cif
_audit_creation_date              2013-03-05T15:43:39-0500
_audit_creation_method            fapswitch 2.2
_symmetry_space_group_name_H-M    P1
_symmetry_Int_Tables_number       1
_space_group_crystal_system       triclinic
_cell_length_a                    15.922823
_cell_length_b                    10.93336
_cell_length_c                    9.766955
_cell_angle_alpha                 89.94267
_cell_angle_beta                  89.153909
_cell_angle_gamma                 90.38727
_cell_volume                      1700.10351221

loop_
_atom_site_label
_atom_site_type_symbol
_atom_site_description
_atom_site_fract_x
_atom_site_fract_y
_atom_site_fract_z
_atom_type_partial_charge
O1    O     O_R   0.500010 0.321960 0.617040 -0.584304
O2    O     O_R   0.499990 0.321920 0.382900 -0.535395
C1    C     C_R   0.501032 0.265589 0.500085 0.857260
O3    O     O_R   0.379450 0.500030 0.617120 -0.513112
O4    O     O_R   0.379420 0.499980 0.382980 -0.540694
C2    C     C_R   0.340497 0.501058 0.500890 0.847993
Cu1   Cu    Cu3+1 0.500020 0.500020 0.638630 1.023848
Cu2   Cu    Cu3+1 0.499980 0.499980 0.361370 1.017446
O5    O     O_R   0.500010 0.678080 0.617100 -0.540774
O6    O     O_R   0.499990 0.678040 0.382960 -0.597792
O7    O     O_R   0.620580 0.500020 0.617020 -0.585812
O8    O     O_R   0.620550 0.499970 0.382880 -0.571108
C3    C     C_R   0.499138 0.734382 0.500065 0.835835
C4    C     C_R   0.659445 0.500272 0.499059 0.798176
C5    C     C_3   0.046997 0.584119 0.623789 -0.110514
C6    C     C_3   0.047017 0.364550 0.520954 0.441752
C7    C     C_3   0.948284 0.370809 0.510327 -0.420933
H1    H     H_    0.915798 0.326002 0.598106 0.210050
H2    H     H_    0.924638 0.315507 0.424060 0.210773
C8    C     C_1   0.748779 0.501522 0.497307 -0.133652
C9    C     C_3   0.083042 0.500710 0.503463 0.100722
C10   C     C_3   0.948223 0.575579 0.629850 -0.089782
C11   C     C_3   0.916395 0.504992 0.499600 0.074810
C12   C     C_3   0.952157 0.567616 0.363314 0.439987
C13   C     C_3   0.051751 0.564112 0.367285 -0.210006
C14   C     C_1   0.824076 0.503011 0.497534 -0.000906
C15   C     C_1   0.175644 0.503161 0.503338 0.017343
C16   C     C_1   0.251057 0.502870 0.502600 -0.064745
H3    H     H_    0.074244 0.660540 0.376034 0.165097
H4    H     H_    0.061852 0.680709 0.595577 0.148060
H5    H     H_    0.923397 0.670210 0.626710 0.168300
C17   C     C_2   0.503872 0.933020 0.387778 -0.160317
C18   C     C_2   0.495204 0.866366 0.502373 -0.285947
H6    H     H_    0.512644 0.888488 0.289247 0.176441
H7    H     H_    0.483452 0.907079 0.601625 0.167594
C19   C     C_2   0.500441 0.067002 0.387691 -0.111995
C20   C     C_2   0.505129 0.133547 0.502529 -0.299669
H8    H     H_    0.495211 0.111562 0.288795 0.205446
H9    H     H_    0.513941 0.092676 0.602118 0.153190
C21   C     C_2   0.433381 0.507880 0.926116 0.322626
N1    N     N_2   0.499090 0.498660 0.846910 -0.343430
H10   H     H_    0.546577 0.445384 0.884424 0.176922
C22   C     C_2   0.436725 0.468625 0.074450 0.377187
N2    N     N_2   0.499070 0.498630 0.153040 -0.203225
C23   C     C_3   0.911400 0.524885 0.766735 -0.717621
H11   H     H_    0.925492 0.588613 0.851905 0.248689
H12   H     H_    0.841977 0.517138 0.763144 0.229841
H13   H     H_    0.936947 0.434184 0.792828 0.281901
N3    N     N_R   0.917796 0.505380 0.240246 0.152684
O9    O     O_R   0.942049 0.396929 0.203375 -0.391474
O10   O     O_R   0.858664 0.556003 0.169297 -0.363068
N4    N     N_R   0.359432 0.566378 0.877512 0.155549
O11   O     O_R   0.364265 0.676261 0.826706 -0.352442
O12   O     O_R   0.288007 0.508147 0.877401 -0.314045
N5    N     N_R   0.369964 0.393801 0.128939 0.154489
O13   O     O_R   0.385966 0.285037 0.175181 -0.354342
O14   O     O_R   0.293450 0.434269 0.135096 -0.335704
C24   C     C_3   0.090535 0.573808 0.764027 -0.638398
H14   H     H_    0.159152 0.588072 0.752218 0.271600
H15   H     H_    0.067751 0.647547 0.833036 0.209244
H16   H     H_    0.078699 0.485606 0.816332 0.289484
C25   C     C_3   0.562717 0.585204 0.102754 -0.570087
H17   H     H_    0.592735 0.632287 0.189276 0.251347
H18   H     H_    0.614050 0.536668 0.048055 0.189800
H19   H     H_    0.535481 0.659277 0.039598 0.178029
C26   C     C_3   0.081490 0.273692 0.411979 -0.748612
H20   H     H_    0.072196 0.178189 0.448634 0.245214
H21   H     H_    0.048349 0.277444 0.314004 0.246095
H22   H     H_    0.149799 0.286823 0.392735 0.246912
N6    N     N_R   0.072386 0.312716 0.654580 0.129901
O15   O     O_R   0.151774 0.307928 0.684263 -0.319602
O16   O     O_R   0.021283 0.243452 0.725972 -0.367368
C27   C     C_3   0.097052 0.530268 0.231238 -0.646896
H23   H     H_    0.068969 0.581597 0.145199 0.240089
H24   H     H_    0.164112 0.558291 0.234782 0.246400
H25   H     H_    0.095340 0.432531 0.205737 0.278517
C28   C     C_3   0.925187 0.704880 0.356041 -0.858786
H26   H     H_    0.944347 0.744249 0.255267 0.259076
H27   H     H_    0.856083 0.714752 0.367483 0.251253
H28   H     H_    0.955392 0.762742 0.434647 0.189583

loop_
_geom_bond_atom_site_label_1
_geom_bond_atom_site_label_2
_geom_bond_distance
_ccdc_geom_bond_type
C26   H21   1.100450 S    
N5    O13   1.299771 A    
C6    C9    1.599829 S    
C27   H23   1.111134 S    
Cu1   Cu2   2.707995 S    
C23   H11   1.110118 S    
Cu1   O7    1.928123 S    
C7    C11   1.559618 S    
C17   C19   1.466260 S    
C19   C20   1.340267 D    
C5    C10   1.575139 S    
O4    C2    1.299815 A    
C18   H7    1.081433 S    
O7    C4    1.299715 A    
C23   H13   1.105369 S    
C26   H22   1.109392 S    
C24   H15   1.110729 S    
N1    H10   1.029072 S    
C11   C14   1.470426 S    
O5    C3    1.298047 A    
C25   H18   1.108441 S    
C7    H2    1.106610 S    
C21   C22   1.512387 S    
C2    C16   1.424268 S    
C6    C7    1.579005 S    
N3    O10   1.303286 A    
C11   C12   1.592304 S    
N6    O15   1.302442 A    
C28   H26   1.111591 S    
C24   H16   1.104615 S    
C28   H27   1.110338 S    
C26   H20   1.111731 S    
C9    C15   1.474524 S    
C27   H24   1.109916 S    
O3    Cu1   1.934356 S    
N4    O12   1.299624 A    
C23   H12   1.109147 S    
C13   H3    1.114937 S    
C10   H5    1.110625 S    
C4    C8    1.422270 S    
C6    N6    1.484879 S    
C12   C13   1.587582 S    
O3    C2    1.301691 A    
N2    C25   1.461381 S    
C24   H14   1.106920 S    
C21   N4    1.430711 S    
O1    C1    1.298438 A    
C17   H6    1.086536 S    
C22   N2    1.304176 D    
C3    C18   1.444988 S    
C25   H17   1.103200 S    
Cu2   O8    1.934358 S    
C7    H1    1.106899 S    
C22   N5    1.432891 S    
C21   N1    1.296526 D    
O8    C4    1.300726 A    
N5    O14   1.299557 A    
C27   H25   1.097735 S    
C6    C26   1.553444 S    
N4    O11   1.300738 A    
C5    H4    1.114115 S    
C28   H28   1.108478 S    
C12   N3    1.491033 S    
Cu1   O5    1.957909 S    
C9    C13   1.587503 S    
C25   H19   1.111794 S    
O1    Cu1   1.958390 S    
O2    Cu2   1.957911 S    
Cu2   N2    2.035084 S    
O6    C3    1.299578 A    
O4    Cu2   1.928125 S    
C17   C18   1.339883 D    
C19   H8    1.085939 S    
O2    C1    1.299561 A    
C20   H9    1.081423 S    
C8    C14   1.198982 T    
C5    C24   1.548596 S    
C13   C27   1.548912 S    
Cu1   N1    2.034135 S    
C12   C28   1.565607 S    
C5    C9    1.591058 S    
C10   C23   1.552219 S    
C1    C20   1.445769 S    
Cu2   O6    1.958389 S    
N3    O9    1.299131 A    
C15   C16   1.200727 T    
C10   C11   1.576872 S    
N6    O16   1.302175 A    
