data_mof_unit_29874.cif
_audit_creation_date              2013-03-05T15:51:40-0500
_audit_creation_method            fapswitch 2.2
_symmetry_space_group_name_H-M    P1
_symmetry_Int_Tables_number       1
_space_group_crystal_system       triclinic
_cell_length_a                    31.495242
_cell_length_b                    18.498846
_cell_length_c                    25.68116
_cell_angle_alpha                 89.958212
_cell_angle_beta                  144.758058
_cell_angle_gamma                 90.008533
_cell_volume                      8633.81266346

loop_
_atom_site_label
_atom_site_type_symbol
_atom_site_description
_atom_site_fract_x
_atom_site_fract_y
_atom_site_fract_z
_atom_type_partial_charge
Zn1   Zn    Zn3+2 1.000000 0.086750 0.293940 1.061283
Zn2   Zn    Zn3+2 1.000000 0.913250 0.706060 1.058484
Zn3   Zn    Zn3+2 1.000000 0.086750 0.706060 1.053711
Zn4   Zn    Zn3+2 1.000000 0.913250 0.293940 1.067594
Zn5   Zn    Zn3+2 0.500000 0.586750 0.293940 1.057808
Zn6   Zn    Zn3+2 0.500000 0.413250 0.706060 1.067013
Zn7   Zn    Zn3+2 0.500000 0.586750 0.706060 1.045586
Zn8   Zn    Zn3+2 0.500000 0.413250 0.293940 1.061240
Zn9   Zn    Zn3+2 0.913220 0.000000 0.119290 1.137011
Zn10  Zn    Zn3+2 0.086780 0.000000 0.880710 1.142989
Zn11  Zn    Zn3+2 0.413220 0.500000 0.119290 1.141057
Zn12  Zn    Zn3+2 0.586780 0.500000 0.880710 1.137886
Zn13  Zn    Zn3+2 0.086730 0.000000 0.292800 1.116161
Zn14  Zn    Zn3+2 0.913270 0.000000 0.707200 1.153235
Zn15  Zn    Zn3+2 0.586730 0.500000 0.292800 1.142900
Zn16  Zn    Zn3+2 0.413270 0.500000 0.707200 1.149065
O1    O     O_3   0.999990 0.000000 0.249990 -0.528801
O2    O     O_3   0.000010 0.000000 0.750010 -0.527227
O3    O     O_3   0.499990 0.500000 0.249990 -0.530090
O4    O     O_3   0.500010 0.500000 0.750010 -0.525642
O5    O     O_R   0.914560 0.853840 0.195310 -0.641222
O6    O     O_R   0.085440 0.146160 0.804690 -0.646861
O7    O     O_R   0.085440 0.853840 0.804690 -0.628199
O8    O     O_R   0.914560 0.146160 0.195310 -0.645041
O9    O     O_R   0.414560 0.353840 0.195310 -0.623441
O10   O     O_R   0.585440 0.646160 0.804690 -0.647623
O11   O     O_R   0.585440 0.353840 0.804690 -0.629374
O12   O     O_R   0.414560 0.646160 0.195310 -0.644526
O13   O     O_R   0.085440 0.146150 0.366190 -0.596604
O14   O     O_R   0.914560 0.853850 0.633810 -0.605262
O15   O     O_R   0.914560 0.146150 0.633810 -0.612955
O16   O     O_R   0.085440 0.853850 0.366190 -0.585218
O17   O     O_R   0.585440 0.646150 0.366190 -0.611031
O18   O     O_R   0.414560 0.353850 0.633810 -0.609806
O19   O     O_R   0.414560 0.646150 0.633810 -0.601464
O20   O     O_R   0.585440 0.353850 0.366190 -0.594314
O21   O     O_R   0.853820 0.085430 0.073070 -0.589361
O22   O     O_R   0.146180 0.914570 0.926930 -0.598082
O23   O     O_R   0.146180 0.085430 0.926930 -0.590358
O24   O     O_R   0.853820 0.914570 0.073070 -0.598164
O25   O     O_R   0.353820 0.585430 0.073070 -0.588546
O26   O     O_R   0.646180 0.414570 0.926930 -0.596412
O27   O     O_R   0.646180 0.585430 0.926930 -0.591491
O28   O     O_R   0.353820 0.414570 0.073070 -0.598146
O29   O     O_R   0.146150 0.914540 0.365390 -0.652170
O30   O     O_R   0.853850 0.085460 0.634610 -0.563544
O31   O     O_R   0.853850 0.914540 0.634610 -0.576846
O32   O     O_R   0.146150 0.085460 0.365390 -0.584014
O33   O     O_R   0.646150 0.414540 0.365390 -0.605713
O34   O     O_R   0.353850 0.585460 0.634610 -0.614001
O35   O     O_R   0.353850 0.414540 0.634610 -0.555590
O36   O     O_R   0.646150 0.585460 0.365390 -0.555489
O37   O     O_R   0.939240 0.000000 0.071950 -0.589102
O38   O     O_R   0.060760 0.000000 0.928050 -0.586724
O39   O     O_R   0.439240 0.500000 0.071950 -0.585068
O40   O     O_R   0.560760 0.500000 0.928050 -0.581119
O41   O     O_R   0.000020 0.939290 0.367320 -0.632080
O42   O     O_R   0.999980 0.060710 0.632680 -0.612501
O43   O     O_R   0.999980 0.939290 0.632680 -0.661158
O44   O     O_R   0.000020 0.060710 0.367320 -0.630110
O45   O     O_R   0.500020 0.439290 0.367320 -0.659584
O46   O     O_R   0.499980 0.560710 0.632680 -0.624848
O47   O     O_R   0.499980 0.439290 0.632680 -0.645122
O48   O     O_R   0.500020 0.560710 0.367320 -0.613559
O49   O     O_R   0.060680 0.000000 0.193390 -0.625898
O50   O     O_R   0.939320 0.000000 0.806610 -0.628202
O51   O     O_R   0.560680 0.500000 0.193390 -0.619848
O52   O     O_R   0.439320 0.500000 0.806610 -0.628739
C1    C     C_R   0.855745 0.864247 0.109120 0.871474
C2    C     C_R   0.140219 0.140394 0.890612 0.866908
C3    C     C_R   0.144237 0.864315 0.890918 0.889131
C4    C     C_R   0.859751 0.140201 0.109416 0.864209
C5    C     C_R   0.355725 0.364280 0.109054 0.887255
C6    C     C_R   0.640189 0.640373 0.890581 0.864905
C7    C     C_R   0.644178 0.364211 0.890912 0.889137
C8    C     C_R   0.359764 0.640297 0.109349 0.867171
C9    C     C_R   0.140385 0.139619 0.390023 0.888297
C10   C     C_R   0.858384 0.861374 0.607976 0.903258
C11   C     C_R   0.859092 0.139095 0.608846 0.898739
C12   C     C_R   0.140701 0.860576 0.391073 0.926053
C13   C     C_R   0.640343 0.639493 0.389881 0.898646
C14   C     C_R   0.359083 0.361077 0.608649 0.913469
C15   C     C_R   0.355703 0.635956 0.602675 0.882093
C16   C     C_R   0.641332 0.361294 0.391549 0.897918
C17   C     C_R   0.000358 0.989608 0.109613 0.992062
C18   C     C_R   0.999765 0.996887 0.891671 0.987757
C19   C     C_R   0.499949 0.488061 0.109535 0.973583
C20   C     C_R   0.500034 0.497342 0.891976 0.947705
C21   C     C_R   0.999929 0.000046 0.391455 0.894607
C22   C     C_R   0.000219 0.999974 0.608689 0.874151
C23   C     C_R   0.499778 0.499950 0.391303 0.873821
C24   C     C_R   0.500287 0.500089 0.608756 0.881568
C25   C     C_3   0.058258 0.961719 0.540786 -0.206082
C26   C     C_3   0.942410 0.038540 0.459851 -0.213415
C27   C     C_3   0.995549 0.931438 0.512715 -0.222721
C28   C     C_3   0.005056 0.068779 0.487851 -0.200793
C29   C     C_3   0.504437 0.431485 0.487362 -0.218984
C30   C     C_3   0.495349 0.568920 0.512428 -0.195702
C31   C     C_3   0.441875 0.462079 0.459445 -0.212295
C32   C     C_3   0.557826 0.538381 0.540227 -0.215062
C33   C     C_3   0.062429 0.029778 0.579581 0.316184
C34   C     C_3   0.938176 0.970510 0.421033 0.300726
C35   C     C_3   0.561976 0.470386 0.579080 0.301626
C36   C     C_3   0.437802 0.530116 0.420650 0.319710
H1    H     H_    0.105996 0.930665 0.573501 0.201067
H2    H     H_    0.894663 0.069702 0.426958 0.205106
H3    H     H_    0.991162 0.875091 0.522892 0.186875
H4    H     H_    0.009466 0.125099 0.477644 0.191805
H5    H     H_    0.508648 0.375103 0.477098 0.186889
H6    H     H_    0.491103 0.625271 0.522719 0.191574
H7    H     H_    0.394061 0.431287 0.426763 0.186759
H8    H     H_    0.605606 0.569272 0.572937 0.203782
C37   C     C_3   0.000376 0.999851 0.551507 -0.069101
C38   C     C_3   0.000190 0.000348 0.449042 -0.064834
C39   C     C_3   0.500106 0.500503 0.551237 -0.059465
C40   C     C_3   0.499691 0.499855 0.448543 -0.069973
H9    H     H_    0.110342 0.294512 0.206314 0.207761
H10   H     H_    0.925793 0.674386 0.807848 0.200265
H11   H     H_    0.906258 0.316868 0.792662 0.210978
H12   H     H_    0.154500 0.773731 0.224714 0.212080
H13   H     H_    0.600417 0.811034 0.207353 0.208735
H14   H     H_    0.414990 0.186882 0.805590 0.201517
H15   H     H_    0.230726 0.650982 0.648002 0.173009
H16   H     H_    0.567982 0.170179 0.190949 0.198828
C41   C     C_R   0.252026 0.146027 0.586586 0.258040
C42   C     C_R   0.711463 0.877527 0.412790 0.257407
C43   C     C_R   0.739298 0.137572 0.408613 0.274114
C44   C     C_R   0.216179 0.801646 0.559870 0.278379
C45   C     C_R   0.759990 0.635310 0.589055 0.272071
C46   C     C_R   0.228364 0.369011 0.410502 0.249373
C47   C     C_R   0.282272 0.688871 0.425882 0.304783
C48   C     C_R   0.792137 0.380137 0.584606 0.266991
C49   C     C_R   0.311479 0.143404 0.680113 -0.166650
C50   C     C_R   0.660827 0.876434 0.321313 -0.181274
C51   C     C_R   0.676123 0.131781 0.314995 -0.191249
C52   C     C_R   0.224818 0.758711 0.612809 -0.184805
C53   C     C_R   0.821948 0.630429 0.682742 -0.190777
C54   C     C_R   0.177325 0.363817 0.319204 -0.180950
C55   C     C_R   0.248238 0.718637 0.348005 -0.207872
C56   C     C_R   0.844990 0.380463 0.676952 -0.189690
C57   C     C_R   0.878581 0.679394 0.735016 -0.187936
C58   C     C_R   0.144329 0.298724 0.274876 -0.194440
C59   C     C_R   0.186210 0.761171 0.291005 -0.252097
C60   C     C_R   0.870416 0.315828 0.723088 -0.188242
C61   C     C_R   0.369513 0.190145 0.732836 -0.194962
C62   C     C_R   0.635114 0.811182 0.276389 -0.185404
C63   C     C_R   0.617008 0.177248 0.263507 -0.195766
C64   C     C_R   0.234106 0.684602 0.617043 -0.279664
C65   C     C_R   0.874019 0.736741 0.695603 0.327188
C66   C     C_R   0.157435 0.238321 0.319019 0.301952
C67   C     C_R   0.160139 0.779443 0.314147 0.313144
C68   C     C_R   0.849918 0.250179 0.679836 0.313637
C69   C     C_R   0.368681 0.243146 0.693792 0.322951
C70   C     C_R   0.653169 0.746461 0.319578 0.292720
C71   C     C_R   0.620536 0.232827 0.303377 0.318648
C72   C     C_R   0.244388 0.654091 0.578013 0.338520
C73   C     C_R   0.811853 0.744220 0.599437 -0.077824
C74   C     C_R   0.200947 0.244743 0.409043 -0.068626
C75   C     C_R   0.204992 0.765421 0.403558 -0.061638
C76   C     C_R   0.803881 0.250334 0.588826 -0.071188
C77   C     C_R   0.308712 0.248335 0.597386 -0.077534
C78   C     C_R   0.697855 0.748155 0.410135 -0.073480
C79   C     C_R   0.685475 0.242830 0.399290 -0.081494
C80   C     C_R   0.251841 0.700622 0.541522 -0.055308
C81   C     C_R   0.251462 0.195681 0.542687 -0.014096
C82   C     C_R   0.737709 0.811420 0.460692 -0.026327
C83   C     C_R   0.743294 0.190497 0.453487 0.004332
C84   C     C_R   0.221379 0.769910 0.514733 -0.022396
C85   C     C_R   0.755550 0.690132 0.544819 0.004980
C86   C     C_R   0.244485 0.307551 0.458893 -0.017995
C87   C     C_R   0.262229 0.712698 0.457044 0.002130
C88   C     C_R   0.763940 0.313195 0.537589 -0.031290
C89   C     C_R   0.801911 0.805219 0.555894 -0.105547
C90   C     C_R   0.198970 0.193397 0.448569 -0.098784
C91   C     C_R   0.192902 0.800633 0.440029 -0.107109
C92   C     C_R   0.800123 0.192530 0.548960 -0.076413
C93   C     C_R   0.302781 0.305388 0.554150 -0.104223
C94   C     C_R   0.699753 0.692042 0.449707 -0.081921
C95   C     C_R   0.697284 0.305098 0.442933 -0.107238
C96   C     C_R   0.289086 0.682324 0.531735 -0.089449
H17   H     H_    0.312459 0.105174 0.713085 0.216731
H18   H     H_    0.641059 0.926505 0.284666 0.196578
H19   H     H_    0.672522 0.091172 0.281121 0.196939
H20   H     H_    0.220239 0.782236 0.646691 0.183032
H21   H     H_    0.826089 0.588402 0.716163 0.197912
H22   H     H_    0.165068 0.410239 0.282683 0.207941
H23   H     H_    0.264168 0.701461 0.325230 0.212491
H24   H     H_    0.866424 0.431084 0.713163 0.197515
H25   H     H_    0.668584 0.899422 0.779323 0.169048
H26   H     H_    0.217408 0.186115 0.153118 0.193944
H27   H     H_    0.326368 0.894651 0.219020 0.182188
H28   H     H_    0.782299 0.185102 0.847151 0.192911
H29   H     H_    0.168955 0.399321 0.779251 0.175150
H30   H     H_    0.719629 0.683102 0.154923 0.199896
H31   H     H_    0.821783 0.392408 0.216647 0.183469
H32   H     H_    0.283301 0.687354 0.847487 0.176650
C97   C     C_R   0.816668 0.786720 0.169049 -0.099235
C98   C     C_R   0.177101 0.230949 0.837828 -0.082425
C99   C     C_R   0.185770 0.790373 0.833019 -0.115839
C100  C     C_R   0.818891 0.226534 0.159117 -0.086269
C101  C     C_R   0.315067 0.289033 0.167756 -0.117719
C102  C     C_R   0.677245 0.730980 0.837987 -0.093105
C103  C     C_R   0.684414 0.288087 0.832149 -0.100965
C104  C     C_R   0.320012 0.727775 0.159840 -0.067216
C105  C     C_R   0.799128 0.748426 0.196324 -0.156883
C106  C     C_R   0.169042 0.285340 0.792692 -0.136387
C107  C     C_R   0.204024 0.753312 0.806093 -0.193805
C108  C     C_R   0.823812 0.279092 0.202661 -0.192622
C109  C     C_R   0.296938 0.251632 0.194704 -0.191444
C110  C     C_R   0.669414 0.785418 0.793092 -0.160950
C111  C     C_R   0.702407 0.250282 0.805207 -0.155123
C112  C     C_R   0.326475 0.780980 0.204347 -0.173614
C113  C     C_R   0.235295 0.207632 0.133919 -0.144356
C114  C     C_R   0.683966 0.856698 0.821343 -0.186794
C115  C     C_R   0.764494 0.206853 0.866371 -0.157692
C116  C     C_R   0.312075 0.852684 0.177159 -0.231390
C117  C     C_R   0.736942 0.705234 0.135202 -0.146859
C118  C     C_R   0.183525 0.356672 0.820801 -0.183503
C119  C     C_R   0.265330 0.708773 0.866606 -0.161274
C120  C     C_R   0.808957 0.350880 0.175554 -0.210991
C121  C     C_R   0.192566 0.198033 0.046189 0.347094
C122  C     C_R   0.716513 0.872727 0.902150 0.380298
C123  C     C_R   0.807545 0.197963 0.954320 0.346361
C124  C     C_R   0.281071 0.870237 0.097700 0.380589
C125  C     C_R   0.693249 0.696987 0.046848 0.361403
C126  C     C_R   0.216166 0.372784 0.901689 0.379722
C127  C     C_R   0.307699 0.698498 0.954086 0.352249
C128  C     C_R   0.779593 0.369085 0.097348 0.379142
C129  C     C_R   0.219450 0.224178 0.024257 -0.016581
C130  C     C_R   0.736335 0.814606 0.955816 -0.009777
C131  C     C_R   0.780550 0.224042 0.976119 -0.015128
C132  C     C_R   0.262340 0.813226 0.043945 -0.008898
C133  C     C_R   0.719676 0.723677 0.024456 -0.019723
C134  C     C_R   0.236215 0.314711 0.955564 -0.011847
C135  C     C_R   0.280686 0.724440 0.975926 -0.014471
C136  C     C_R   0.761760 0.312543 0.043851 -0.009342
C137  C     C_R   0.777535 0.775433 0.082898 0.041987
C138  C     C_R   0.202138 0.247693 0.913663 0.016852
C139  C     C_R   0.223325 0.776799 0.917948 0.056235
C140  C     C_R   0.795823 0.245369 0.085137 0.033322
C141  C     C_R   0.276971 0.276309 0.082411 0.058165
C142  C     C_R   0.702167 0.747652 0.913749 0.027669
C143  C     C_R   0.722829 0.275920 0.917802 0.043607
C144  C     C_R   0.296310 0.746034 0.085269 0.020358
C145  C     C_R   0.190430 0.202521 0.945820 -0.113931
C146  C     C_R   0.789073 0.818732 0.049349 -0.120899
C147  C     C_R   0.809102 0.201817 0.054045 -0.116412
C148  C     C_R   0.210838 0.818749 0.950969 -0.131603
C149  C     C_R   0.690365 0.702434 0.945767 -0.112602
C150  C     C_R   0.288890 0.319001 0.049074 -0.126300
C151  C     C_R   0.309174 0.702084 0.053869 -0.118387
C152  C     C_R   0.710545 0.318287 0.950927 -0.129680
H33   H     H_    0.858378 0.827471 0.215224 0.195441
H34   H     H_    0.162248 0.176586 0.811720 0.183793
H35   H     H_    0.144881 0.832113 0.787852 0.167871
H36   H     H_    0.834343 0.171875 0.184795 0.155169
H37   H     H_    0.356172 0.330469 0.213208 0.169439
H38   H     H_    0.662249 0.676663 0.811696 0.158718
H39   H     H_    0.642811 0.329022 0.786088 0.193248
H40   H     H_    0.335112 0.673150 0.185481 0.181549
H41   H     H_    0.830153 0.757311 0.262812 0.196948
H42   H     H_    0.146946 0.272780 0.732483 0.185177
H43   H     H_    0.174318 0.764099 0.740607 0.160908
H44   H     H_    0.844072 0.264943 0.261272 0.163297
H45   H     H_    0.326982 0.261844 0.260454 0.168706
H46   H     H_    0.647157 0.772990 0.732747 0.163940
H47   H     H_    0.671826 0.259694 0.739029 0.196158
H48   H     H_    0.347616 0.767333 0.263699 0.180605
H49   H     H_    0.246014 0.897818 0.286698 0.169294
H50   H     H_    0.747712 0.022289 0.717044 0.183884
H51   H     H_    0.734222 0.372509 0.279502 0.169205
H52   H     H_    0.253865 0.547963 0.723724 0.174569
C153  C     C_R   0.867103 0.938284 0.918041 0.325327
C154  C     C_R   0.117773 0.909063 0.062897 0.309689
C155  C     C_R   0.363620 0.449264 0.912948 0.324214
C156  C     C_R   0.615285 0.404391 0.061184 0.306679
C157  C     C_R   0.800030 0.959435 0.829295 -0.147611
C158  C     C_R   0.184657 0.894661 0.154316 -0.152636
C159  C     C_R   0.299113 0.477558 0.827136 -0.136227
C160  C     C_R   0.679121 0.382860 0.151109 -0.160813
C161  C     C_R   0.799365 0.002544 0.784262 -0.177746
C162  C     C_R   0.194672 0.911525 0.216250 -0.227700
C163  C     C_R   0.303296 0.522849 0.788090 -0.153892
C164  C     C_R   0.686054 0.392802 0.211162 -0.184557
C165  C     C_R   0.864981 0.015719 0.823363 -0.051744
C166  C     C_R   0.135497 0.936070 0.186186 -0.055123
C167  C     C_R   0.370296 0.531010 0.828940 -0.061147
C168  C     C_R   0.627221 0.420010 0.180415 -0.066627
C169  C     C_R   0.932558 0.987261 0.909612 0.027124
C170  C     C_R   0.066797 0.952143 0.093505 0.073539
C171  C     C_R   0.434373 0.495261 0.911542 0.028355
C172  C     C_R   0.563149 0.445659 0.090736 0.048791
C173  C     C_R   0.933530 0.962336 0.961734 0.014094
C174  C     C_R   0.061466 0.947515 0.033398 0.006779
C175  C     C_R   0.432121 0.468610 0.959864 0.022221
C176  C     C_R   0.559830 0.444659 0.032299 0.020531
C177  C     C_R   0.998447 0.979277 0.945926 -0.132998
C178  C     C_R   0.000998 0.965921 0.055845 -0.125201
C179  C     C_R   0.499271 0.481401 0.947028 -0.123626
C180  C     C_R   0.498873 0.464921 0.053917 -0.149780
H53   H     H_    0.748727 0.942407 0.795192 0.160170
H54   H     H_    0.226977 0.864513 0.176877 0.164490
H55   H     H_    0.246175 0.464472 0.790886 0.164970
H56   H     H_    0.720727 0.351747 0.172854 0.164296
H57   H     H_    0.861033 0.048549 0.785188 0.238623
H58   H     H_    0.144891 0.935663 0.236848 0.195009
H59   H     H_    0.370624 0.565458 0.795343 0.177073
H60   H     H_    0.631655 0.414926 0.226498 0.194802
Br1   Br    Br    0.152704 0.072980 0.695124 -0.499214
Br2   Br    Br    0.847143 0.928638 0.305104 -0.535618
Br3   Br    Br    0.653099 0.428455 0.695005 -0.533499
Br4   Br    Br    0.347592 0.573807 0.305311 -0.524669
N1    N     N_R   0.117384 0.175485 0.977665 0.203280
O53   O     O_R   0.099053 0.137223 0.999802 -0.375957
O54   O     O_R   0.065466 0.207650 0.899499 -0.399651
N2    N     N_R   0.718122 0.946864 0.920869 0.222294
O55   O     O_R   0.718266 0.999384 0.887247 -0.383746
O56   O     O_R   0.713073 0.962336 0.965126 -0.392004
N3    N     N_R   0.882875 0.175873 0.022960 0.207905
O57   O     O_R   0.901418 0.137323 0.001246 -0.367910
O58   O     O_R   0.934563 0.208478 0.100754 -0.387117
N4    N     N_R   0.280874 0.944813 0.081285 0.224236
O59   O     O_R   0.279562 0.996475 0.114351 -0.372307
O60   O     O_R   0.288255 0.961470 0.039696 -0.391510
N5    N     N_R   0.618035 0.674637 0.978758 0.198061
O61   O     O_R   0.600135 0.636416 0.001443 -0.401697
O62   O     O_R   0.565767 0.706734 0.900542 -0.418360
N6    N     N_R   0.218044 0.446965 0.920561 0.223766
O63   O     O_R   0.218068 0.499391 0.886742 -0.381613
O64   O     O_R   0.213142 0.462585 0.964948 -0.396420
N7    N     N_R   0.382727 0.675367 0.022592 0.205537
O65   O     O_R   0.400885 0.636659 0.000483 -0.376684
O66   O     O_R   0.434763 0.707372 0.100772 -0.395135
N8    N     N_R   0.780286 0.443828 0.082229 0.225488
O67   O     O_R   0.778505 0.495162 0.115070 -0.371422
O68   O     O_R   0.788846 0.460918 0.041994 -0.383305
Br5   Br    Br    0.867097 0.862480 0.969071 -0.430328
Br6   Br    Br    0.098903 0.849852 0.984380 -0.409170
Br7   Br    Br    0.357293 0.370634 0.955112 -0.446562
Br8   Br    Br    0.597631 0.350366 0.981310 -0.411609
Br9   Br    Br    0.175073 0.083081 0.532908 -0.446775
Br10  Br    Br    0.719946 0.968957 0.455806 -0.444931
Br11  Br    Br    0.816320 0.073885 0.462115 -0.530824
Br12  Br    Br    0.209896 0.903263 0.565820 -0.488632
Br13  Br    Br    0.686031 0.565658 0.534804 -0.525860
Br14  Br    Br    0.263360 0.465749 0.455088 -0.413648
Br15  Br    Br    0.341438 0.607344 0.467003 -0.460746
Br16  Br    Br    0.784161 0.469318 0.538941 -0.436653
N9    N     N_R   0.932665 0.787738 0.756099 0.178023
O69   O     O_R   0.931714 0.837486 0.790884 -0.396148
O70   O     O_R   0.993929 0.773100 0.793500 -0.360327
N10   N     N_R   0.137827 0.169949 0.277436 0.200145
O71   O     O_R   0.072080 0.160535 0.192775 -0.335125
O72   O     O_R   0.190098 0.126166 0.315389 -0.364985
N11   N     N_R   0.083542 0.798167 0.242383 0.188002
O73   O     O_R   0.049755 0.830441 0.170456 -0.434523
O74   O     O_R   0.043889 0.766484 0.238173 -0.356191
N12   N     N_R   0.862898 0.185117 0.721549 0.189699
O75   O     O_R   0.924245 0.176314 0.808332 -0.361587
O76   O     O_R   0.806926 0.144252 0.676902 -0.398506
N13   N     N_R   0.429699 0.291390 0.755116 0.176147
O77   O     O_R   0.432562 0.341304 0.793524 -0.386046
O78   O     O_R   0.489081 0.273987 0.789250 -0.365491
N14   N     N_R   0.636523 0.680183 0.276553 0.198928
O79   O     O_R   0.573256 0.672147 0.190210 -0.329800
O80   O     O_R   0.690185 0.636794 0.317982 -0.341514
N15   N     N_R   0.555921 0.276180 0.244203 0.178007
O81   O     O_R   0.540355 0.323764 0.192968 -0.454271
O82   O     O_R   0.503803 0.253778 0.222713 -0.348262
N16   N     N_R   0.230454 0.578100 0.557582 0.241534
O83   O     O_R   0.242545 0.532959 0.607605 -0.397270
O84   O     O_R   0.196988 0.555155 0.482477 -0.307307

loop_
_geom_bond_atom_site_label_1
_geom_bond_atom_site_label_2
_geom_bond_distance
_ccdc_geom_bond_type
C84   C91   1.412771 A    
N4    O60   1.301846 A    
C98   C106  1.392198 A    
C33   C37   1.531188 S    
C134  C150  1.420597 A    
C47   C87   1.434909 A    
O26   C7    1.278045 A    
C65   N9    1.424637 S    
C15   C96   1.487094 S    
C136  C152  1.421275 A    
C13   C94   1.453415 S    
O30   C11   1.275507 A    
C155  Br7   1.917817 S    
C133  C137  1.422711 A    
Zn12  O26   1.943525 S    
C114  C122  1.404012 A    
C73   C85   1.432372 A    
C36   C40   1.531293 S    
C97   C137  1.415637 A    
C74   C90   1.427660 A    
C156  C160  1.395986 A    
C32   C40   1.537653 S    
C159  C163  1.392595 A    
C63   C71   1.390490 A    
C130  C146  1.420452 A    
C27   C34   1.542604 S    
Zn3   O15   1.932246 S    
C59   C67   1.392574 A    
C28   H4    1.110179 S    
C69   N13   1.423993 S    
C100  C108  1.392213 A    
C28   C38   1.540003 S    
O11   C7    1.292891 A    
H52   C163  1.080499 S    
C103  H39   1.075538 S    
O34   C15   1.275008 A    
C50   C62   1.385474 A    
H16   C63   1.083514 S    
C80   C84   1.399152 A    
Zn1   O44   1.944237 S    
C25   C33   1.543704 S    
C128  N8    1.440849 S    
Zn2   O43   1.944237 S    
C42   Br10  1.916486 S    
C169  C173  1.391920 A    
Zn5   O48   1.944237 S    
C69   C77   1.437939 A    
N2    O55   1.301807 A    
Zn6   O47   1.944237 S    
C171  C175  1.389569 A    
C116  C124  1.402624 A    
Zn7   O46   1.944918 S    
C34   C38   1.530449 S    
H27   C116  1.082431 S    
O16   C12   1.279210 A    
N11   O73   1.299495 A    
C62   C70   1.398231 A    
Zn16  O4    1.940607 S    
N10   O71   1.300680 A    
C104  C112  1.392162 A    
Zn1   O13   1.933330 S    
C76   C88   1.400188 A    
C71   N15   1.428693 S    
C20   C179  1.463302 S    
C26   C28   1.551029 S    
Zn4   O16   1.932247 S    
C75   C87   1.428838 A    
C88   C95   1.415424 A    
C49   C61   1.371323 A    
C77   C93   1.428728 A    
C7    C152  1.484116 S    
C46   C54   1.390855 A    
Zn6   O4    1.962472 S    
C142  C149  1.418498 A    
C131  C147  1.428970 A    
Zn16  O34   1.942867 S    
C18   C177  1.463902 S    
Zn10  O22   1.943525 S    
C169  C177  1.427106 A    
H9    C58   1.083361 S    
O25   C8    1.284410 A    
Zn13  O29   1.942869 S    
C99   H35   1.076620 S    
Zn10  O2    1.936837 S    
C35   Br3   1.934505 S    
C138  C145  1.418671 A    
O29   C12   1.282540 A    
C153  Br5   1.918737 S    
C25   C38   1.538182 S    
Zn15  O33   1.942869 S    
C2    C145  1.473530 S    
C45   C53   1.391233 A    
C26   C34   1.542713 S    
O37   C17   1.279246 A    
C48   C88   1.424926 A    
O48   C23   1.284290 A    
C66   N10   1.430395 S    
C118  C126  1.404762 A    
C77   C81   1.427358 A    
C157  C161  1.390299 A    
N3    O58   1.301631 A    
C9    C90   1.457718 S    
C79   C83   1.431436 A    
Zn16  O35   1.944626 S    
C51   H19   1.083375 S    
N16   O83   1.300803 A    
C105  C117  1.384886 A    
Zn7   O10   1.932466 S    
O33   C16   1.268855 A    
C134  C138  1.400664 A    
C156  C176  1.427902 A    
O40   C20   1.274540 A    
C102  C142  1.415286 A    
C165  C169  1.418201 A    
C23   C40   1.472249 S    
C173  C178  1.404397 A    
N5    O62   1.301756 A    
C168  H60   1.076479 S    
C127  N7    1.438993 S    
C55   C59   1.380559 A    
C176  C179  1.439100 A    
Zn6   O11   1.930820 S    
Zn5   O17   1.933330 S    
C140  C147  1.417072 A    
C129  C145  1.430802 A    
C98   H34   1.080841 S    
Zn15  O51   1.941487 S    
C25   C27   1.552034 S    
C103  C111  1.389318 A    
N5    O61   1.301132 A    
C50   H18   1.083093 S    
C101  C109  1.388653 A    
C26   C37   1.537639 S    
H30   C117  1.082658 S    
Zn8   O3    1.961126 S    
C125  N5    1.440423 S    
C172  C176  1.416799 A    
C47   Br15  1.909530 S    
O38   C18   1.278682 A    
N8    O67   1.301796 A    
C74   C86   1.415420 A    
C71   C79   1.433902 A    
C81   C90   1.431821 A    
O5    C1    1.292230 A    
C132  C148  1.419888 A    
C67   C75   1.426915 A    
O32   C9    1.274949 A    
C41   C81   1.442492 A    
C130  C142  1.400625 A    
C29   H5    1.110158 S    
C31   H7    1.110202 S    
C111  H47   1.082686 S    
Zn11  O28   1.944480 S    
C153  C173  1.414205 A    
N12   O76   1.301174 A    
C43   Br11  1.927332 S    
C52   C64   1.387367 A    
C155  C175  1.410238 A    
C100  H36   1.081222 S    
C49   H17   1.083777 S    
N11   O74   1.301637 A    
C51   C63   1.378332 A    
C79   C95   1.429062 A    
C6    C149  1.472216 S    
O8    C4    1.279939 A    
C70   N14   1.433372 S    
C170  C174  1.412493 A    
C11   C92   1.457512 S    
C70   C78   1.429659 A    
C12   C91   1.461303 S    
N6    O63   1.301800 A    
C99   C139  1.415801 A    
O50   C18   1.267415 A    
Zn1   O1    1.962471 S    
C126  C134  1.427610 A    
C123  N3    1.439125 S    
Zn2   O14   1.933329 S    
C60   C68   1.398503 A    
C30   C39   1.540074 S    
C105  H41   1.082769 S    
C36   Br4   1.936450 S    
N4    O59   1.301789 A    
O9    C5    1.293254 A    
O39   C19   1.273404 A    
O36   C13   1.271609 A    
H26   C113  1.082698 S    
C101  H37   1.076423 S    
C78   C94   1.418836 A    
C47   C55   1.396027 A    
O13   C9    1.285982 A    
H15   C64   1.080630 S    
C122  C130  1.427513 A    
Zn1   O8    1.930822 S    
C110  H46   1.082539 S    
Zn2   O7    1.930820 S    
H13   C62   1.082945 S    
Zn3   O6    1.932466 S    
O18   C14   1.282220 A    
O31   C10   1.271267 A    
O6    C2    1.279924 A    
O51   C19   1.271683 A    
C117  C125  1.402003 A    
C30   H6    1.110215 S    
C144  C151  1.417803 A    
C97   C105  1.388813 A    
C170  C178  1.421595 A    
H10   C57   1.083924 S    
H32   C119  1.082945 S    
C133  C149  1.429740 A    
Zn14  O30   1.942867 S    
C165  H57   1.070250 S    
Zn15  O3    1.940606 S    
N13   O78   1.300636 A    
Zn11  O3    1.936837 S    
N9    O69   1.300288 A    
O41   C21   1.285024 A    
C19   C180  1.465032 S    
C168  C172  1.417259 A    
C54   H22   1.083367 S    
C43   C51   1.391795 A    
C44   C52   1.395518 A    
C31   C39   1.538139 S    
C120  C128  1.402701 A    
N2    O56   1.301809 A    
Zn8   O20   1.932247 S    
C98   C138  1.415245 A    
C78   C82   1.403812 A    
C113  C121  1.402330 A    
C48   Br16  1.917335 S    
N10   O72   1.301709 A    
C10   C89   1.465326 S    
H28   C115  1.082828 S    
C53   H21   1.083644 S    
C80   C96   1.426748 A    
C126  N6    1.440703 S    
C124  N4    1.440765 S    
C31   C36   1.543582 S    
C28   C33   1.542686 S    
H11   C60   1.082849 S    
H12   C59   1.082561 S    
C3    C148  1.484400 S    
C44   Br12  1.909472 S    
C104  C144  1.415204 A    
C123  C131  1.430728 A    
C157  H53   1.079730 S    
C161  C165  1.396085 A    
C159  H55   1.081659 S    
C166  C170  1.422022 A    
C86   C93   1.421369 A    
C163  C167  1.400125 A    
C56   H24   1.083073 S    
O7    C3    1.293330 A    
C164  C168  1.385662 A    
C174  C177  1.430515 A    
C99   C107  1.388850 A    
C54   C58   1.376614 A    
O19   C15   1.300066 A    
C41   Br9   1.916865 S    
C32   C35   1.542706 S    
C153  C157  1.394497 A    
Zn6   O18   1.933329 S    
Zn10  O23   1.944478 S    
C16   C95   1.458614 S    
C155  C159  1.394040 A    
N7    O65   1.301256 A    
C100  C140  1.415345 A    
C129  C141  1.422860 A    
C52   H20   1.082994 S    
N15   O82   1.300448 A    
Zn15  O36   1.944626 S    
C29   C40   1.539692 S    
O15   C11   1.284749 A    
O42   C22   1.284755 A    
C27   H3    1.110162 S    
Zn4   O1    1.961126 S    
C32   H8    1.110114 S    
C30   C32   1.551088 S    
C156  Br8   1.911922 S    
H49   C162  1.083064 S    
C172  C180  1.411474 A    
Zn9   O37   1.943463 S    
Zn8   O9    1.932469 S    
O12   C8    1.280886 A    
Zn11  O39   1.943463 S    
C53   C57   1.376272 A    
C21   C38   1.472217 S    
C82   C89   1.415534 A    
C66   C74   1.436048 A    
C132  C144  1.399905 A    
C135  C139  1.422498 A    
C141  C150  1.421804 A    
C56   C60   1.386767 A    
C167  H59   1.079075 S    
C42   C82   1.424506 A    
N16   O84   1.300645 A    
C175  C180  1.401364 A    
Zn5   O3    1.962471 S    
Zn13  O1    1.940606 S    
C48   C56   1.395305 A    
C107  H43   1.082986 S    
C108  H44   1.082556 S    
C125  C133  1.431235 A    
C58   C66   1.392134 A    
C102  H38   1.080985 S    
C154  C174  1.424769 A    
C104  H40   1.080975 S    
N1    O53   1.301122 A    
C72   N16   1.438316 S    
C46   C86   1.436055 A    
C14   C93   1.453330 S    
C154  Br6   1.914256 S    
N14   O80   1.301768 A    
C137  C146  1.423464 A    
Zn9   O24   1.944480 S    
O28   C5    1.277218 A    
C24   C39   1.472542 S    
C109  C113  1.385473 A    
N1    O54   1.301661 A    
N3    O57   1.301270 A    
Zn3   O42   1.944918 S    
C1    C146  1.486899 S    
Zn7   O4    1.961124 S    
O21   C4    1.284232 A    
C121  C129  1.430611 A    
C139  C148  1.421915 A    
C64   C72   1.399705 A    
C119  C127  1.402332 A    
C8    C151  1.471439 S    
C65   C73   1.432833 A    
C73   C89   1.431137 A    
C34   Br2   1.934860 S    
C108  C120  1.390645 A    
C111  C115  1.384890 A    
C68   C76   1.424606 A    
Zn2   O2    1.962472 S    
Zn14  O2    1.940607 S    
C35   C39   1.530549 S    
N15   O81   1.300462 A    
C135  C151  1.431095 A    
C57   C65   1.389767 A    
Zn13  O49   1.941487 S    
O44   C21   1.282739 A    
N14   O79   1.300994 A    
C106  H42   1.082566 S    
C4    C147  1.469315 S    
C45   C85   1.441355 A    
O20   C16   1.292033 A    
Zn12  O27   1.944478 S    
C68   N12   1.430447 S    
C124  C132  1.427467 A    
N8    O68   1.301856 A    
C22   C37   1.472537 S    
C103  C143  1.416055 A    
C101  C141  1.415575 A    
Zn3   O2    1.961124 S    
H14   C61   1.083820 S    
C25   H1    1.110251 S    
C112  C116  1.390764 A    
O46   C24   1.282912 A    
O47   C24   1.285004 A    
C67   N11   1.439895 S    
C106  C118  1.390615 A    
Zn16  O52   1.941489 S    
C171  C179  1.425225 A    
Zn8   O45   1.944918 S    
C61   C69   1.386721 A    
O27   C6    1.284912 A    
C166  H58   1.073089 S    
C97   H33   1.075487 S    
N9    O70   1.300567 A    
C75   C91   1.424824 A    
C76   C92   1.417483 A    
Zn12  O4    1.936837 S    
C102  C110  1.392194 A    
C55   H23   1.083747 S    
C42   C50   1.393900 A    
H31   C120  1.082502 S    
C29   C31   1.552116 S    
H29   C118  1.081993 S    
O24   C1    1.278467 A    
C160  H56   1.079204 S    
N6    O64   1.301805 A    
C46   Br14  1.915534 S    
C110  C114  1.390382 A    
C136  C140  1.399906 A    
O43   C22   1.283130 A    
Zn4   O41   1.944918 S    
C131  C143  1.421259 A    
Zn5   O12   1.930822 S    
C17   C178  1.464714 S    
Zn9   O21   1.943524 S    
Zn14  O50   1.941489 S    
C29   C35   1.542610 S    
N7    O66   1.301605 A    
O35   C14   1.276827 A    
Zn12  O40   1.943461 S    
Zn9   O1    1.936837 S    
C158  H54   1.077778 S    
C122  N2    1.440730 S    
C162  C166  1.387495 A    
O52   C20   1.271763 A    
C167  C171  1.419717 A    
C87   C96   1.434852 A    
C85   C94   1.429732 A    
C5    C150  1.486696 S    
C41   C49   1.389624 A    
O22   C3    1.277539 A    
C26   H2    1.109894 S    
C143  C152  1.423476 A    
C154  C158  1.393287 A    
Zn7   O19   1.932246 S    
C160  C164  1.382138 A    
C112  H48   1.082617 S    
C115  C123  1.401441 A    
Zn13  O32   1.944626 S    
O49   C17   1.264548 A    
Zn14  O31   1.944626 S    
C127  C135  1.431283 A    
N13   O77   1.299871 A    
C107  C119  1.385394 A    
Zn4   O5    1.932469 S    
H51   C164  1.082919 S    
C27   C37   1.539999 S    
C30   C36   1.542638 S    
O10   C6    1.279508 A    
O23   C2    1.285145 A    
Zn11  O25   1.943524 S    
H50   C161  1.082568 S    
N12   O75   1.300950 A    
Zn10  O38   1.943461 S    
C128  C136  1.427761 A    
H25   C114  1.081098 S    
O14   C10   1.293222 A    
C33   Br1   1.936324 S    
C72   C80   1.425602 A    
C43   C83   1.437758 A    
C158  C162  1.381221 A    
C44   C84   1.423471 A    
C45   Br13  1.930758 S    
C109  H45   1.082924 S    
O17   C13   1.287208 A    
O45   C23   1.283458 A    
C83   C92   1.431207 A    
C121  N1    1.439408 S    
