data_mof_unit_33663.cif
_audit_creation_date              2013-03-05T16:12:26-0500
_audit_creation_method            fapswitch 2.2
_symmetry_space_group_name_H-M    P1
_symmetry_Int_Tables_number       1
_space_group_crystal_system       triclinic
_cell_length_a                    10.625646
_cell_length_b                    9.831702
_cell_length_c                    23.449529
_cell_angle_alpha                 90.003522
_cell_angle_beta                  89.793746
_cell_angle_gamma                 89.979668
_cell_volume                      2449.71370279

loop_
_atom_site_label
_atom_site_type_symbol
_atom_site_description
_atom_site_fract_x
_atom_site_fract_y
_atom_site_fract_z
_atom_type_partial_charge
O1    O     O_R   0.316770 0.614620 0.500000 -0.618546
O2    O     O_R   0.683230 0.385380 0.500000 -0.620355
O3    O     O_R   0.683230 0.614620 0.500000 -0.618065
O4    O     O_R   0.316770 0.385380 0.500000 -0.620113
C1    C     C_R   0.260523 0.500035 0.500413 0.907678
C2    C     C_R   0.739477 0.499967 0.499581 0.908162
O5    O     O_R   0.499970 0.614690 0.416160 -0.636848
O6    O     O_R   0.500030 0.385310 0.583840 -0.560138
O7    O     O_R   0.500030 0.614690 0.583840 -0.633449
O8    O     O_R   0.499970 0.385310 0.416160 -0.556204
C3    C     C_R   0.498990 0.499976 0.389213 0.934515
C4    C     C_R   0.501010 0.499983 0.610788 0.933514
Zn1   Zn    Zn3+2 0.500000 0.653120 0.500000 0.953710
Zn2   Zn    Zn3+2 0.500000 0.346880 0.500000 1.008538
C5    C     C_R   0.614296 0.508770 0.880845 0.569716
C6    C     C_R   0.385214 0.507507 0.119163 0.569505
N1    N     N_R   0.502132 0.508167 0.852567 -0.321380
N2    N     N_R   0.497377 0.508490 0.147440 -0.321447
C7    C     C_R   0.389068 0.507251 0.880483 0.569569
C8    C     C_R   0.610441 0.509091 0.119523 0.569936
C9    C     C_R   0.385630 0.507639 0.939993 -0.031047
C10   C     C_R   0.613873 0.509380 0.060013 -0.031038
C11   C     C_R   0.500236 0.508612 0.970057 -0.013692
C12   C     C_R   0.499265 0.508696 0.029950 -0.013676
C13   C     C_R   0.615812 0.509202 0.940369 -0.030821
C14   C     C_R   0.383691 0.507789 0.059639 -0.030776
C15   C     C_R   0.271023 0.506940 0.969946 -0.140810
C16   C     C_R   0.728479 0.510155 0.030061 -0.140632
C17   C     C_R   0.270061 0.507011 0.029304 -0.141120
C18   C     C_R   0.729442 0.510062 0.970704 -0.141065
O9    O     O_2   0.723525 0.509047 0.851274 -0.537202
O10   O     O_2   0.275993 0.506335 0.148735 -0.537191
O11   O     O_2   0.280782 0.506071 0.850560 -0.536268
O12   O     O_2   0.718734 0.509481 0.149444 -0.535952
H1    H     H_    0.181889 0.506247 0.947672 0.194428
H2    H     H_    0.817615 0.510738 0.052334 0.194383
H3    H     H_    0.180214 0.506367 0.051277 0.194165
H4    H     H_    0.819290 0.510580 0.948730 0.194083
C19   C     C_R   0.497608 0.382578 0.236489 0.590054
C20   C     C_R   0.503771 0.382398 0.763474 0.590466
C21   C     C_R   0.498189 0.378716 0.295631 0.518991
C22   C     C_R   0.503377 0.378625 0.704330 0.517742
C23   C     C_R   0.497770 0.500927 0.326859 -0.318268
C24   C     C_R   0.502106 0.500883 0.673144 -0.318245
C25   C     C_R   0.496111 0.626152 0.298002 -0.281558
C26   C     C_R   0.501908 0.626071 0.702045 -0.280785
H5    H     H_    0.495437 0.720829 0.321660 0.211682
H6    H     H_    0.501224 0.720787 0.678420 0.212126
C27   C     C_R   0.495539 0.630427 0.238595 0.128777
C28   C     C_R   0.502306 0.630255 0.761454 0.128165
C29   C     C_R   0.496524 0.507474 0.208085 0.092133
C30   C     C_R   0.503013 0.507248 0.791922 0.092176
C31   C     C_R   0.064118 0.483753 0.552877 0.132246
C32   C     C_R   0.935881 0.516285 0.447118 0.135581
C33   C     C_R   0.932933 0.483587 0.552227 0.123200
C34   C     C_R   0.067066 0.516528 0.447772 0.127198
C35   C     C_R   0.871991 0.499865 0.499458 -0.107151
C36   C     C_R   0.128008 0.500155 0.500537 -0.107262
C37   C     C_R   0.573489 0.071968 0.537341 -0.012015
C38   C     C_R   0.426528 0.928029 0.462651 -0.057649
C39   C     C_R   0.426518 0.071999 0.462657 -0.010426
C40   C     C_R   0.573469 0.927999 0.537349 -0.056547
H7    H     H_    0.632247 0.126592 0.567161 0.158927
H8    H     H_    0.367803 0.873402 0.432817 0.135398
H9    H     H_    0.367770 0.126642 0.432830 0.160939
H10   H     H_    0.632189 0.873353 0.567187 0.138339
N3    N     N_R   0.500000 0.857200 0.500000 -0.089200
N4    N     N_R   0.500000 0.142800 0.500000 -0.094257
F1    F     F_    0.498482 0.264613 0.206399 -0.607600
F2    F     F_    0.504561 0.264381 0.793522 -0.607885
F3    F     F_    0.499435 0.255634 0.321906 -0.619315
F4    F     F_    0.504089 0.255582 0.678013 -0.621236
C41   C     C_3   0.494178 0.765071 0.208033 -0.723238
H11   H     H_    0.579113 0.774234 0.180598 0.246410
H12   H     H_    0.408836 0.772482 0.181041 0.245199
H13   H     H_    0.493527 0.851854 0.238369 0.255521
C42   C     C_3   0.501717 0.764855 0.792067 -0.722947
H14   H     H_    0.416599 0.772662 0.819464 0.245944
H15   H     H_    0.586881 0.773543 0.819107 0.245552
H16   H     H_    0.501239 0.851697 0.761764 0.255600
C43   C     C_3   0.134355 0.467604 0.608909 -0.808612
H17   H     H_    0.237923 0.469817 0.604664 0.223427
H18   H     H_    0.108722 0.551860 0.638276 0.246949
H19   H     H_    0.109913 0.368408 0.628697 0.255223
C44   C     C_3   0.865642 0.532397 0.391085 -0.813057
H20   H     H_    0.762078 0.529893 0.395317 0.222613
H21   H     H_    0.889891 0.631699 0.371340 0.248516
H22   H     H_    0.891466 0.448273 0.361685 0.253563
C45   C     C_3   0.855231 0.467519 0.606639 -0.836489
H23   H     H_    0.795388 0.375270 0.603458 0.245417
H24   H     H_    0.910952 0.457018 0.646102 0.258994
H25   H     H_    0.793669 0.557844 0.612383 0.227806
C46   C     C_3   0.144767 0.532777 0.393368 -0.841383
H26   H     H_    0.204627 0.625001 0.396607 0.236233
H27   H     H_    0.206310 0.442460 0.387565 0.235202
H28   H     H_    0.089043 0.543468 0.353915 0.258751

loop_
_geom_bond_atom_site_label_1
_geom_bond_atom_site_label_2
_geom_bond_distance
_ccdc_geom_bond_type
C19   C29   1.397042 A    
C46   H26   1.110503 S    
C15   C17   1.391906 A    
C41   H12   1.110110 S    
C41   H11   1.110125 S    
O3    C2    1.275703 A    
C43   H17   1.104832 S    
C19   C21   1.387424 A    
C44   H20   1.104828 S    
O5    C3    1.292819 A    
C20   F2    1.357578 S    
C1    C36   1.408045 S    
O1    C1    1.275491 A    
C7    C9    1.395833 A    
C12   C14   1.409505 A    
C5    C13   1.395965 A    
C18   H4    1.083252 S    
C31   C43   1.521697 S    
C25   H5    1.083592 S    
O7    Zn1   2.002010 S    
C38   N3    1.366041 A    
C27   C29   1.404670 A    
C28   C30   1.404704 A    
C11   C12   1.404457 A    
C3    C23   1.462311 S    
C45   H24   1.105193 S    
O3    Zn1   1.983259 S    
C42   H14   1.110144 S    
C21   F3    1.358041 S    
C8    O12   1.349891 S    
C42   H15   1.110140 S    
C9    C15   1.403642 A    
C46   H27   1.110664 S    
C10   C16   1.403637 A    
C21   C23   1.407056 A    
C2    C35   1.408045 S    
O2    C2    1.275512 A    
C22   C24   1.407107 A    
N1    C30   1.422138 S    
C43   H18   1.110419 S    
C24   C26   1.405015 A    
N2    C29   1.422133 S    
C26   H6    1.083617 S    
C31   C33   1.394062 A    
C6    C14   1.395983 A    
C34   C46   1.525527 S    
C32   C34   1.394068 A    
C40   H10   1.081892 S    
C44   H21   1.110547 S    
O8    Zn2   2.002012 S    
C15   H1    1.083253 S    
C20   C30   1.397015 A    
C38   C39   1.415467 A    
C37   N4    1.366041 A    
C25   C27   1.393738 A    
O6    C4    1.292477 A    
C22   F4    1.358010 S    
C19   F1    1.357547 S    
C45   H25   1.110679 S    
C23   C25   1.405045 A    
C40   N3    1.366091 A    
C6    N2    1.365960 A    
C8    C10   1.395820 A    
C46   H28   1.105211 S    
C33   C35   1.407778 A    
C7    O11   1.349889 S    
C41   H13   1.110836 S    
C10   C12   1.409338 A    
O1    Zn1   1.983523 S    
C28   C42   1.505466 S    
C43   H19   1.110537 S    
Zn1   N3    2.006454 S    
C44   H22   1.110431 S    
C13   C18   1.403577 A    
C5    N1    1.365959 A    
C37   C40   1.415465 A    
O6    Zn2   2.001964 S    
O4    C1    1.275726 A    
C32   C44   1.521696 S    
C31   C36   1.409754 A    
C5    O9    1.349854 S    
C6    O10   1.349848 S    
C26   C28   1.393751 A    
C37   H7    1.081910 S    
C38   H8    1.081933 S    
C9    C11   1.409340 A    
C16   C18   1.391895 A    
C33   C45   1.525519 S    
C42   H16   1.110879 S    
C39   N4    1.366099 A    
C27   C41   1.505457 S    
C20   C22   1.387416 A    
N1    C7    1.366105 A    
C34   C36   1.407791 A    
N2    C8    1.366105 A    
C11   C13   1.409501 A    
O4    Zn2   1.983260 S    
O2    Zn2   1.983522 S    
O7    C4    1.292824 A    
O8    C3    1.292464 A    
C39   H9    1.081870 S    
O5    Zn1   2.001967 S    
C16   H2    1.083254 S    
C14   C17   1.403579 A    
C4    C24   1.462338 S    
C17   H3    1.083253 S    
Zn2   N4    2.006454 S    
C45   H23   1.110506 S    
C32   C35   1.409756 A    
