data_mof_unit_63997.cif
_audit_creation_date              2013-03-05T16:00:21-0500
_audit_creation_method            fapswitch 2.2
_symmetry_space_group_name_H-M    P1
_symmetry_Int_Tables_number       1
_space_group_crystal_system       triclinic
_cell_length_a                    42.62748
_cell_length_b                    29.425005
_cell_length_c                    29.41976
_cell_angle_alpha                 90.0
_cell_angle_beta                  133.88861
_cell_angle_gamma                 90.000031
_cell_volume                      26594.5831771

loop_
_atom_site_label
_atom_site_type_symbol
_atom_site_description
_atom_site_fract_x
_atom_site_fract_y
_atom_site_fract_z
_atom_type_partial_charge
O1    O     O_R   0.500410 0.561970 0.536310 -0.561496
O2    O     O_R   0.500410 0.438030 0.536310 -0.561479
O3    O     O_R   0.000410 0.061970 0.536310 -0.561477
O4    O     O_R   0.000410 0.938030 0.536310 -0.561499
O5    O     O_R   0.499540 0.561910 0.463710 -0.561433
O6    O     O_R   0.499540 0.438090 0.463710 -0.561445
O7    O     O_R   0.999540 0.061910 0.463710 -0.561446
O8    O     O_R   0.999540 0.938090 0.463710 -0.561431
C1    C     C_R   0.499988 0.585484 0.500007 0.825380
C2    C     C_R   0.499988 0.414516 0.500006 0.825413
C3    C     C_R   0.999988 0.085484 0.500006 0.825417
C4    C     C_R   0.999988 0.914516 0.500007 0.825377
O9    O     O_R   0.439190 0.500000 0.475090 -0.576392
O10   O     O_R   0.939190 0.000000 0.475090 -0.576393
O11   O     O_R   0.438320 0.500000 0.402480 -0.577253
O12   O     O_R   0.938320 0.000000 0.402480 -0.577253
C5    C     C_R   0.418265 0.500004 0.418469 0.866380
C6    C     C_R   0.918265 0.999995 0.418469 0.866381
Cu1   Cu    Cu3+1 0.500480 0.500000 0.542990 0.961839
Cu2   Cu    Cu3+1 0.000480 0.000000 0.542990 0.961838
Cu3   Cu    Cu3+1 0.499450 0.500000 0.457010 0.961170
Cu4   Cu    Cu3+1 0.999450 0.000000 0.457010 0.961170
O13   O     O_R   0.561610 0.500000 0.597520 -0.557114
O14   O     O_R   0.061610 1.000000 0.597520 -0.557114
O15   O     O_R   0.560740 0.500000 0.524910 -0.557146
O16   O     O_R   0.060740 1.000000 0.524910 -0.557146
C7    C     C_R   0.584598 0.500000 0.584474 0.810620
C8    C     C_R   0.084598 0.000000 0.584474 0.810620
C9    C     C_3   0.232542 0.535711 0.258376 -0.199542
C10   C     C_3   0.232533 0.460790 0.252207 -0.199645
C11   C     C_3   0.732532 0.039455 0.251669 -0.199651
C12   C     C_3   0.732543 0.964624 0.258861 -0.199532
C13   C     C_3   0.261238 0.539259 0.243921 -0.198828
C14   C     C_3   0.261226 0.464347 0.237750 -0.198906
C15   C     C_3   0.761225 0.035308 0.237265 -0.198915
C16   C     C_3   0.761239 0.960487 0.244459 -0.198823
H1    H     H_    0.274056 0.570968 0.241330 0.145001
H2    H     H_    0.274034 0.435585 0.230176 0.145180
H3    H     H_    0.774032 0.063789 0.229299 0.145196
H4    H     H_    0.774058 0.928570 0.242302 0.144987
H5    H     H_    0.219725 0.564469 0.265940 0.145554
H6    H     H_    0.219709 0.429083 0.254792 0.145716
H7    H     H_    0.719708 0.071369 0.253819 0.145728
H8    H     H_    0.719726 0.936147 0.266816 0.145539
C17   C     C_1   0.373277 0.500025 0.373883 -0.187826
C18   C     C_1   0.873277 0.999970 0.373883 -0.187826
C19   C     C_1   0.120495 0.499999 0.121035 -0.187450
C20   C     C_1   0.620495 0.000002 0.121034 -0.187451
C21   C     C_3   0.261171 0.496537 0.304842 0.222151
C22   C     C_3   0.761171 0.004037 0.304790 0.222156
C23   C     C_3   0.289085 0.500043 0.290178 0.144378
C24   C     C_3   0.789085 0.999950 0.290178 0.144379
C25   C     C_3   0.204691 0.500010 0.205952 0.144391
C26   C     C_3   0.704691 0.999988 0.205952 0.144390
C27   C     C_3   0.232622 0.503516 0.191314 0.224739
C28   C     C_3   0.732621 0.995901 0.191365 0.224732
C29   C     C_1   0.335054 0.500041 0.335938 -0.054832
C30   C     C_1   0.835054 0.999951 0.335938 -0.054831
C31   C     C_1   0.158719 0.500000 0.159722 -0.054281
C32   C     C_1   0.658719 0.000001 0.159722 -0.054282
C33   C     C_1   0.499976 0.636531 0.499966 -0.205012
C34   C     C_1   0.499976 0.363469 0.499966 -0.205001
C35   C     C_1   0.999976 0.136531 0.499966 -0.205000
C36   C     C_1   0.999977 0.863469 0.499967 -0.205013
C37   C     C_1   0.499968 0.678852 0.499953 0.003695
C38   C     C_1   0.499968 0.321148 0.499953 0.003712
C39   C     C_1   0.999968 0.178852 0.499953 0.003713
C40   C     C_1   0.999968 0.821148 0.499953 0.003693
C41   C     C_1   0.499961 0.729017 0.499951 0.005199
C42   C     C_1   0.499961 0.270983 0.499951 0.005209
C43   C     C_1   0.999961 0.229017 0.499950 0.005211
C44   C     C_1   0.999961 0.770983 0.499951 0.005198
C45   C     C_1   0.499957 0.771338 0.499955 0.005029
C46   C     C_1   0.499956 0.228662 0.499954 0.005033
C47   C     C_1   0.999956 0.271338 0.499954 0.005034
C48   C     C_1   0.999957 0.728662 0.499955 0.005028
C49   C     C_1   0.499954 0.821503 0.499962 0.004209
C50   C     C_1   0.499954 0.178497 0.499962 0.004210
C51   C     C_1   0.999954 0.321503 0.499962 0.004211
C52   C     C_1   0.999954 0.678497 0.499962 0.004209
C53   C     C_1   0.499953 0.863825 0.499971 -0.198009
C54   C     C_1   0.499953 0.136175 0.499971 -0.198010
C55   C     C_1   0.999953 0.363825 0.499971 -0.198009
C56   C     C_1   0.999953 0.636175 0.499971 -0.198009
C57   C     C_1   0.635087 0.500000 0.634714 -0.203005
C58   C     C_1   0.135087 0.000000 0.634714 -0.203005
C59   C     C_1   0.676567 0.500000 0.676180 0.014212
C60   C     C_1   0.176567 1.000000 0.676180 0.014212
C61   C     C_1   0.726139 0.500000 0.725825 0.002620
C62   C     C_1   0.226139 1.000000 0.725825 0.002620
C63   C     C_1   0.767621 0.500000 0.767395 0.002627
C64   C     C_1   0.267621 1.000000 0.767395 0.002627
C65   C     C_1   0.817192 0.500000 0.817083 0.014233
C66   C     C_1   0.317192 1.000000 0.817083 0.014233
C67   C     C_1   0.858674 0.500000 0.858659 -0.203272
C68   C     C_1   0.358674 1.000000 0.858659 -0.203272
O17   O     O_R   0.994560 0.535840 0.056620 -0.561550
O18   O     O_R   0.994560 0.464160 0.056620 -0.561534
O19   O     O_R   0.494560 0.035840 0.056620 -0.561532
O20   O     O_R   0.494560 0.964160 0.056620 -0.561551
C69   C     C_R   0.994840 0.500000 0.080445 0.825929
C70   C     C_R   0.494840 0.000000 0.080445 0.825929
O21   O     O_R   0.055010 0.535850 0.055100 -0.577179
O22   O     O_R   0.055010 0.464150 0.055100 -0.577287
O23   O     O_R   0.555010 0.035850 0.055100 -0.577295
O24   O     O_R   0.555010 0.964150 0.055100 -0.577170
C71   C     C_R   0.075506 0.500000 0.075500 0.866174
C72   C     C_R   0.575506 0.000000 0.075500 0.866174
Cu5   Cu    Cu3+1 0.993800 0.542460 0.993900 0.961462
Cu6   Cu    Cu3+1 0.993800 0.457540 0.993900 0.961410
Cu7   Cu    Cu3+1 0.493800 0.042460 0.993900 0.961406
Cu8   Cu    Cu3+1 0.493800 0.957540 0.993900 0.961467
O25   O     O_R   0.993040 0.535870 0.931160 -0.561442
O26   O     O_R   0.993040 0.464130 0.931160 -0.561465
O27   O     O_R   0.493040 0.035870 0.931160 -0.561467
O28   O     O_R   0.493040 0.964130 0.931160 -0.561440
O29   O     O_R   0.932590 0.535860 0.932690 -0.556965
O30   O     O_R   0.932590 0.464140 0.932690 -0.556966
O31   O     O_R   0.432590 0.035860 0.932690 -0.556965
O32   O     O_R   0.432590 0.964140 0.932690 -0.556966
C73   C     C_R   0.993229 0.500000 0.907795 0.825206
C74   C     C_R   0.493229 1.000000 0.907795 0.825206
C75   C     C_R   0.909164 0.500000 0.909249 0.811240
C76   C     C_R   0.409164 1.000000 0.909249 0.811240
O33   O     O_R   0.463790 1.000000 0.401850 -0.558264
O34   O     O_R   0.963790 0.500000 0.401850 -0.558264
O35   O     O_R   0.534640 0.000000 0.472710 -0.558547
O36   O     O_R   0.034640 0.500000 0.472710 -0.558547
C77   C     C_R   0.499093 0.000000 0.414038 0.815800
C78   C     C_R   0.999093 0.500000 0.414038 0.815800
O37   O     O_R   0.464530 0.938000 0.464560 -0.558524
O38   O     O_R   0.464530 0.062000 0.464560 -0.558523
O39   O     O_R   0.964530 0.438000 0.464560 -0.558522
O40   O     O_R   0.964530 0.562000 0.464560 -0.558525
O41   O     O_R   0.535390 0.937990 0.535420 -0.558317
O42   O     O_R   0.535390 0.062010 0.535420 -0.558320
O43   O     O_R   0.035390 0.437990 0.535420 -0.558320
O44   O     O_R   0.035390 0.562010 0.535420 -0.558317
C79   C     C_R   0.499957 0.914872 0.499985 0.815588
C80   C     C_R   0.499957 0.085128 0.499985 0.815587
C81   C     C_R   0.999957 0.414872 0.499985 0.815586
C82   C     C_R   0.999957 0.585128 0.499985 0.815589
Cu9   Cu    Cu3+1 0.458020 1.000000 0.458050 0.963111
Cu10  Cu    Cu3+1 0.958020 0.500000 0.458050 0.963111
Cu11  Cu    Cu3+1 0.541920 0.000000 0.541950 0.963161
Cu12  Cu    Cu3+1 0.041920 0.500000 0.541950 0.963162
O45   O     O_R   0.465290 0.000000 0.527290 -0.558377
O46   O     O_R   0.965290 0.500000 0.527290 -0.558377
O47   O     O_R   0.536150 1.000000 0.598150 -0.558180
O48   O     O_R   0.036150 0.500000 0.598150 -0.558180
C83   C     C_R   0.500752 1.000000 0.585890 0.815431
C84   C     C_R   0.000752 0.500000 0.585890 0.815431
C85   C     C_1   0.995592 0.500000 0.132234 -0.205028
C86   C     C_1   0.495592 0.000000 0.132234 -0.205029
C87   C     C_1   0.996228 0.500000 0.175187 0.003609
C88   C     C_1   0.496228 0.000000 0.175187 0.003609
C89   C     C_1   0.996978 0.500000 0.226092 0.005235
C90   C     C_1   0.496978 0.000000 0.226092 0.005235
C91   C     C_1   0.497592 0.000000 0.269023 0.005056
C92   C     C_1   0.997592 0.500000 0.269023 0.005056
C93   C     C_1   0.498270 0.000000 0.319856 0.004120
C94   C     C_1   0.998270 0.500000 0.319856 0.004120
C95   C     C_1   0.498747 1.000000 0.362652 -0.198151
C96   C     C_1   0.998747 0.500000 0.362652 -0.198151
C97   C     C_1   0.994236 0.500000 0.857740 -0.204784
C98   C     C_1   0.494235 1.000000 0.857740 -0.204784
C99   C     C_1   0.995395 0.500000 0.816581 0.003981
C100  C     C_1   0.495396 1.000000 0.816581 0.003980
C101  C     C_1   0.996926 0.500000 0.767949 0.005291
C102  C     C_1   0.496926 1.000000 0.767949 0.005290
C103  C     C_1   0.498217 1.000000 0.726925 0.005086
C104  C     C_1   0.998217 0.500000 0.726926 0.005086
C105  C     C_1   0.499616 1.000000 0.678157 0.004431
C106  C     C_1   0.999616 0.500000 0.678157 0.004432
C107  C     C_1   0.500487 1.000000 0.636701 -0.198181
C108  C     C_1   0.000487 0.500000 0.636701 -0.198181
C109  C     C_3   0.215363 0.507484 0.125711 -0.870056
H9    H     H_    0.243036 0.509466 0.129350 0.235365
H10   H     H_    0.195188 0.477293 0.097241 0.236308
H11   H     H_    0.195196 0.538616 0.102290 0.236591
C110  C     C_3   0.715363 0.991274 0.125820 -0.870047
H12   H     H_    0.743036 0.988964 0.129489 0.235362
H13   H     H_    0.695197 0.960102 0.102826 0.236616
H14   H     H_    0.695188 0.021351 0.096940 0.236286
C111  C     C_3   0.278483 0.492569 0.370472 -0.866492
H15   H     H_    0.250836 0.490585 0.366893 0.233997
H16   H     H_    0.298655 0.461439 0.393870 0.237098
H17   H     H_    0.298664 0.522763 0.398921 0.237340
C112  C     C_3   0.778483 0.008663 0.370361 -0.866499
H18   H     H_    0.750836 0.010976 0.366754 0.234000
H19   H     H_    0.798665 0.978584 0.399223 0.237359
H20   H     H_    0.798654 0.039833 0.393334 0.237076

loop_
_geom_bond_atom_site_label_1
_geom_bond_atom_site_label_2
_geom_bond_distance
_ccdc_geom_bond_type
C13   C27   1.540106 S    
C43   C47   1.245299 T    
C53   C79   1.502061 S    
C74   C98   1.502689 S    
C87   C89   1.475635 S    
C21   C111  1.520091 S    
O10   C6    1.228935 A    
C15   H3    1.110274 S    
Cu7   Cu8   2.498774 S    
O42   C80   1.283615 A    
Cu6   O30   1.890458 S    
C25   C31   1.412311 S    
Cu5   O29   1.890458 S    
C99   C101  1.476717 S    
C26   C32   1.412308 S    
C110  H12   1.109645 S    
O7    C3    1.262341 A    
C103  C105  1.476715 S    
C17   C29   1.174314 T    
C14   C23   1.533901 S    
C11   H7    1.110262 S    
O18   Cu6   1.833276 S    
C12   C16   1.552220 S    
Cu1   Cu3   2.499270 S    
C5    C17   1.382195 S    
C3    C35   1.502061 S    
O47   C83   1.285433 A    
C4    C36   1.502061 S    
C58   C60   1.274352 T    
C100  C102  1.476714 S    
C111  H16   1.109781 S    
C63   C65   1.522897 S    
C28   C110  1.520248 S    
O34   C78   1.282620 A    
C78   C96   1.501568 S    
C9    C13   1.552213 S    
C77   C95   1.501568 S    
Cu7   O31   1.890458 S    
C112  H19   1.109782 S    
C22   C112  1.520092 S    
C65   C67   1.274353 T    
C54   C80   1.502064 S    
Cu12  O48   1.832499 S    
O26   C73   1.262641 A    
C46   C50   1.476105 S    
C102  C103  1.245678 T    
Cu2   O14   1.888843 S    
C21   C23   1.524579 S    
C42   C46   1.245299 T    
C22   C24   1.524583 S    
C91   C93   1.475635 S    
C41   C45   1.245296 T    
C23   C29   1.412283 S    
C56   C82   1.502061 S    
C61   C63   1.274384 T    
O14   C8    1.276342 A    
O4    C4    1.262184 A    
Cu6   O26   1.833767 S    
C86   C88   1.245014 T    
O42   Cu11  1.835640 S    
C16   C24   1.533896 S    
Cu10  O46   1.835819 S    
O38   Cu9   1.835280 S    
C57   C59   1.274352 T    
O23   Cu7   1.890493 S    
C14   C27   1.540068 S    
C97   C99   1.245684 T    
O27   C74   1.262641 A    
C18   C30   1.174311 T    
C98   C100  1.245684 T    
C27   C109  1.520245 S    
C2    C34   1.502061 S    
C6    C18   1.382195 S    
C12   C26   1.533936 S    
C93   C95   1.245015 T    
C104  C106  1.476718 S    
O44   Cu12  1.835640 S    
C20   C32   1.174305 T    
C94   C96   1.245015 T    
C25   C27   1.524670 S    
Cu9   O45   1.835819 S    
O24   Cu8   1.890493 S    
C10   C25   1.533928 S    
C26   C28   1.524671 S    
O1    Cu1   1.833805 S    
C83   C107  1.502668 S    
C34   C38   1.245307 T    
C52   C56   1.245310 T    
O46   C84   1.282149 A    
O43   Cu12  1.835642 S    
C16   H4    1.110271 S    
C19   C71   1.382169 S    
O1    C1    1.262187 A    
Cu10  Cu12  2.577529 S    
Cu3   O15   1.892103 S    
O44   C82   1.283615 A    
C110  H13   1.109789 S    
C7    C57   1.551128 S    
C55   C81   1.502064 S    
O37   C79   1.283635 A    
C10   C14   1.552136 S    
C111  H17   1.109782 S    
C9    C21   1.540678 S    
O41   Cu11  1.835642 S    
O31   C76   1.277241 A    
O6    Cu3   1.832056 S    
O40   Cu10  1.835280 S    
O8    Cu4   1.832056 S    
C13   H1    1.110271 S    
C40   C44   1.476105 S    
C9    C25   1.533936 S    
C92   C94   1.475635 S    
C112  H20   1.109781 S    
Cu1   O13   1.888843 S    
O35   C77   1.284152 A    
C35   C39   1.245307 T    
O5    C1    1.262339 A    
C16   C28   1.540113 S    
O48   C84   1.285433 A    
O10   Cu2   1.892097 S    
O40   C82   1.283633 A    
O17   Cu5   1.833276 S    
C50   C54   1.245310 T    
O17   C69   1.261751 A    
C62   C64   1.274384 T    
C51   C55   1.245310 T    
C69   C85   1.501569 S    
O8    C4    1.262341 A    
C109  H11   1.109786 S    
O19   Cu7   1.833276 S    
C64   C66   1.522897 S    
C12   H8    1.110258 S    
O25   C73   1.262639 A    
O3    Cu2   1.833805 S    
O23   C72   1.228525 A    
C66   C68   1.274353 T    
C12   C22   1.540682 S    
C85   C87   1.245016 T    
C105  C107  1.245685 T    
C24   C30   1.412286 S    
O35   Cu11  1.835563 S    
C68   C76   1.551131 S    
C10   C21   1.540639 S    
C60   C62   1.522894 S    
O20   Cu8   1.833276 S    
C89   C92   1.245003 T    
O13   C7    1.276342 A    
O43   C81   1.283614 A    
C59   C61   1.522894 S    
C8    C58   1.551128 S    
C90   C91   1.245003 T    
C101  C104  1.245672 T    
C11   C15   1.552130 S    
C13   C23   1.533895 S    
C11   C22   1.540635 S    
O18   C69   1.261753 A    
C36   C40   1.245310 T    
Cu8   O28   1.833767 S    
O37   Cu9   1.835280 S    
Cu8   O32   1.890458 S    
O20   C70   1.261753 A    
O28   C74   1.262639 A    
C110  H14   1.109789 S    
C67   C75   1.551131 S    
Cu9   Cu11  2.577529 S    
C70   C86   1.501572 S    
O39   Cu10  1.835280 S    
O12   Cu4   1.888843 S    
C9    H5    1.110257 S    
O2    Cu1   1.833808 S    
C14   H2    1.110273 S    
O39   C81   1.283635 A    
C48   C52   1.476108 S    
Cu2   Cu4   2.499270 S    
O36   C78   1.284152 A    
C15   C28   1.540066 S    
C33   C37   1.245310 T    
O11   C5    1.228708 A    
O4    Cu2   1.833808 S    
Cu5   O25   1.833767 S    
O38   C80   1.283633 A    
O7    Cu4   1.832053 S    
C73   C97   1.502689 S    
O41   C79   1.283614 A    
O16   C8    1.278303 A    
O9    C5    1.228935 A    
O21   Cu5   1.890493 S    
O21   C71   1.228537 A    
C88   C90   1.475635 S    
O29   C75   1.277241 A    
Cu5   Cu6   2.498774 S    
O22   Cu6   1.890493 S    
O36   Cu12  1.835563 S    
C111  H15   1.109648 S    
C20   C72   1.382169 S    
O24   C72   1.228534 A    
O33   Cu9   1.832495 S    
C44   C48   1.245296 T    
C37   C41   1.476105 S    
O45   C83   1.282149 A    
O34   Cu10  1.832495 S    
C109  H10   1.109785 S    
C1    C33   1.502061 S    
C39   C43   1.476105 S    
O30   C75   1.277239 A    
C11   C26   1.533927 S    
C112  H18   1.109650 S    
C106  C108  1.245685 T    
O3    C3    1.262184 A    
O6    C2    1.262341 A    
C109  H9    1.109649 S    
C19   C31   1.174302 T    
C84   C108  1.502668 S    
O33   C77   1.282620 A    
O11   Cu3   1.888843 S    
O19   C70   1.261751 A    
O5    Cu3   1.832053 S    
C38   C42   1.476105 S    
O12   C6    1.228708 A    
C49   C53   1.245310 T    
Cu4   O16   1.892103 S    
C15   C24   1.533904 S    
O9    Cu1   1.892097 S    
C45   C49   1.476108 S    
C10   H6    1.110258 S    
Cu7   O27   1.833767 S    
C47   C51   1.476105 S    
O22   C71   1.228521 A    
Cu11  O47   1.832499 S    
O32   C76   1.277239 A    
O15   C7    1.278303 A    
O2    C2    1.262184 A    
