data_mof_unit_58060.cif
_audit_creation_date              2012-12-10T19:54:28-0500
_audit_creation_method            fapswitch 2.2
_symmetry_space_group_name_H-M    P1
_symmetry_Int_Tables_number       1
_space_group_crystal_system       triclinic
_cell_length_a                    15.735819
_cell_length_b                    14.926413
_cell_length_c                    14.144567
_cell_angle_alpha                 90.216867
_cell_angle_beta                  89.981337
_cell_angle_gamma                 89.84257
_cell_volume                      3322.22993967

loop_
_atom_site_label
_atom_site_type_symbol
_atom_type_description
_atom_site_fract_x
_atom_site_fract_y
_atom_site_fract_z
_atom_type_partial_charge
C1    C     C_R   0.501449 0.327577 0.499783 0.878958
C2    C     C_R   0.570609 0.900956 0.572264 0.110089
C3    C     C_R   0.532147 0.048139 0.499967 0.086298
C4    C     C_R   0.531836 0.951385 0.499326 0.085440
C5    C     C_R   0.457563 0.435255 0.104015 -0.311202
C6    C     C_R   0.458357 0.565562 0.896023 -0.311129
C7    C     C_R   0.457796 0.435447 0.203279 0.010351
C8    C     C_R   0.458568 0.565348 0.796757 0.010956
C9    C     C_R   0.541937 0.566243 0.205870 -0.024482
C10   C     C_R   0.541149 0.432974 0.794107 -0.023098
C11   C     C_R   0.543610 0.569733 0.105859 0.017269
C12   C     C_R   0.501275 0.672350 0.500207 0.876601
C13   C     C_R   0.542760 0.429443 0.894119 0.017672
C14   C     C_R   0.501531 0.501483 0.053288 0.106664
C15   C     C_R   0.501519 0.498500 0.946719 0.107073
C16   C     C_R   0.337771 0.500192 0.500002 0.913776
C17   C     C_R   0.662201 0.500055 0.500004 0.908270
C18   C     C_3   0.971219 0.450743 0.571546 -0.237358
C19   C     C_3   0.028579 0.553629 0.428673 -0.236281
C20   C     C_3   0.026845 0.418489 0.488351 0.045478
C21   C     C_3   0.972872 0.585881 0.511880 0.045363
C22   C     C_1   0.248928 0.500869 0.500047 -0.149457
C23   C     C_R   0.477081 0.181991 0.573164 -0.199640
C24   C     C_1   0.750981 0.500973 0.500000 -0.152598
C25   C     C_3   0.028544 0.534633 0.583374 -0.235862
C26   C     C_3   0.971252 0.469733 0.416862 -0.237307
C27   C     C_3   0.082869 0.501274 0.500013 0.126105
C28   C     C_3   0.916936 0.503045 0.500208 0.126314
C29   C     C_1   0.173693 0.501289 0.500061 0.018679
C30   C     C_1   0.826174 0.501983 0.500074 0.016743
C31   C     C_R   0.486503 0.090264 0.572600 -0.201616
C32   C     C_R   0.482335 0.909857 0.429702 -0.197882
C33   C     C_2   0.055797 0.323551 0.475027 0.893948
C34   C     C_R   0.472970 0.818187 0.429283 -0.205433
C35   C     C_2   0.943487 0.680701 0.525219 0.892247
C36   C     C_3   0.589040 0.647389 0.059079 -0.437026
C37   C     C_3   0.672504 0.618328 0.012021 -0.340826
C38   C     C_3   0.720018 0.698663 0.971897 -0.864485
C39   C     C_3   0.587174 0.350879 0.940867 -0.437074
C40   C     C_3   0.670955 0.378249 0.987965 -0.340602
C41   C     C_3   0.717353 0.296967 0.028155 -0.869730
C42   C     C_3   0.613450 0.055762 0.340927 -0.441200
C43   C     C_3   0.698905 0.014360 0.369273 -0.344371
C44   C     C_3   0.747553 0.980447 0.282856 -0.847756
C45   C     C_R   0.510724 0.231831 0.499149 -0.047867
C46   C     C_3   0.621720 0.942523 0.652400 -0.440074
C47   C     C_3   0.706113 0.981841 0.618202 -0.343835
C48   C     C_3   0.760034 0.014378 0.701082 -0.848243
C49   C     C_R   0.510398 0.767922 0.500767 -0.045853
C50   C     C_R   0.555485 0.190542 0.425376 -0.229925
C51   C     C_R   0.558807 0.808557 0.571768 -0.220461
C52   C     C_R   0.567104 0.098039 0.424428 0.113792
H1    H     H_    0.574370 0.616920 0.247059 0.135339
H2    H     H_    0.434844 0.786753 0.374731 0.153999
H3    H     H_    0.581868 0.230808 0.368936 0.150689
H4    H     H_    0.588067 0.767804 0.626149 0.153624
H5    H     H_    0.422622 0.383618 0.066826 0.146803
H6    H     H_    0.424054 0.617873 0.933238 0.145864
H7    H     H_    0.423859 0.383869 0.241152 0.138623
H8    H     H_    0.425240 0.617561 0.758918 0.134581
H9    H     H_    0.153753 0.236930 0.462945 0.345903
H10   H     H_    0.845101 0.766851 0.537382 0.339548
H11   H     H_    0.680447 0.733191 0.918072 0.259950
H12   H     H_    0.572982 0.381681 0.752908 0.131626
H13   H     H_    0.736302 0.746670 0.029255 0.259814
H14   H     H_    0.779774 0.675543 0.937766 0.252238
H15   H     H_    0.713759 0.584347 0.064736 0.219779
H16   H     H_    0.659547 0.571117 0.953131 0.231002
H17   H     H_    0.546773 0.679844 0.006625 0.206675
H18   H     H_    0.603734 0.699860 0.112660 0.196810
H19   H     H_    0.677275 0.263287 0.081986 0.259602
H20   H     H_    0.733050 0.248600 0.970834 0.259995
H21   H     H_    0.777376 0.318870 0.062296 0.251382
H22   H     H_    0.712711 0.411362 0.935259 0.219582
H23   H     H_    0.946172 0.408364 0.629514 0.157807
H24   H     H_    0.658560 0.425741 0.046828 0.230683
H25   H     H_    0.544457 0.319238 0.993291 0.206857
H26   H     H_    0.601251 0.298147 0.887263 0.195926
H27   H     H_    0.709900 0.928760 0.244879 0.257041
H28   H     H_    0.761491 0.036663 0.234049 0.260230
H29   H     H_    0.808629 0.950031 0.305700 0.258082
H30   H     H_    0.738224 0.065278 0.406383 0.230403
H31   H     H_    0.688387 0.956782 0.417086 0.228759
H32   H     H_    0.573039 0.004446 0.306540 0.201112
H33   H     H_    0.625619 0.107164 0.285825 0.201481
H34   H     H_    0.053616 0.596009 0.370704 0.159054
H35   H     H_    0.725415 0.066853 0.741700 0.256664
H36   H     H_    0.775768 0.957714 0.748726 0.260886
H37   H     H_    0.820195 0.043375 0.674047 0.259750
H38   H     H_    0.742452 0.930029 0.578401 0.224437
H39   H     H_    0.693857 0.039730 0.571229 0.228582
H40   H     H_    0.583924 0.994883 0.689070 0.200248
H41   H     H_    0.635976 0.891052 0.706882 0.202597
H42   H     H_    0.946232 0.442792 0.349126 0.157669
H43   H     H_    0.053549 0.561574 0.651113 0.158708
H44   H     H_    0.456285 0.051595 0.627858 0.141297
H45   H     H_    0.449297 0.948933 0.376681 0.141308
H46   H     H_    0.441771 0.213770 0.629960 0.157319
N1    N     N_R   0.500000 0.499980 0.252470 -0.101732
N2    N     N_R   0.500000 0.500020 0.747530 -0.100183
O1    O     O_R   0.500010 0.369070 0.579480 -0.629090
O2    O     O_R   0.142484 0.303287 0.472241 -0.813320
O3    O     O_2   0.995972 0.740385 0.533597 -0.625823
O4    O     O_R   0.856697 0.700550 0.528042 -0.816261
O5    O     O_R   0.499990 0.630930 0.420520 -0.627754
O6    O     O_R   0.500010 0.369060 0.420520 -0.627893
O7    O     O_R   0.499990 0.630940 0.579480 -0.628783
O8    O     O_R   0.376780 0.500000 0.579460 -0.613258
O9    O     O_R   0.623220 0.500000 0.420540 -0.616919
O10   O     O_R   0.376780 0.499990 0.420510 -0.611336
O11   O     O_R   0.623220 0.500010 0.579490 -0.614127
O12   O     O_2   0.003042 0.264127 0.466648 -0.628591
Zn1   Zn    Zn3+2 0.500000 0.500010 0.606140 0.949875
Zn2   Zn    Zn3+2 0.500000 0.499990 0.393860 0.949451

loop_
_geom_bond_atom_site_label_1
_geom_bond_atom_site_label_2
_ccdc_geom_bond_type
C26   H42   S    
C18   H23   S    
C23   C45   A    
C22   C29   T    
C27   C29   S    
O1    Zn1   S    
C6    H6    S    
C19   H34   S    
N1    Zn2   S    
C12   C49   S    
C16   O10   A    
C2    C46   S    
C7    N1    A    
O6    Zn2   S    
C39   H25   S    
C36   C37   S    
C19   C21   S    
C35   O3    D    
C12   O5    A    
C11   C14   A    
C46   H40   S    
C31   H44   S    
C37   H16   S    
C43   H31   S    
C32   H45   S    
C51   H4    S    
C19   C26   S    
O7    Zn1   S    
C6    C15   A    
C38   H14   S    
C35   O4    S    
C49   C51   A    
C50   C52   A    
C48   H36   S    
C19   C27   S    
O10   Zn2   S    
C1    O6    A    
C41   H19   S    
C9    N1    A    
C18   C25   S    
C17   O11   A    
C7    H7    S    
C36   H18   S    
H10   O4    S    
C17   C24   S    
C33   O2    S    
C39   H26   S    
O5    Zn2   S    
C44   H28   S    
C18   C28   S    
C44   H29   S    
C39   C40   S    
C5    C7    A    
C6    C8    A    
C40   H24   S    
C32   C34   A    
O8    Zn1   S    
C2    C4    A    
C43   C44   S    
C37   C38   S    
C47   C48   S    
C38   H13   S    
C48   H35   S    
C42   H32   S    
O11   Zn1   S    
C42   H33   S    
C10   N2    A    
C9    C11   A    
C5    C14   A    
C4    C32   A    
O9    Zn2   S    
C41   H20   S    
C20   C33   S    
C40   C41   S    
C21   C28   S    
C25   H43   S    
C48   H37   S    
C13   C15   A    
C47   H38   S    
C9    H1    S    
C42   C43   S    
C3    C4    S    
C1    O1    A    
C36   H17   S    
C38   H11   S    
C33   O12   D    
C21   C25   S    
C46   C47   S    
C11   C36   S    
C34   C49   A    
C16   C22   S    
C47   H39   S    
C44   H27   S    
C10   H12   S    
N2    Zn1   S    
C10   C13   A    
C17   O9    A    
C12   O7    A    
C3    C52   A    
C34   H2    S    
C21   C35   S    
C20   C27   S    
C25   C27   S    
C26   C28   S    
C50   H3    S    
C5    H5    S    
C28   C30   S    
H9    O2    S    
C8    N2    A    
C8    H8    S    
C3    C31   A    
C1    C45   S    
C46   H41   S    
C20   C26   S    
C45   C50   A    
C37   H15   S    
C40   H22   S    
C18   C20   S    
C24   C30   T    
C13   C39   S    
C2    C51   A    
C16   O8    A    
C41   H21   S    
C23   H46   S    
C42   C52   S    
C43   H30   S    
C14   C15   S    
C23   C31   A    
