data_mof_unit_52249.cif
_audit_creation_date              2012-12-10T16:52:09-0500
_audit_creation_method            fapswitch 2.2
_symmetry_space_group_name_H-M    P1
_symmetry_Int_Tables_number       1
_space_group_crystal_system       triclinic
_cell_length_a                    7.877587
_cell_length_b                    8.566642
_cell_length_c                    14.953113
_cell_angle_alpha                 92.946445
_cell_angle_beta                  84.411492
_cell_angle_gamma                 94.38117
_cell_volume                      1000.38869168

loop_
_atom_site_label
_atom_site_type_symbol
_atom_type_description
_atom_site_fract_x
_atom_site_fract_y
_atom_site_fract_z
_atom_type_partial_charge
C1    C     C_R   0.545765 0.794436 0.497981 0.977150
C2    C     C_R   0.547596 0.640960 0.815034 0.068268
C3    C     C_R   0.505386 0.497158 0.231672 -0.142723
C4    C     C_R   0.494614 0.502842 0.768328 -0.142723
C5    C     C_R   0.574867 0.630602 0.187206 0.068007
C6    C     C_R   0.425132 0.369398 0.812794 0.068007
C7    C     C_R   0.567392 0.634145 0.094481 0.075616
C8    C     C_R   0.432607 0.365855 0.905519 0.075616
C9    C     C_R   0.502673 0.498931 0.046762 0.025538
C10   C     C_R   0.497326 0.501069 0.953238 0.025538
C11   C     C_R   0.446604 0.360546 0.092059 0.076710
C12   C     C_R   0.454235 0.205564 0.502019 0.977151
C13   C     C_R   0.553395 0.639454 0.907941 0.076710
C14   C     C_R   0.621907 0.769934 0.048415 -0.165286
C15   C     C_R   0.378092 0.230066 0.951585 -0.165285
C16   C     C_R   0.614548 0.772712 0.956611 -0.172374
C17   C     C_R   0.385451 0.227287 0.043389 -0.172375
C18   C     C_2   0.569301 0.958618 0.496981 -0.286647
C19   C     C_2   0.430699 0.041382 0.503019 -0.286647
C20   C     C_R   0.499337 0.501511 0.672621 0.943183
C21   C     C_R   0.500663 0.498489 0.327379 0.943183
C22   C     C_R   0.452404 0.359040 0.184965 0.068268
H1    H     H_    0.668841 0.876585 0.082337 0.193715
H2    H     H_    0.331158 0.123415 0.917663 0.193715
H3    H     H_    0.659762 0.880395 0.924837 0.190198
H4    H     H_    0.340237 0.119605 0.075163 0.190198
H5    H     H_    0.699966 0.010686 0.491266 0.205115
H6    H     H_    0.300034 0.989314 0.508734 0.205115
I1    I     I_    0.408057 0.144641 0.254144 -0.318366
I2    I     I_    0.591943 0.855359 0.745856 -0.318367
I3    I     I_    0.708602 0.816780 0.260028 -0.292961
I4    I     I_    0.291398 0.183220 0.739972 -0.292961
I5    I     I_    0.027506 0.270034 0.394304 -0.132237
I6    I     I_    0.972494 0.729966 0.605696 -0.132237
N1    N     N_2   0.950330 0.457950 0.475660 0.021650
N2    N     N_2   0.049670 0.542050 0.524340 0.021649
O1    O     O_R   0.389250 0.738570 0.505970 -0.610800
O2    O     O_R   0.610750 0.261430 0.494030 -0.610800
O3    O     O_R   0.678390 0.711620 0.490370 -0.599718
O4    O     O_R   0.321610 0.288380 0.509630 -0.599719
O5    O     O_R   0.355420 0.513510 0.639950 -0.591159
O6    O     O_R   0.644580 0.486490 0.360050 -0.591159
O7    O     O_R   0.644560 0.486560 0.624350 -0.600933
O8    O     O_R   0.355440 0.513440 0.375650 -0.600933
Zn1   Zn    Zn3+2 0.306940 0.517990 0.510420 1.068056
Zn2   Zn    Zn3+2 0.693060 0.482010 0.489580 1.068056

loop_
_geom_bond_atom_site_label_1
_geom_bond_atom_site_label_2
_ccdc_geom_bond_type
C14   H1    S    
C12   O4    A    
C2    C4    A    
C15   C17   A    
C22   I1    S    
C21   O8    A    
C9    C10   A    
C11   C22   A    
C6    I4    S    
N1    N2    D    
C1    O1    A    
C2    I2    S    
C20   O5    A    
N2    Zn1   S    
C19   H6    S    
C9    C11   A    
C1    C18   S    
O3    Zn2   S    
C17   H4    S    
C12   C19   S    
C8    C10   A    
C15   H2    S    
I5    N1    S    
C8    C15   A    
I6    N2    S    
C12   O2    A    
O4    Zn1   S    
O7    Zn2   S    
C14   C16   A    
O2    Zn2   S    
C3    C21   S    
C1    O3    A    
O1    Zn1   S    
C21   O6    A    
C4    C20   S    
C7    C9    A    
C20   O7    A    
O8    Zn1   S    
C4    C6    A    
C18   C19   D    
O6    Zn2   S    
C13   C16   A    
C16   H3    S    
C5    C7    A    
C2    C13   A    
O5    Zn1   S    
C11   C17   A    
C3    C22   A    
C6    C8    A    
C5    I3    S    
N1    Zn2   S    
C7    C14   A    
C18   H5    S    
C3    C5    A    
C10   C13   A    
