data_mof_unit_26834.cif
_audit_creation_date              2012-12-10T20:34:12-0500
_audit_creation_method            fapswitch 2.2
_symmetry_space_group_name_H-M    P1
_symmetry_Int_Tables_number       1
_space_group_crystal_system       triclinic
_cell_length_a                    9.910539
_cell_length_b                    10.739309
_cell_length_c                    13.578945
_cell_angle_alpha                 90.600634
_cell_angle_beta                  82.145641
_cell_angle_gamma                 90.438177
_cell_volume                      1431.5737428

loop_
_atom_site_label
_atom_site_type_symbol
_atom_type_description
_atom_site_fract_x
_atom_site_fract_y
_atom_site_fract_z
_atom_type_partial_charge
C1    C     C_R   0.500700 0.739935 0.499190 0.926191
C2    C     C_3   0.263268 0.931002 0.451100 0.598743
C3    C     C_R   0.913105 0.517398 0.586210 0.043631
C4    C     C_R   0.475009 0.498329 0.685840 0.885997
C5    C     C_R   0.945219 0.466707 0.417048 0.030459
C6    C     C_R   0.088364 0.468876 0.417193 -0.157739
C7    C     C_R   0.055171 0.515868 0.586746 0.072847
C8    C     C_3   0.048354 0.625302 0.656618 -0.306198
C9    C     C_3   0.894691 0.626087 0.655574 0.477927
C10   C     C_R   0.499442 0.260422 0.501238 0.918309
C11   C     C_R   0.525077 0.500807 0.314160 0.889648
C12   C     C_1   0.456912 0.485266 0.789568 -0.160267
C13   C     C_1   0.544522 0.503373 0.209895 -0.139142
C14   C     C_2   0.560058 0.505389 0.017461 -0.200123
C15   C     C_2   0.451974 0.461920 0.980220 -0.177648
C16   C     C_1   0.449786 0.472801 0.876944 0.029467
C17   C     C_1   0.556366 0.505032 0.121690 -0.001761
C18   C     C_R   0.086107 0.598634 0.758672 0.110803
C19   C     C_R   0.048829 0.486306 0.808240 -0.141266
C20   C     C_R   0.074602 0.469304 0.905823 -0.145082
C21   C     C_R   0.136135 0.564272 0.955260 -0.124876
C22   C     C_R   0.175426 0.675156 0.906359 -0.134926
C23   C     C_R   0.377279 0.935773 0.513902 -0.003672
C24   C     C_R   0.151069 0.692211 0.808420 -0.110273
C25   C     C_R   0.299294 0.874107 0.347636 0.064626
C26   C     C_R   0.414854 0.914462 0.283268 -0.250107
C27   C     C_R   0.445883 0.862077 0.188295 -0.105617
C28   C     C_R   0.362681 0.768754 0.156398 -0.109174
C29   C     C_R   0.249285 0.726434 0.219842 -0.180355
C30   C     C_R   0.217306 0.778784 0.314789 -0.028172
C31   C     C_R   0.896424 0.421661 0.325836 0.155620
C32   C     C_R   0.910196 0.496800 0.241075 -0.153174
C33   C     C_R   0.875688 0.449551 0.151482 -0.155818
C34   C     C_R   0.500850 0.872269 0.505552 -0.334933
C35   C     C_R   0.828699 0.326933 0.145735 -0.117347
C36   C     C_R   0.815664 0.251475 0.229808 -0.158068
C37   C     C_R   0.850592 0.298284 0.319476 -0.106100
C38   C     C_R   0.622911 0.938716 0.509563 0.680443
C39   C     C_R   0.620469 0.066649 0.514417 -0.326444
C40   C     C_R   0.497994 0.129163 0.510648 -0.192013
C41   C     C_R   0.375950 0.063211 0.516776 0.030438
C42   C     C_3   0.262349 0.072766 0.455213 -0.492482
F1    F     F_    0.853171 0.730921 0.610518 -0.549277
F2    F     F_    0.746006 0.882537 0.500206 -0.570440
F3    F     F_    0.145616 0.882026 0.503771 -0.645006
H1    H     H_    0.364700 0.422338 0.026978 0.156297
H2    H     H_    0.045137 0.383067 0.943626 0.133245
H3    H     H_    0.154101 0.551614 0.031303 0.118467
H4    H     H_    0.223990 0.748265 0.944563 0.130281
H5    H     H_    0.180180 0.779612 0.772180 0.140245
H6    H     H_    0.481037 0.986575 0.306386 0.133062
H7    H     H_    0.534501 0.894002 0.139337 0.133199
H8    H     H_    0.386537 0.728700 0.082694 0.137866
H9    H     H_    0.186136 0.652926 0.195385 0.116660
H10   H     H_    0.128510 0.744426 0.362299 0.189323
H11   H     H_    0.947068 0.591672 0.244621 0.124431
H12   H     H_    0.155462 0.444272 0.350270 0.151911
H13   H     H_    0.883811 0.508451 0.086822 0.142306
H14   H     H_    0.801686 0.290744 0.076299 0.133874
H15   H     H_    0.779783 0.156411 0.225273 0.135716
H16   H     H_    0.844481 0.237953 0.383242 0.131760
H17   H     H_    0.100913 0.708294 0.621024 0.258434
H18   H     H_    0.830904 0.603925 0.727218 0.052728
H19   H     H_    0.647096 0.545869 0.970980 0.159772
H20   H     H_    0.716163 0.115992 0.514338 0.196855
H21   H     H_    0.168848 0.111867 0.498816 0.234719
H22   H     H_    0.293749 0.119636 0.382974 0.157905
H23   H     H_    0.997684 0.412860 0.772232 0.114972
N1    N     N_R   0.857130 0.500860 0.500650 -0.084136
N2    N     N_R   0.142770 0.500820 0.500650 -0.088118
O1    O     O_R   0.385310 0.683210 0.499990 -0.612962
O2    O     O_R   0.614650 0.683240 0.500000 -0.503811
O3    O     O_R   0.368820 0.499950 0.640340 -0.601312
O4    O     O_R   0.598170 0.499990 0.640350 -0.620852
O5    O     O_R   0.385350 0.316760 0.500000 -0.611871
O6    O     O_R   0.614690 0.316790 0.500010 -0.643371
O7    O     O_R   0.401830 0.500010 0.359650 -0.628363
O8    O     O_R   0.631180 0.500050 0.359660 -0.603631
Zn1   Zn    Zn3+2 0.346870 0.499980 0.499990 0.963468
Zn2   Zn    Zn3+2 0.653130 0.500020 0.500010 1.013282

loop_
_geom_bond_atom_site_label_1
_geom_bond_atom_site_label_2
_ccdc_geom_bond_type
C33   H13   S    
C41   C42   S    
C19   C20   A    
C6    H12   S    
C7    N2    A    
O1    Zn1   S    
C7    C8    S    
C26   C27   A    
C1    O1    A    
C18   C24   A    
C10   C40   S    
C36   C37   A    
C3    N1    A    
C3    C7    A    
C5    C6    A    
O8    Zn2   S    
C29   H9    S    
C15   C16   S    
C35   H14   S    
C18   C19   A    
C5    N1    A    
C11   O7    A    
C10   O6    A    
C12   C16   T    
C8    C9    S    
C4    C12   S    
C4    O4    A    
C21   H3    S    
O4    Zn2   S    
C21   C22   A    
C39   H20   S    
C14   C17   S    
C1    C34   S    
O7    Zn1   S    
C2    F3    S    
C24   H5    S    
C9    F1    S    
C1    O2    A    
C39   C40   A    
C25   C26   A    
C8    C18   S    
C31   C37   A    
C35   C36   A    
C38   F2    S    
C29   C30   A    
C3    C9    S    
C11   O8    A    
C10   O5    A    
C31   C32   A    
C23   C34   A    
C14   H19   S    
O3    Zn1   S    
C19   H23   S    
C4    O3    A    
C22   H4    S    
C40   C41   A    
C42   H22   S    
C22   C24   A    
C27   C28   A    
C27   H7    S    
C25   C30   A    
C6    N2    A    
C28   C29   A    
N2    Zn1   S    
C34   C38   A    
C9    H18   S    
O6    Zn2   S    
C36   H15   S    
C37   H16   S    
C28   H8    S    
C30   H10   S    
C23   C41   A    
C13   C17   T    
C32   C33   A    
O2    Zn2   S    
C26   H6    S    
C11   C13   S    
C38   C39   A    
C2    C42   S    
C33   C35   A    
C2    C25   S    
C20   H2    S    
C20   C21   A    
C2    C23   S    
C42   H21   S    
C14   C15   D    
N1    Zn2   S    
C15   H1    S    
O5    Zn1   S    
C32   H11   S    
C8    H17   S    
C5    C31   S    
