data_mof_unit_42824.cif
_audit_creation_date              2013-03-05T15:56:13-0500
_audit_creation_method            fapswitch 2.2
_symmetry_space_group_name_H-M    P1
_symmetry_Int_Tables_number       1
_space_group_crystal_system       triclinic
_cell_length_a                    12.316198
_cell_length_b                    13.307006
_cell_length_c                    19.324139
_cell_angle_alpha                 77.779792
_cell_angle_beta                  101.651011
_cell_angle_gamma                 116.092685
_cell_volume                      2758.38333166

loop_
_atom_site_label
_atom_site_type_symbol
_atom_site_description
_atom_site_fract_x
_atom_site_fract_y
_atom_site_fract_z
_atom_type_partial_charge
O1    O     O_R   0.972510 0.318130 0.520450 -0.588352
O2    O     O_R   0.806530 0.359650 0.492990 -0.616920
C1    C     C_R   0.854324 0.286971 0.508534 0.822728
O3    O     O_R   0.083010 0.479220 0.613590 -0.573365
O4    O     O_R   0.917030 0.520740 0.586130 -0.610888
C2    C     C_R   0.000645 0.500967 0.632422 0.772755
Cu1   Cu    Cu3+1 0.098280 0.475420 0.516260 0.996464
Cu2   Cu    Cu3+1 0.901720 0.524580 0.483740 1.014690
O5    O     O_R   0.193470 0.640350 0.507010 -0.532071
O6    O     O_R   0.027490 0.681870 0.479550 -0.561227
O7    O     O_R   0.082970 0.479260 0.413870 -0.608657
O8    O     O_R   0.916990 0.520780 0.386410 -0.511708
C3    C     C_R   0.145119 0.712288 0.496042 0.852752
C4    C     C_R   0.999627 0.499409 0.367573 0.860210
C5    C     C_R   0.103908 0.504827 0.757599 -0.147565
H1    H     H_    0.179236 0.498060 0.741219 0.176810
C6    C     C_R   0.108397 0.513209 0.828923 -0.138736
C7    C     C_R   0.012568 0.522527 0.852015 0.042990
C8    C     C_R   0.912440 0.523726 0.802370 -0.119075
H2    H     H_    0.837132 0.530863 0.818464 0.172630
C9    C     C_R   0.908285 0.516002 0.731062 -0.167178
H3    H     H_    0.830012 0.517428 0.694039 0.168846
C10   C     C_R   0.003895 0.506365 0.708055 -0.039147
N1    N     N_R   0.914795 0.519427 0.951716 -0.220665
N2    N     N_R   0.914834 0.520020 0.020385 -0.214348
C11   C     C_R   0.015375 0.529877 0.067838 0.444196
N3    N     N_R   0.116499 0.540201 0.043771 -0.219785
N4    N     N_R   0.116335 0.539272 0.974996 -0.221821
C12   C     C_R   0.015180 0.528240 0.927694 0.418050
C13   C     C_R   0.119270 0.553440 0.192546 -0.125971
C14   C     C_R   0.114048 0.543385 0.265246 -0.223913
H4    H     H_    0.198381 0.569441 0.301144 0.160898
C15   C     C_R   0.001463 0.502100 0.291255 -0.128882
C16   C     C_R   0.892870 0.468768 0.243255 0.384352
C17   C     C_R   0.899414 0.482289 0.170311 -0.187458
C18   C     C_R   0.011944 0.523592 0.144438 -0.015445
C19   C     C_R   0.262948 0.026495 0.457783 -0.174946
H5    H     H_    0.086984 0.891820 0.458227 0.227504
H6    H     H_    0.431296 0.219916 0.407539 0.161735
H7    H     H_    0.226671 0.087238 0.430260 0.162260
C20   C     C_R   0.228188 0.832011 0.499528 -0.167102
C21   C     C_R   0.817679 0.097267 0.573384 -0.266365
C22   C     C_R   0.740279 0.996587 0.609744 0.364219
C23   C     C_R   0.614434 0.963709 0.594366 -0.168379
C24   C     C_R   0.563529 0.022054 0.537339 0.029898
C25   C     C_R   0.642617 0.128010 0.504183 0.069447
C26   C     C_R   0.435520 0.981059 0.514315 -0.004860
C27   C     C_R   0.388329 0.058181 0.473275 0.105326
C28   C     C_R   0.466572 0.163428 0.443244 -0.198417
C29   C     C_R   0.590472 0.192822 0.453111 -0.119798
C30   C     C_R   0.354201 0.865162 0.524808 0.274263
C31   C     C_R   0.183308 0.914495 0.472738 -0.182593
C32   C     C_R   0.770833 0.167220 0.524659 -0.147446
H8    H     H_    0.557567 0.894847 0.629571 0.217971
H9    H     H_    0.642757 0.267938 0.420141 0.230751
C33   C     C_R   0.349192 0.330540 0.613693 -0.275041
H10   H     H_    0.171610 0.311655 0.626125 0.132948
H11   H     H_    0.550968 0.297810 0.636778 0.157747
H12   H     H_    0.349475 0.264973 0.657809 0.155751
N5    N     N_R   0.246290 0.438200 0.540910 -0.188933
C34   C     C_R   0.752946 0.641849 0.402094 0.543580
C35   C     C_R   0.654654 0.671656 0.382896 -0.246564
C36   C     C_R   0.554931 0.618790 0.420353 -0.212507
C37   C     C_R   0.550660 0.533552 0.478125 0.012270
C38   C     C_R   0.654062 0.505849 0.497423 0.219891
C39   C     C_R   0.447169 0.474742 0.517069 -0.004874
C40   C     C_R   0.448686 0.389399 0.574587 0.159089
C41   C     C_R   0.549380 0.363286 0.592814 -0.263177
C42   C     C_R   0.649545 0.420193 0.555337 -0.166553
C43   C     C_R   0.341128 0.496484 0.501432 0.112256
C44   C     C_R   0.248466 0.356591 0.595973 0.088575
N6    N     N_R   0.754310 0.561190 0.459520 -0.270474
H13   H     H_    0.655118 0.735772 0.337663 0.189267
N7    N     N_R   0.400617 0.780587 0.551791 0.111637
O9    O     O_R   0.371262 0.715652 0.611902 -0.351196
O10   O     O_R   0.471169 0.767600 0.515851 -0.368457
H14   H     H_    0.915172 0.126102 0.588100 0.195752
N8    N     N_R   0.789342 0.930412 0.664577 0.138311
O11   O     O_R   0.906557 0.963722 0.681318 -0.353903
O12   O     O_R   0.717370 0.834663 0.696996 -0.316308
H15   H     H_    0.186522 0.511570 0.865971 0.167839
H16   H     H_    0.331435 0.559273 0.458417 0.131779
N9    N     N_R   0.849330 0.695225 0.358419 0.135626
O13   O     O_R   0.926240 0.798549 0.365360 -0.386167
O14   O     O_R   0.831432 0.661393 0.297028 -0.325622
H17   H     H_    0.482179 0.645896 0.402174 0.169787
H18   H     H_    0.721157 0.393266 0.573871 0.199875
H19   H     H_    0.207334 0.585368 0.173989 0.172121
N10   N     N_R   0.775689 0.412357 0.268172 0.135036
O15   O     O_R   0.755406 0.325684 0.317847 -0.403915
O16   O     O_R   0.683764 0.431476 0.232000 -0.316407
H20   H     H_    0.815479 0.455041 0.134191 0.192303

loop_
_geom_bond_atom_site_label_1
_geom_bond_atom_site_label_2
_geom_bond_distance
_ccdc_geom_bond_type
C17   C18   1.402274 A    
C30   N7    1.436102 S    
C4    C15   1.472120 S    
C3    C20   1.474184 S    
Cu1   Cu2   2.699639 S    
C39   C43   1.420094 A    
C24   C25   1.417336 A    
C22   N8    1.441457 S    
Cu1   O7    1.941133 S    
C11   N3    1.357484 A    
N7    O10   1.301508 A    
N9    O13   1.298767 A    
N4    C12   1.358371 A    
C8    C9    1.392421 A    
C7    C8    1.405109 A    
C19   H7    1.084237 S    
C21   C32   1.402830 A    
C13   C14   1.394658 A    
O7    C4    1.302135 A    
N8    O12   1.301733 A    
H5    C31   1.078740 S    
C5    H1    1.083137 S    
Cu1   O5    1.969371 S    
C16   C17   1.396976 A    
O5    C3    1.296349 A    
N1    C12   1.356121 A    
C14   H4    1.083631 S    
C41   C42   1.388075 A    
C14   C15   1.404147 A    
C35   H13   1.083520 S    
N10   O16   1.301372 A    
C20   C31   1.398517 A    
C42   H18   1.063331 S    
C17   H20   1.083195 S    
C5    C10   1.404234 A    
C39   C40   1.414700 A    
C9    H3    1.083206 S    
O3    Cu1   1.940852 S    
C15   C16   1.413204 A    
C24   C26   1.429706 A    
Cu2   N6    2.022580 S    
N7    O9    1.302520 A    
C40   C41   1.390562 A    
N1    N2    1.328554 A    
O3    C2    1.302739 A    
C34   N9    1.426592 S    
C19   C31   1.383146 A    
N8    O11   1.301704 A    
C26   C30   1.419027 A    
N5    C44   1.355413 A    
N2    C11   1.356786 A    
O1    C1    1.310674 A    
C37   C39   1.436708 A    
C22   C23   1.398042 A    
C35   C36   1.382306 A    
C26   C27   1.419141 A    
N5    C43   1.363957 A    
Cu2   O8    1.940851 S    
C33   C44   1.390280 A    
C6    C7    1.404400 A    
C7    C12   1.473586 S    
H10   C44   1.081868 S    
C19   C27   1.394975 A    
C34   N6    1.373997 A    
C11   C18   1.472945 S    
C27   C28   1.386166 A    
H6    C28   1.084657 S    
O8    C4    1.302810 A    
C9    C10   1.403276 A    
C36   H17   1.076999 S    
C21   C22   1.394962 A    
C13   H19   1.082921 S    
C38   N6    1.392946 A    
Cu1   N5    2.034420 S    
C23   C24   1.413215 A    
H11   C41   1.084530 S    
C5    C6    1.394286 A    
N9    O14   1.300710 A    
O1    Cu1   1.978339 S    
O2    Cu2   1.969371 S    
O6    C3    1.310166 A    
O4    Cu2   1.941135 S    
C33   C40   1.401889 A    
C25   C29   1.414629 A    
C29   H9    1.072210 S    
C33   H12   1.083806 S    
C13   C18   1.402656 A    
C37   C38   1.435192 A    
C8    H2    1.082833 S    
O2    C1    1.295552 A    
C16   N10   1.432794 S    
C1    C32   1.473640 S    
O4    C2    1.302549 A    
C38   C42   1.408575 A    
C2    C10   1.470089 S    
C25   C32   1.425732 A    
C6    H15   1.082808 S    
C34   C35   1.392538 A    
C43   H16   1.075621 S    
C36   C37   1.403849 A    
C23   H8    1.075658 S    
C21   H14   1.082989 S    
Cu2   O6    1.978339 S    
C28   C29   1.380936 A    
N3    N4    1.331273 A    
N10   O15   1.299547 A    
C20   C30   1.422929 A    
