data_mof_unit_37723.cif
_audit_creation_date              2012-12-10T20:53:08-0500
_audit_creation_method            fapswitch 2.2
_symmetry_space_group_name_H-M    P1
_symmetry_Int_Tables_number       1
_space_group_crystal_system       triclinic
_cell_length_a                    18.265224
_cell_length_b                    18.270827
_cell_length_c                    18.288819
_cell_angle_alpha                 60.539572
_cell_angle_beta                  60.576825
_cell_angle_gamma                 60.551064
_cell_volume                      4369.91722794

loop_
_atom_site_label
_atom_site_type_symbol
_atom_type_description
_atom_site_fract_x
_atom_site_fract_y
_atom_site_fract_z
_atom_type_partial_charge
C1    C     C_R   0.389506 0.107358 0.113047 0.867005
C2    C     C_R   0.385344 0.798702 0.773921 -0.118870
C3    C     C_R   0.042314 0.528403 0.905224 0.026038
C4    C     C_R   0.462839 0.956983 0.095390 0.040569
C5    C     C_R   0.559945 0.033615 0.918022 0.038773
C6    C     C_R   0.942242 0.949426 0.554284 -0.162932
C7    C     C_R   0.053156 0.054093 0.441153 -0.170283
C8    C     C_R   0.947927 0.557346 0.944132 -0.147066
C9    C     C_R   0.051821 0.443101 0.055913 -0.147010
C10   C     C_R   0.559104 0.945772 0.947315 -0.160439
C11   C     C_R   0.446117 0.050476 0.058041 -0.157765
C12   C     C_3   0.136002 0.017918 0.236260 -0.680371
C13   C     C_R   0.185754 0.160173 0.673916 -0.143161
C14   C     C_3   0.721787 0.059135 0.536994 -0.715477
C15   C     C_3   0.944115 0.285563 0.255594 -0.729224
C16   C     C_3   0.036895 0.596335 0.693962 -0.765223
C17   C     C_3   0.485028 0.937568 0.269703 -0.734547
C18   C     C_3   0.761057 0.976234 0.879796 -0.683157
C19   C     C_1   0.896674 0.536606 0.342523 0.084312
C20   C     C_1   0.122959 0.393820 0.667462 0.104497
C21   C     C_1   0.652477 0.285605 0.935063 0.116342
C22   C     C_1   0.340575 0.722413 0.048643 0.119738
C23   C     C_1   0.287571 0.948594 0.576507 0.120246
C24   C     C_R   0.781883 0.773165 0.373258 -0.141195
C25   C     C_1   0.736726 0.032947 0.352032 0.098972
C26   C     C_R   0.078027 0.630824 0.254245 -0.148315
C27   C     C_R   0.891472 0.390070 0.745606 -0.100259
C28   C     C_R   0.575024 0.280342 0.169623 -0.131913
C29   C     C_R   0.428395 0.711298 0.818792 -0.136860
C30   C     C_R   0.276056 0.132443 0.625124 -0.171576
C31   C     C_R   0.699208 0.819512 0.421710 -0.155497
C32   C     C_R   0.016173 0.585566 0.314118 0.083289
C33   C     C_R   0.611021 0.893073 0.887248 0.819998
C34   C     C_R   0.971140 0.409187 0.688813 0.089920
C35   C     C_R   0.587514 0.313544 0.078428 0.088474
C36   C     C_R   0.414404 0.684462 0.909717 0.099690
C37   C     C_R   0.311013 0.063370 0.591331 0.087261
C38   C     C_R   0.682244 0.905788 0.415478 0.104012
C39   C     C_R   0.961839 0.581470 0.282701 0.054984
C40   C     C_R   0.038364 0.379565 0.724001 0.012479
C41   C     C_R   0.639539 0.254688 0.028587 0.052325
C42   C     C_R   0.356093 0.746669 0.955516 0.054638
C43   C     C_R   0.254204 0.021072 0.608484 0.078316
C44   C     C_R   0.112975 0.106893 0.388958 0.823670
C45   C     C_R   0.750226 0.944762 0.360772 0.066294
C46   C     C_R   0.970891 0.621650 0.192126 -0.152862
C47   C     C_R   0.023400 0.335004 0.815458 -0.184079
C48   C     C_R   0.677082 0.163808 0.071001 -0.170801
C49   C     C_R   0.313256 0.834188 0.909785 -0.170604
C50   C     C_R   0.163492 0.050227 0.656670 -0.153120
C51   C     C_R   0.833102 0.897375 0.312864 -0.170978
C52   C     C_R   0.033274 0.665799 0.133027 -0.121228
C53   C     C_R   0.942979 0.318457 0.871551 -0.126453
C54   C     C_R   0.662396 0.131320 0.162245 -0.128792
C55   C     C_R   0.887202 0.892421 0.610575 0.869792
C56   C     C_R   0.327751 0.859981 0.819381 -0.136733
C57   C     C_R   0.129443 0.119642 0.689169 -0.143319
C58   C     C_R   0.848454 0.812341 0.318416 -0.152532
C59   C     C_R   0.961153 0.591091 0.464305 -0.258798
C60   C     C_R   0.036796 0.407424 0.536376 -0.239241
C61   C     C_R   0.591838 0.464438 0.982763 -0.244496
C62   C     C_R   0.408812 0.535264 0.012370 -0.239410
C63   C     C_R   0.464343 0.982082 0.591835 -0.271377
C64   C     C_R   0.534856 0.011747 0.409300 -0.277534
C65   C     C_R   0.946113 0.551461 0.555870 -0.044220
C66   C     C_R   0.107793 0.389281 0.112343 0.856790
C67   C     C_R   0.051319 0.447217 0.444963 -0.043255
C68   C     C_R   0.552619 0.555097 0.942280 -0.051521
C69   C     C_R   0.447843 0.444810 0.053835 -0.052388
C70   C     C_R   0.555220 0.942870 0.552534 -0.051830
C71   C     C_R   0.444077 0.051612 0.448429 -0.045614
C72   C     C_R   0.983873 0.457847 0.592613 0.006428
C73   C     C_R   0.011318 0.540072 0.408685 0.009104
C74   C     C_R   0.460051 0.590789 0.955828 0.001986
C75   C     C_R   0.540918 0.408727 0.037872 0.006134
C76   C     C_R   0.590638 0.956017 0.460266 0.014554
C77   C     C_R   0.891093 0.610777 0.888750 0.873078
C78   C     C_R   0.407667 0.033496 0.541832 0.009213
C79   C     C_R   0.108906 0.390313 0.389648 0.792211
C80   C     C_R   0.890204 0.609363 0.610462 0.780951
C81   C     C_R   0.390437 0.389710 0.110390 0.783672
C82   C     C_R   0.609649 0.610341 0.888467 0.784249
C83   C     C_R   0.389555 0.109732 0.390551 0.782872
C84   C     C_R   0.610355 0.888459 0.609657 0.776981
C85   C     C_R   0.161850 0.929682 0.376724 0.192536
C86   C     C_R   0.812000 0.088090 0.573640 0.191689
C87   C     C_R   0.911793 0.442956 0.188019 0.204494
C88   C     C_R   0.086607 0.670547 0.164032 -0.139123
C89   C     C_R   0.087803 0.558246 0.811328 0.210900
C90   C     C_R   0.434918 0.910689 0.188863 0.187597
C91   C     C_R   0.626376 0.068731 0.842294 0.184611
C92   C     C_R   0.199074 0.837102 0.395576 -0.203280
C93   C     C_R   0.782226 0.177202 0.567225 -0.211413
C94   C     C_R   0.820190 0.484998 0.222614 -0.176992
C95   C     C_R   0.180940 0.525725 0.777613 -0.167992
C96   C     C_R   0.440660 0.821614 0.219673 -0.213865
C97   C     C_R   0.608408 0.161265 0.805016 -0.210865
C98   C     C_R   0.154927 0.781348 0.470692 -0.161856
C99   C     C_R   0.877316 0.345525 0.836633 -0.117727
C100  C     C_R   0.841683 0.223002 0.526150 -0.171071
C101  C     C_R   0.771606 0.550683 0.166540 -0.185723
C102  C     C_R   0.230414 0.464841 0.833952 -0.184164
C103  C     C_R   0.478184 0.776168 0.160572 -0.167427
C104  C     C_R   0.530960 0.217948 0.846360 -0.150940
C105  C     C_R   0.070510 0.817845 0.524020 -0.161319
C106  C     C_R   0.931336 0.182089 0.486894 -0.168784
C107  C     C_R   0.813174 0.573580 0.075094 -0.163254
C108  C     C_R   0.188031 0.437348 0.925152 -0.158594
C109  C     C_R   0.515230 0.817220 0.070287 -0.153215
C110  C     C_R   0.610995 0.189533 0.211414 -0.084419
C111  C     C_R   0.474732 0.182486 0.929146 -0.150155
C112  C     C_R   0.031937 0.910789 0.507686 0.034216
C113  C     C_R   0.964282 0.092435 0.490901 0.032719
C114  C     C_R   0.906223 0.534778 0.037440 0.023748
C115  C     C_R   0.094026 0.469285 0.962485 0.028214
C116  C     C_R   0.510737 0.907074 0.036588 0.038573
C117  C     C_R   0.491694 0.089365 0.968236 0.032846
C118  C     C_R   0.083112 0.966066 0.440664 0.047327
C119  C     C_R   0.905310 0.042407 0.540554 0.045001
C120  C     C_R   0.957543 0.472737 0.094389 0.025529
H1    H     H_    0.817563 0.292074 0.520968 0.156906
H2    H     H_    0.338038 0.562953 0.022264 0.170038
H3    H     H_    0.436418 0.971168 0.662679 0.176226
H4    H     H_    0.562308 0.020990 0.338840 0.164949
H5    H     H_    0.259445 0.808529 0.348623 0.135564
H6    H     H_    0.711773 0.212245 0.591599 0.134533
H7    H     H_    0.785636 0.463343 0.293514 0.152940
H8    H     H_    0.215310 0.548806 0.706806 0.144208
H9    H     H_    0.419002 0.786292 0.290361 0.136238
H10   H     H_    0.657461 0.189143 0.747143 0.137919
H11   H     H_    0.035344 0.772764 0.577529 0.129035
H12   H     H_    0.183173 0.710077 0.483959 0.146422
H13   H     H_    0.973505 0.222959 0.450842 0.145424
H14   H     H_    0.771395 0.623064 0.034430 0.125442
H15   H     H_    0.230244 0.390775 0.965948 0.121112
H16   H     H_    0.549605 0.776650 0.028081 0.139012
H17   H     H_    0.419029 0.228429 0.962814 0.116299
H18   H     H_    0.040232 0.696431 0.063091 0.135590
H19   H     H_    0.931764 0.284109 0.942120 0.135926
H20   H     H_    0.690280 0.060870 0.194917 0.130302
H21   H     H_    0.294362 0.927616 0.784548 0.140730
H22   H     H_    0.059424 0.141732 0.726668 0.140438
H23   H     H_    0.302333 0.439995 0.806910 0.144697
H24   H     H_    0.912147 0.776801 0.280238 0.150833
H25   H     H_    0.134905 0.704742 0.118053 0.137410
H26   H     H_    0.815323 0.332135 0.880187 0.131863
H27   H     H_    0.597435 0.164454 0.282345 0.147274
H28   H     H_    0.396647 0.818919 0.703839 0.140986
H29   H     H_    0.159480 0.212852 0.700311 0.147855
H30   H     H_    0.794064 0.707105 0.377738 0.146513
H31   H     H_    0.120318 0.634253 0.277344 0.142101
H32   H     H_    0.839861 0.410988 0.719412 0.131210
H33   H     H_    0.534520 0.324463 0.208880 0.117818
H34   H     H_    0.700588 0.581632 0.193968 0.148492
H35   H     H_    0.472722 0.664376 0.782772 0.117364
H36   H     H_    0.318877 0.164616 0.613803 0.141962
H37   H     H_    0.647583 0.788975 0.462672 0.126095
H38   H     H_    0.929857 0.618658 0.167155 0.142257
H39   H     H_    0.074107 0.312799 0.843365 0.144911
H40   H     H_    0.716522 0.117825 0.033760 0.132559
H41   H     H_    0.268626 0.882581 0.944079 0.134498
H42   H     H_    0.119132 0.019012 0.669411 0.136508
H43   H     H_    0.885676 0.926614 0.270381 0.135805
H44   H     H_    0.258138 0.955181 0.253389 0.218992
H45   H     H_    0.518202 0.289135 0.817733 0.148362
H46   H     H_    0.067283 0.056362 0.268941 0.239681
H47   H     H_    0.134043 0.962144 0.228792 0.214008
H48   H     H_    0.162389 0.063085 0.169146 0.240992
H49   H     H_    0.690745 0.068740 0.656598 0.208878
H50   H     H_    0.672548 0.025154 0.566536 0.228667
H51   H     H_    0.781180 0.029251 0.487552 0.266344
H52   H     H_    0.691049 0.130861 0.503125 0.234327
H53   H     H_    0.935184 0.368571 0.307846 0.214834
H54   H     H_    0.979162 0.225864 0.300324 0.245872
H55   H     H_    0.973369 0.276691 0.189784 0.251764
H56   H     H_    0.483065 0.707104 0.185357 0.149969
H57   H     H_    0.872712 0.291055 0.284635 0.229827
H58   H     H_    0.063813 0.680702 0.715054 0.218015
H59   H     H_    0.988014 0.650082 0.660117 0.217423
H60   H     H_    0.013769 0.537807 0.734234 0.271101
H61   H     H_    0.102868 0.578938 0.642980 0.227578
H62   H     H_    0.361497 0.929226 0.311210 0.212846
H63   H     H_    0.460993 0.969331 0.319259 0.236959
H64   H     H_    0.531759 0.968936 0.207647 0.253754
H65   H     H_    0.520892 0.865613 0.297076 0.227368
H66   H     H_    0.754697 0.042224 0.753302 0.220300
H67   H     H_    0.932057 0.662212 0.435783 0.181230
H68   H     H_    0.829359 0.931078 0.856082 0.236562
H69   H     H_    0.724838 0.936998 0.945537 0.242236
H70   H     H_    0.765763 0.030336 0.887479 0.211713
H71   H     H_    0.066719 0.336203 0.564842 0.176791
H72   H     H_    0.662676 0.436456 0.972608 0.166464
N1    N     N_2   0.193095 0.983861 0.287459 -0.283395
N2    N     N_1   0.328172 0.702943 0.123289 -0.218700
N3    N     N_1   0.314366 0.890622 0.550702 -0.226483
N4    N     N_1   0.726682 0.103732 0.344317 -0.231895
N5    N     N_2   0.746526 0.048724 0.606238 -0.336321
N6    N     N_2   0.953634 0.363941 0.246763 -0.321939
N7    N     N_2   0.041963 0.626502 0.750514 -0.324568
N8    N     N_2   0.409973 0.949042 0.252641 -0.327002
N9    N     N_2   0.716476 0.013421 0.815903 -0.279449
N10   N     N_1   0.844383 0.500752 0.390875 -0.246331
N11   N     N_1   0.190825 0.405048 0.622116 -0.217106
N12   N     N_1   0.662837 0.310397 0.860096 -0.224341
O1    O     O_3   0.250000 0.250000 0.250000 -0.486263
O2    O     O_R   0.865800 0.694910 0.573470 -0.641067
O3    O     O_R   0.305090 0.426530 0.134200 -0.644569
O4    O     O_R   0.694910 0.573470 0.865800 -0.647638
O5    O     O_R   0.426530 0.134200 0.305090 -0.645572
O6    O     O_R   0.573470 0.865800 0.694910 -0.638632
O7    O     O_R   0.134190 0.426530 0.134200 -0.637749
O8    O     O_R   0.865810 0.573470 0.865800 -0.632911
O9    O     O_R   0.426530 0.134200 0.134190 -0.627223
O10   O     O_R   0.573470 0.865800 0.865810 -0.642382
O11   O     O_R   0.134200 0.134190 0.426530 -0.641472
O12   O     O_3   0.750000 0.750000 0.750000 -0.484238
O13   O     O_R   0.865800 0.865810 0.573470 -0.634536
O14   O     O_R   0.426530 0.305080 0.134210 -0.634728
O15   O     O_R   0.573470 0.694920 0.865790 -0.636169
O16   O     O_R   0.305080 0.134210 0.426530 -0.632218
O17   O     O_R   0.694920 0.865790 0.573470 -0.636394
O18   O     O_R   0.134210 0.426530 0.305080 -0.631930
O19   O     O_R   0.865790 0.573470 0.694920 -0.641193
O20   O     O_R   0.305080 0.134200 0.134200 -0.648223
O21   O     O_R   0.694920 0.865800 0.865800 -0.617183
O22   O     O_R   0.134200 0.134200 0.305080 -0.619729
O23   O     O_R   0.865800 0.865800 0.694920 -0.637386
O24   O     O_R   0.134200 0.305080 0.134200 -0.634502
O25   O     O_R   0.865800 0.694920 0.865800 -0.641514
O26   O     O_R   0.134200 0.305090 0.426530 -0.645389
Zn1   Zn    Zn3+2 0.206620 0.206630 0.380140 0.979346
Zn2   Zn    Zn3+2 0.793380 0.793370 0.619860 0.972227
Zn3   Zn    Zn3+2 0.206630 0.380140 0.206620 0.975042
Zn4   Zn    Zn3+2 0.793370 0.619860 0.793380 0.961442
Zn5   Zn    Zn3+2 0.380140 0.206620 0.206630 0.972703
Zn6   Zn    Zn3+2 0.619860 0.793380 0.793370 0.970870
Zn7   Zn    Zn3+2 0.206620 0.206620 0.206620 0.964076
Zn8   Zn    Zn3+2 0.793380 0.793380 0.793380 0.970162

loop_
_geom_bond_atom_site_label_1
_geom_bond_atom_site_label_2
_ccdc_geom_bond_type
C101  C107  A    
C40   C47   A    
C80   O2    A    
H58   N7    S    
C18   H69   S    
C26   C32   A    
C27   H32   S    
C25   C45   S    
C50   H42   S    
C44   O11   A    
O12   Zn4   S    
C12   N1    S    
C36   C42   A    
C1    C11   S    
C6    C55   S    
C14   H50   S    
C92   H5    S    
C12   H47   S    
C82   O4    A    
C92   C98   A    
C105  H11   S    
C38   C76   S    
C94   H7    S    
C53   C99   A    
C48   C54   A    
C48   H40   S    
C29   C36   A    
C35   C75   S    
C98   C105  A    
C57   H22   S    
C1    O20   A    
O11   Zn1   S    
C108  C115  A    
C26   H31   S    
O19   Zn4   S    
C23   N3    T    
O14   Zn5   S    
C107  H14   S    
C33   O21   A    
C84   O17   A    
C22   N2    T    
O13   Zn2   S    
C12   H46   S    
C20   C40   S    
C84   O6    A    
C64   C71   A    
C13   C57   A    
C45   C51   A    
C68   C74   A    
C46   H38   S    
C87   C94   A    
C46   C52   A    
C23   C43   S    
C54   C110  A    
C17   N8    S    
C100  H1    S    
C32   C39   A    
C55   O23   A    
O18   Zn3   S    
C93   H6    S    
C38   C45   A    
C77   O8    A    
C104  H45   S    
C9    C66   S    
C95   H8    S    
C106  H13   S    
C54   H20   S    
C82   O15   A    
C28   C35   A    
C17   H65   S    
C22   C42   S    
C61   H72   S    
C52   H18   S    
C88   H25   S    
C94   C101  A    
C51   H43   S    
C86   C119  A    
C67   C73   A    
O6    Zn6   S    
C10   C33   S    
C70   C84   S    
O20   Zn7   S    
C59   C73   A    
C49   H41   S    
C109  C116  A    
C95   C102  A    
C8    C114  A    
C47   C53   A    
C30   H36   S    
C103  C109  A    
C24   C58   A    
C65   C80   S    
C113  C119  A    
C109  H16   S    
O21   Zn8   S    
C7    C118  A    
C85   C118  A    
C18   H70   S    
C85   C92   A    
C4    C116  A    
C4    C90   A    
C27   C34   A    
C89   N7    S    
C14   N5    S    
C106  C113  A    
O2    Zn2   S    
C9    C115  A    
C69   C81   S    
C13   C30   A    
O1    Zn5   S    
H62   N8    S    
C60   C67   A    
C108  H15   S    
C55   O13   A    
C3    C8    A    
C16   H59   S    
C32   C73   S    
C15   N6    S    
H44   N1    S    
C47   H39   S    
C59   H67   S    
C42   C49   A    
C28   C110  A    
C64   H4    S    
O23   Zn8   S    
C19   N10   T    
C61   C75   A    
O7    Zn3   S    
C30   C37   A    
C5    C117  A    
C91   N9    S    
C89   C95   A    
O1    Zn7   S    
O5    Zn5   S    
C107  C114  A    
C12   H48   S    
C86   C93   A    
C112  C118  A    
C17   H63   S    
O8    Zn4   S    
C63   C70   A    
C52   C88   A    
C24   H30   S    
C27   C99   A    
C3    C89   A    
C64   C76   A    
C67   C79   S    
C51   C58   A    
C31   H37   S    
C7    C44   S    
C91   C97   A    
C4    C11   A    
C102  C108  A    
C16   N7    S    
C93   C100  A    
C83   O5    A    
C25   N4    T    
C19   C39   S    
C2    C56   A    
C39   C46   A    
C21   C41   S    
C56   H21   S    
C62   C69   A    
C14   H52   S    
C99   H26   S    
C15   H57   S    
C1    O9    A    
C28   H33   S    
O12   Zn6   S    
C34   C40   A    
C37   C43   A    
O1    Zn1   S    
C2    C29   A    
C102  H23   S    
C66   O24   A    
C110  H27   S    
C11   C117  A    
C34   C72   S    
C6    C119  A    
C62   H2    S    
C10   C116  A    
C111  H17   S    
C79   O18   A    
H49   N5    S    
C114  C120  A    
C36   C74   S    
C15   H54   S    
H53   N6    S    
C16   H61   S    
C50   C57   A    
C6    C112  A    
O15   Zn6   S    
C105  C112  A    
O10   Zn6   S    
C81   O3    A    
C20   N11   T    
C14   H51   S    
C97   H10   S    
C104  C111  A    
C63   H3    S    
C33   O10   A    
O16   Zn1   S    
C43   C50   A    
C90   C96   A    
C15   H55   S    
C100  C106  A    
C65   C72   A    
C37   C78   S    
C77   O25   A    
C31   C38   A    
C29   H35   S    
C111  C117  A    
C68   C82   S    
C7    C113  A    
O1    Zn3   S    
C66   O7    A    
C24   C31   A    
O12   Zn8   S    
C5    C10   A    
C49   C56   A    
C3    C115  A    
C59   C65   A    
C80   O19   A    
C70   C76   A    
C83   O16   A    
C61   C68   A    
C85   N1    S    
C8    C77   S    
C79   O26   A    
C101  H34   S    
C60   H71   S    
C17   H64   S    
C81   O14   A    
O17   Zn2   S    
C18   H68   S    
C103  H56   S    
O12   Zn2   S    
C41   C48   A    
C69   C75   A    
C18   N9    S    
O3    Zn3   S    
O26   Zn1   S    
C35   C41   A    
H66   N9    S    
C97   C104  A    
C53   H19   S    
C86   N5    S    
C13   H29   S    
C26   C88   A    
C58   H24   S    
O24   Zn7   S    
C90   N8    S    
C5    C91   A    
C21   N12   T    
C96   C103  A    
C98   H12   S    
C2    H28   S    
O22   Zn7   S    
C9    C120  A    
C60   C72   A    
C62   C74   A    
C71   C83   S    
C87   N6    S    
O25   Zn8   S    
O9    Zn5   S    
O4    Zn4   S    
C44   O22   A    
C71   C78   A    
C87   C120  A    
C16   H60   S    
C96   H9    S    
C63   C78   A    
