data_mof_unit_50742.cif
_audit_creation_date              2012-12-10T17:39:20-0500
_audit_creation_method            fapswitch 2.2
_symmetry_space_group_name_H-M    P1
_symmetry_Int_Tables_number       1
_space_group_crystal_system       triclinic
_cell_length_a                    12.431187
_cell_length_b                    13.196739
_cell_length_c                    27.702466
_cell_angle_alpha                 75.566462
_cell_angle_beta                  101.913716
_cell_angle_gamma                 117.009886
_cell_volume                      3898.17300651

loop_
_atom_site_label
_atom_site_type_symbol
_atom_type_description
_atom_site_fract_x
_atom_site_fract_y
_atom_site_fract_z
_atom_type_partial_charge
C1    C     C_R   0.855811 0.287933 0.500451 0.852764
C2    C     C_R   0.914853 0.449892 0.721166 0.328260
C3    C     C_R   0.022493 0.525910 0.745123 0.221963
C4    C     C_R   0.042669 0.543043 0.897154 -0.094689
C5    C     C_R   0.121956 0.508684 0.882480 -0.163661
C6    C     C_R   0.209802 0.485226 0.919151 0.246104
C7    C     C_R   0.960120 0.574132 0.860768 -0.050601
C8    C     C_R   0.010721 0.512320 0.644457 -0.142915
C9    C     C_R   0.001876 0.504678 0.354868 -0.074290
C10   C     C_R   0.106364 0.490526 0.036651 0.088955
C11   C     C_R   0.980282 0.597881 0.012274 -0.062529
C12   C     C_R   0.002628 0.502904 0.592126 0.881559
C13   C     C_R   0.040864 0.541841 0.049870 0.015072
C14   C     C_R   0.151854 0.422680 0.075180 -0.158592
C15   C     C_R   0.143918 0.415850 0.125376 -0.169223
C16   C     C_R   0.088359 0.474825 0.138795 0.006237
C17   C     C_R   0.036561 0.537896 0.101011 -0.058135
C18   C     C_R   0.980347 0.596989 0.114316 -0.101278
C19   C     C_R   0.972481 0.588029 0.165154 0.582748
C20   C     C_R   0.082029 0.471142 0.189250 0.549912
C21   C     C_R   0.964026 0.410146 0.284596 -0.215245
C22   C     C_R   0.960935 0.401660 0.336293 0.423306
C23   C     C_R   0.145170 0.713885 0.493697 0.820397
C24   C     C_R   0.050741 0.612429 0.323747 -0.256027
C25   C     C_R   0.059276 0.619359 0.273680 -0.085505
C26   C     C_R   0.015085 0.518481 0.253609 0.280251
C27   C     C_R   0.121391 0.506789 0.985320 -0.104644
C28   C     C_R   0.043891 0.544654 0.948237 -0.021252
C29   C     C_R   0.965445 0.581832 0.962146 0.001374
C30   C     C_R   0.212343 0.488966 0.969604 0.353231
C31   C     C_R   0.874537 0.598246 0.875602 -0.173373
C32   C     C_R   0.942964 0.672593 0.026250 0.462445
C33   C     C_R   0.937215 0.666817 0.076734 -0.211805
C34   C     C_R   0.000321 0.501218 0.407756 0.889305
C35   C     C_R   0.872226 0.596080 0.925812 0.310614
C36   C     C_R   0.272900 0.034500 0.446609 -0.166128
C37   C     C_R   0.229055 0.837013 0.486115 -0.041804
C38   C     C_R   0.818943 0.082596 0.521048 -0.213765
C39   C     C_R   0.740797 0.966141 0.529439 -0.134286
C40   C     C_R   0.616527 0.930574 0.516936 -0.135346
C41   C     C_R   0.567955 0.011082 0.492394 0.033987
C42   C     C_R   0.650323 0.127604 0.476379 0.000659
C43   C     C_R   0.440492 0.979659 0.482802 0.062150
C44   C     C_R   0.397769 0.062944 0.455653 0.103756
C45   C     C_R   0.109992 0.500168 0.831469 0.624859
C46   C     C_R   0.479251 0.171365 0.434664 -0.280326
C47   C     C_R   0.603069 0.201219 0.442049 0.253980
C48   C     C_R   0.353635 0.867806 0.499059 -0.184713
C49   C     C_R   0.188840 0.921875 0.461616 -0.165650
C50   C     C_R   0.774934 0.165386 0.496755 -0.070359
C51   C     C_R   0.371480 0.376913 0.593636 -0.243748
C52   C     C_R   0.750079 0.636651 0.427811 0.352061
C53   C     C_R   0.640585 0.642233 0.405902 0.143404
C54   C     C_R   0.536223 0.576750 0.430161 0.360161
C55   C     C_R   0.544823 0.522411 0.480779 -0.235213
C56   C     C_R   0.959430 0.573357 0.810302 0.627315
C57   C     C_R   0.653794 0.505494 0.499865 0.072389
C58   C     C_R   0.447252 0.478225 0.511996 0.009304
C59   C     C_R   0.464164 0.425892 0.562247 0.077636
C60   C     C_R   0.571007 0.416080 0.580633 -0.331306
C61   C     C_R   0.650293 0.430618 0.547948 0.501439
C62   C     C_R   0.335985 0.489343 0.497444 0.061334
C63   C     C_R   0.261144 0.380770 0.575354 0.100042
C64   C     C_R   0.123690 0.594468 0.718391 -0.154370
C65   C     C_R   0.119095 0.587156 0.668540 0.228317
C66   C     C_R   0.908871 0.445881 0.670822 -0.296337
Cu1   Cu    Cu3+1 0.098270 0.475420 0.511360 0.973715
Cu2   Cu    Cu3+1 0.901730 0.524580 0.488640 1.047802
H1    H     H_    0.825314 0.388588 0.652715 0.211795
H2    H     H_    0.206446 0.653390 0.736638 0.190768
H3    H     H_    0.803477 0.611339 0.848496 0.223099
H4    H     H_    0.084645 0.691315 0.338608 0.183514
H5    H     H_    0.902502 0.720432 0.086264 0.205027
H6    H     H_    0.100350 0.703428 0.250396 0.173189
H7    H     H_    0.093014 0.900538 0.452245 0.186803
H8    H     H_    0.445824 0.230758 0.409528 0.163166
H9    H     H_    0.240204 0.098373 0.426096 0.136654
H10   H     H_    0.380388 0.801637 0.520842 0.173093
H11   H     H_    0.913703 0.107975 0.535417 0.164456
H12   H     H_    0.561628 0.839170 0.526491 0.140592
H13   H     H_    0.776151 0.903300 0.548173 0.157809
H14   H     H_    0.189336 0.343637 0.599468 0.139556
H15   H     H_    0.583577 0.377470 0.619625 0.180322
H16   H     H_    0.383660 0.334180 0.631855 0.161929
H17   H     H_    0.320335 0.542897 0.463221 0.196612
H18   H     H_    0.927723 0.333898 0.267767 0.147635
H19   H     H_    0.180928 0.363415 0.153628 0.194654
H20   H     H_    0.189563 0.370062 0.067265 0.208126
N1    N     N_R   0.030758 0.533367 0.796822 -0.455307
N2    N     N_R   0.023104 0.525865 0.201596 -0.451386
N3    N     N_R   0.246290 0.438210 0.528570 -0.209345
N4    N     N_R   0.754320 0.561170 0.471730 -0.226696
O1    O     O_R   0.972510 0.318140 0.514280 -0.600846
O2    O     O_2   0.135517 0.414294 0.225671 -0.561330
O3    O     O_2   0.887087 0.611325 0.774869 -0.503456
O4    O     O_2   0.913262 0.639825 0.177975 -0.519665
O5    O     O_R   0.806530 0.359640 0.495100 -0.514441
O6    O     O_R   0.082990 0.479270 0.579320 -0.569157
O7    O     O_R   0.917010 0.520770 0.560140 -0.526707
O8    O     O_R   0.193470 0.640360 0.504900 -0.580546
O9    O     O_R   0.027490 0.681860 0.485720 -0.561808
O10   O     O_R   0.082990 0.479230 0.439860 -0.605255
O11   O     O_R   0.917010 0.520730 0.420680 -0.508276
O12   O     O_2   0.174157 0.456775 0.816316 -0.462450
O13   O     O_3   0.917769 0.756399 0.991396 -0.548172
C67   C     C_3   0.028391 0.851717 0.979401 0.035409
H21   H     H_    0.085726 0.826264 0.963340 0.141813
H22   H     H_    0.079963 0.890233 0.013249 0.150632
C68   C     C_3   0.001385 0.943398 0.940390 -0.662666
H23   H     H_    0.951187 0.907670 0.905932 0.257905
H24   H     H_    0.087707 0.019106 0.930697 0.212263
H25   H     H_    0.945526 0.972046 0.955390 0.253411
Br1   Br    Br    0.720876 0.579077 0.942386 -0.403885
Br2   Br    Br    0.776277 0.345805 0.756331 -0.449087
Br3   Br    Br    0.691728 0.324529 0.392348 -0.459719
Br4   Br    Br    0.890759 0.735053 0.392674 -0.463097
Br5   Br    Br    0.335926 0.454372 0.903784 -0.316254
O14   O     O_3   0.425898 0.561426 0.402409 -0.568266
C69   C     C_3   0.381144 0.458623 0.382890 0.076144
H26   H     H_    0.371397 0.382727 0.413442 0.122413
H27   H     H_    0.442340 0.466555 0.356529 0.195142
C70   C     C_3   0.256738 0.436154 0.354340 -0.717237
H28   H     H_    0.261215 0.512153 0.324921 0.280369
H29   H     H_    0.224105 0.359525 0.336315 0.213861
H30   H     H_    0.192133 0.419079 0.380793 0.238913
Br6   Br    Br    0.627638 0.734018 0.340709 -0.390943
O15   O     O_3   0.717795 0.366835 0.563925 -0.554503
C71   C     C_3   0.642308 0.245933 0.575280 0.036747
H31   H     H_    0.603355 0.211891 0.540038 0.160491
H32   H     H_    0.563870 0.222048 0.595758 0.143366
C72   C     C_3   0.716134 0.182998 0.607987 -0.766102
H33   H     H_    0.724303 0.190043 0.647804 0.246297
H34   H     H_    0.669631 0.089963 0.605083 0.230873
H35   H     H_    0.808797 0.220139 0.596580 0.238501
O16   O     O_3   0.914699 0.297295 0.369814 -0.573575
C73   C     C_3   0.917494 0.203763 0.354900 0.073468
H36   H     H_    0.006730 0.228074 0.342171 0.141990
H37   H     H_    0.842749 0.172186 0.324739 0.180028
C74   C     C_3   0.897715 0.104932 0.399400 -0.718881
H38   H     H_    0.807128 0.075167 0.411888 0.269469
H39   H     H_    0.901961 0.031449 0.388495 0.227280
H40   H     H_    0.969125 0.133964 0.430899 0.234326
O17   O     O_3   0.308384 0.479370 0.002862 -0.566780
C75   C     C_3   0.396865 0.591348 0.009134 0.070989
H41   H     H_    0.360065 0.635690 0.026076 0.137024
H42   H     H_    0.429692 0.644962 0.972606 0.178591
C76   C     C_3   0.504786 0.581660 0.044125 -0.643919
H43   H     H_    0.544327 0.538530 0.028078 0.286230
H44   H     H_    0.575445 0.669192 0.049139 0.205486
H45   H     H_    0.475376 0.530421 0.081273 0.238311
Br7   Br    Br    0.261122 0.685165 0.634438 -0.508479

loop_
_geom_bond_atom_site_label_1
_geom_bond_atom_site_label_2
_ccdc_geom_bond_type
C10   C27   A    
C58   C62   A    
C56   O3    S    
C21   C26   A    
C8    C66   A    
C57   N4    A    
C74   H39   S    
C41   C42   A    
C76   H43   S    
Cu2   O11   S    
C72   H35   S    
C71   H31   S    
C46   H8    S    
O16   C73   S    
C23   O9    A    
C53   C54   A    
C47   Br3   S    
C34   O10   A    
C28   C29   A    
C76   H44   S    
C25   H6    S    
C36   H9    S    
C75   C76   S    
C5    C6    A    
C60   H15   S    
C9    C22   A    
C66   H1    S    
C38   H11   S    
O17   C75   S    
C11   C13   A    
C18   C19   A    
C46   C47   A    
C48   H10   S    
O14   C69   S    
C12   O7    A    
Cu1   O6    S    
Cu2   N4    S    
Cu2   O5    S    
C16   C17   A    
C49   H7    S    
C40   H12   S    
C64   H2    S    
C45   N1    A    
C43   C48   A    
C6    Br5   S    
C12   O6    A    
C8    C12   S    
C31   H3    S    
C23   O8    A    
C59   C60   A    
C5    C45   A    
C21   C22   A    
C27   C30   A    
C41   C43   A    
C7    C56   A    
C4    C7    A    
C4    C28   A    
C44   C46   A    
C52   Br4   S    
C62   H17   S    
C7    C31   A    
C15   C16   A    
C63   H14   S    
Cu1   Cu2   S    
C76   H45   S    
C51   C63   A    
C24   C25   A    
C39   H13   S    
C75   H42   S    
C10   C14   A    
C68   H25   S    
C1    O5    A    
C39   C40   A    
C73   H36   S    
C72   H34   S    
C58   C59   A    
C23   C37   S    
C20   N2    A    
C30   O17   S    
C60   C61   A    
C73   C74   S    
C65   Br7   S    
C43   C44   A    
C45   O12   S    
C37   C49   A    
C16   C20   A    
C62   N3    A    
Cu1   N3    S    
C17   C18   A    
C61   O15   S    
C55   C57   A    
Cu2   O9    S    
C37   C48   A    
C69   H27   S    
Cu1   O8    S    
C42   C50   A    
C73   H37   S    
C40   C41   A    
C6    C30   A    
C11   C32   A    
C32   O13   S    
C54   O14   S    
C9    C34   S    
C31   C35   A    
C36   C44   A    
C51   C59   A    
C70   H29   S    
C72   H33   S    
C71   C72   S    
C52   C53   A    
C24   H4    S    
C15   H19   S    
C1    C50   S    
C69   C70   S    
C33   H5    S    
C20   O2    S    
C54   C55   A    
C56   N1    A    
C75   H41   S    
C2    C66   A    
C10   C13   A    
C71   H32   S    
C21   H18   S    
C74   H38   S    
C9    C24   A    
C57   C61   A    
C38   C50   A    
C26   N2    S    
O13   C67   S    
C29   C35   A    
C34   O11   A    
C13   C17   A    
C22   O16   S    
C3    N1    S    
C32   C33   A    
C70   H30   S    
C68   H24   S    
C2    C3    A    
C25   C26   A    
Cu2   O7    S    
C14   H20   S    
C19   N2    A    
C68   H23   S    
C64   C65   A    
C2    Br2   S    
C38   C39   A    
C67   H22   S    
C4    C5    A    
C74   H40   S    
C35   Br1   S    
C42   C47   A    
C3    C64   A    
C18   C33   A    
C52   N4    A    
C53   Br6   S    
C36   C49   A    
C8    C65   A    
C11   C29   A    
C1    O1    A    
C69   H26   S    
C67   H21   S    
C55   C58   A    
C63   N3    A    
C27   C28   A    
Cu1   O1    S    
C14   C15   A    
C70   H28   S    
C51   H16   S    
C19   O4    S    
O15   C71   S    
Cu1   O10   S    
C67   C68   S    
