data_mof_unit_12235.cif
_audit_creation_date              2012-12-10T16:50:06-0500
_audit_creation_method            fapswitch 2.2
_symmetry_space_group_name_H-M    P1
_symmetry_Int_Tables_number       1
_space_group_crystal_system       triclinic
_cell_length_a                    23.582407
_cell_length_b                    8.717821
_cell_length_c                    7.415572
_cell_angle_alpha                 102.743023
_cell_angle_beta                  94.10781
_cell_angle_gamma                 92.364611
_cell_volume                      1480.62262356

loop_
_atom_site_label
_atom_site_type_symbol
_atom_type_description
_atom_site_fract_x
_atom_site_fract_y
_atom_site_fract_z
_atom_type_partial_charge
C1    C     C_R   0.497521 0.200132 0.454625 0.883761
C2    C     C_R   0.502479 0.799868 0.545375 0.883761
C3    C     C_R   0.241393 0.556976 0.662710 -0.134531
C4    C     C_R   0.758607 0.443026 0.337290 -0.134531
C5    C     C_R   0.300889 0.556394 0.673131 0.093155
C6    C     C_R   0.699111 0.443607 0.326868 0.093156
C7    C     C_R   0.328252 0.505442 0.507401 -0.073566
C8    C     C_R   0.671748 0.494558 0.492599 -0.073566
C9    C     C_R   0.294824 0.459878 0.337191 -0.233154
C10   C     C_R   0.705176 0.540121 0.662809 -0.233155
C11   C     C_R   0.235582 0.463262 0.327894 0.205315
C12   C     C_R   0.764418 0.536738 0.672106 0.205315
C13   C     C_R   0.208644 0.509563 0.493099 0.325348
C14   C     C_R   0.791356 0.490438 0.506900 0.325349
C15   C     C_2   0.488040 0.034825 0.435372 0.006114
C16   C     C_2   0.511960 0.965175 0.564628 0.006114
C17   C     C_R   0.390916 0.501917 0.503218 0.821242
C18   C     C_R   0.609084 0.498083 0.496782 0.821243
C19   C     C_R   0.882799 0.636326 0.554374 0.539172
C20   C     C_R   0.117201 0.363676 0.445625 0.539172
C21   C     C_R   0.878197 0.356019 0.455233 0.537562
C22   C     C_R   0.121802 0.643982 0.544766 0.537562
C23   C     C_R   0.937257 0.356631 0.447113 -0.046934
C24   C     C_R   0.062743 0.643370 0.552886 -0.046934
C25   C     C_R   0.970067 0.500192 0.501909 -0.052448
C26   C     C_R   0.029933 0.499809 0.498090 -0.052448
C27   C     C_R   0.943041 0.643574 0.560101 -0.027842
C28   C     C_R   0.056958 0.356427 0.439898 -0.027842
C29   C     C_R   0.963605 0.216113 0.383936 -0.171555
C30   C     C_R   0.036395 0.783889 0.616063 -0.171555
C31   C     C_R   0.022698 0.213179 0.378414 0.137957
C32   C     C_R   0.977302 0.786822 0.621584 0.137957
Cu1   Cu    Cu3+1 0.506340 0.517380 0.684380 1.014411
Cu2   Cu    Cu3+1 0.493660 0.482620 0.315620 1.014411
H1    H     H_    0.937767 0.107019 0.336209 0.186616
H2    H     H_    0.062233 0.892982 0.663790 0.186616
H3    H     H_    0.219729 0.595059 0.787271 0.147919
H4    H     H_    0.780271 0.404943 0.212728 0.147919
H5    H     H_    0.314837 0.421945 0.208922 0.179027
H6    H     H_    0.685163 0.578052 0.791078 0.179027
H7    H     H_    0.455395 0.379047 0.948374 0.235099
H8    H     H_    0.544605 0.620953 0.051626 0.235099
N1    N     N_R   0.852342 0.494164 0.507683 -0.463515
N2    N     N_R   0.147658 0.505837 0.492317 -0.463515
N3    N     N_2   0.484110 0.456420 0.038520 -0.191683
N4    N     N_2   0.515890 0.543580 0.961480 -0.191683
O1    O     O_R   0.504120 0.286130 0.619770 -0.566141
O2    O     O_R   0.495880 0.713870 0.380230 -0.566141
O3    O     O_R   0.493410 0.256770 0.308360 -0.545291
O4    O     O_R   0.506590 0.743230 0.691640 -0.545291
O5    O     O_R   0.423230 0.514630 0.655730 -0.596424
O6    O     O_R   0.576770 0.485370 0.344270 -0.596424
O7    O     O_R   0.412530 0.485280 0.344320 -0.578025
O8    O     O_R   0.587470 0.514720 0.655680 -0.578025
O9    O     O_2   0.854271 0.768878 0.593132 -0.522456
O10   O     O_2   0.145729 0.231124 0.406868 -0.522457
O11   O     O_2   0.846618 0.218175 0.411261 -0.526659
O12   O     O_2   0.153382 0.781826 0.588738 -0.526659
C33   C     C_3   0.046528 0.056036 0.300709 -0.735564
H9    H     H_    0.012564 0.960471 0.253208 0.202718
H10   H     H_    0.070333 0.063483 0.178744 0.253544
H11   H     H_    0.074668 0.020469 0.408703 0.272269
C34   C     C_3   0.953472 0.943965 0.699290 -0.735564
H12   H     H_    0.987436 0.039531 0.746790 0.202718
H13   H     H_    0.925332 0.979532 0.591296 0.272269
H14   H     H_    0.929667 0.936518 0.821255 0.253544
C35   C     C_3   0.333117 0.612899 0.861116 -0.722085
H15   H     H_    0.363963 0.711864 0.858254 0.269896
H16   H     H_    0.304347 0.656742 0.971029 0.223532
H17   H     H_    0.355645 0.514617 0.901158 0.230498
C36   C     C_3   0.666883 0.387102 0.138883 -0.722084
H18   H     H_    0.636037 0.288137 0.141745 0.269896
H19   H     H_    0.644355 0.485384 0.098842 0.230498
H20   H     H_    0.695653 0.343259 0.028970 0.223532
C37   C     C_3   0.202982 0.419068 0.139912 -0.780356
H21   H     H_    0.206424 0.291783 0.079322 0.257736
H22   H     H_    0.157345 0.444091 0.144602 0.228760
H23   H     H_    0.221408 0.488043 0.047298 0.208644
C38   C     C_3   0.797018 0.580931 0.860088 -0.780358
H24   H     H_    0.842656 0.555913 0.855398 0.228761
H25   H     H_    0.793574 0.708213 0.920683 0.257734
H26   H     H_    0.778594 0.511949 0.952697 0.208644
Br1   Br    Br    0.431460 0.933924 0.237182 -0.492064
Br2   Br    Br    0.568540 0.066076 0.762818 -0.492064

loop_
_geom_bond_atom_site_label_1
_geom_bond_atom_site_label_2
_ccdc_geom_bond_type
C34   H13   S    
C9    H5    S    
C20   O10   S    
C17   O5    A    
C18   O6    A    
N3    N4    D    
C23   C29   A    
C24   C26   A    
C15   C16   D    
C12   C38   S    
C16   Br2   S    
C10   H6    S    
H8    N4    S    
C31   C33   S    
C2    O4    A    
C21   N1    A    
C22   N2    A    
C33   H11   S    
C1    C15   S    
C2    C16   S    
C3    C13   A    
C5    C35   S    
C34   H14   S    
C33   H9    S    
Cu1   N4    S    
C20   N2    A    
C19   N1    A    
C5    C7    A    
C6    C36   S    
C33   H10   S    
C35   H15   S    
C4    C6    A    
C38   H25   S    
C1    O1    A    
C15   Br1   S    
C20   C28   A    
C2    O2    A    
C25   C26   A    
C8    C18   S    
Cu1   O5    S    
C38   H24   S    
C35   H16   S    
C37   H21   S    
C21   O11   S    
C36   H20   S    
C9    C11   A    
Cu1   Cu2   S    
Cu2   N3    S    
C37   H22   S    
C10   C12   A    
C12   C14   A    
C21   C23   A    
Cu1   O1    S    
C22   C24   A    
Cu2   O2    S    
C17   O7    A    
C19   C27   A    
C36   H19   S    
C19   O9    S    
Cu1   O8    S    
C7    C9    A    
Cu2   O3    S    
C27   C32   A    
Cu2   O6    S    
C28   C31   A    
C32   C34   S    
C4    H4    S    
C3    C5    A    
C7    C17   S    
C22   O12   S    
C38   H26   S    
C6    C8    A    
C25   C27   A    
C29   H1    S    
C26   C28   A    
C30   H2    S    
C35   H17   S    
Cu1   O4    S    
C36   H18   S    
C29   C31   A    
C11   C37   S    
C30   C32   A    
C11   C13   A    
C23   C25   A    
C4    C14   A    
C37   H23   S    
C24   C30   A    
C18   O8    A    
C34   H12   S    
C3    H3    S    
Cu2   O7    S    
C8    C10   A    
H7    N3    S    
C1    O3    A    
C13   N2    S    
C14   N1    S    
