data_mof_unit_6031.cif
_audit_creation_date              2012-12-11T15:47:06-0500
_audit_creation_method            fapswitch 2.2
_symmetry_space_group_name_H-M    P1
_symmetry_Int_Tables_number       1
_space_group_crystal_system       triclinic
_cell_length_a                    20.134173
_cell_length_b                    7.287919
_cell_length_c                    13.666506
_cell_angle_alpha                 90.396112
_cell_angle_beta                  103.659822
_cell_angle_gamma                 89.340068
_cell_volume                      1948.50204525

loop_
_atom_site_label
_atom_site_type_symbol
_atom_type_description
_atom_site_fract_x
_atom_site_fract_y
_atom_site_fract_z
_atom_type_partial_charge
O1    O     O_R   0.449560 0.506810 0.599700 -0.532209
O2    O     O_R   0.550440 0.006810 0.400300 -0.535164
O3    O     O_R   0.587960 0.180060 0.595760 -0.542174
O4    O     O_R   0.412040 0.680060 0.404240 -0.538316
C1    C     C_R   0.614807 0.343737 0.617209 0.721059
C2    C     C_R   0.385686 0.844942 0.381461 0.713256
O5    O     O_R   0.452380 0.177430 0.611700 -0.541470
O6    O     O_R   0.547620 0.677430 0.388300 -0.536428
O7    O     O_R   0.413900 0.001890 0.416350 -0.523950
O8    O     O_R   0.586100 0.501890 0.583650 -0.520592
C3    C     C_R   0.436396 0.346830 0.636919 0.707201
C4    C     C_R   0.563901 0.844673 0.363628 0.703597
O9    O     O_3   0.487530 0.337490 0.435890 -0.370220
O10   O     O_3   0.512470 0.837490 0.564110 -0.370835
V1    V     V_3+5 0.502310 0.064660 0.511890 1.519687
V2    V     V_3+5 0.497690 0.564660 0.488110 1.532661
C5    C     C_R   0.602659 0.836978 0.110011 -0.127721
C6    C     C_R   0.391936 0.483166 0.877386 -0.125246
H1    H     H_    0.511279 0.825679 0.164163 0.136380
H2    H     H_    0.482948 0.484968 0.822740 0.148894
H3    H     H_    0.679705 0.875390 0.983583 0.181926
H4    H     H_    0.314467 0.508945 0.004906 0.167999
H5    H     H_    0.574582 0.835342 0.031851 0.142477
H6    H     H_    0.417568 0.540505 0.949687 0.131939
C7    C     C_R   0.601567 0.848850 0.285289 -0.030442
C8    C     C_R   0.398783 0.363311 0.715560 -0.043495
C9    C     C_R   0.928151 0.839578 0.309021 -0.202698
C10   C     C_R   0.072069 0.308407 0.693965 -0.206765
C11   C     C_R   0.894371 0.793536 0.382424 -0.107391
C12   C     C_R   0.105166 0.302505 0.616424 -0.105417
C13   C     C_R   0.823616 0.775219 0.359133 0.152093
C14   C     C_R   0.174941 0.335613 0.633999 0.152824
C15   C     C_R   0.784105 0.824559 0.261454 0.019957
C16   C     C_R   0.214962 0.360846 0.734806 0.016811
C17   C     C_R   0.819309 0.854505 0.182735 0.006386
C18   C     C_R   0.179728 0.377230 0.814898 -0.000901
C19   C     C_R   0.711102 0.837217 0.237827 0.087310
C20   C     C_R   0.287927 0.376392 0.759344 0.083363
C21   C     C_R   0.674358 0.842594 0.135983 0.099436
C22   C     C_R   0.321831 0.445318 0.855107 0.098798
C23   C     C_R   0.708819 0.860822 0.060492 -0.180886
C24   C     C_R   0.286832 0.466849 0.930197 -0.176407
C25   C     C_R   0.779459 0.872802 0.081703 0.085000
C26   C     C_R   0.218552 0.420125 0.914063 0.088886
C27   C     C_R   0.672973 0.857493 0.311503 -0.168284
C28   C     C_R   0.329432 0.318549 0.694724 -0.176837
C29   C     C_R   0.566522 0.834098 0.184727 -0.147035
C30   C     C_R   0.429549 0.448637 0.806266 -0.148268
C31   C     C_R   0.892363 0.860876 0.209010 -0.063264
C32   C     C_R   0.107405 0.352437 0.791547 -0.064198
H7    H     H_    0.697569 0.886365 0.388955 0.139081
H8    H     H_    0.309542 0.235656 0.629235 0.151234
H9    H     H_    0.983532 0.844469 0.329123 0.121198
H10   H     H_    0.017342 0.286267 0.676703 0.121646
H11   H     H_    0.924289 0.759616 0.456996 0.151502
H12   H     H_    0.075057 0.280446 0.540484 0.154624
C33   C     C_R   0.237526 0.953658 0.158236 -0.110166
C34   C     C_R   0.763519 0.466530 0.835222 -0.111139
H13   H     H_    0.228499 0.024780 0.087237 0.153934
H14   H     H_    0.772525 0.547276 0.903331 0.155245
C35   C     C_R   0.303233 0.954937 0.222346 0.160598
C36   C     C_R   0.697998 0.465932 0.771028 0.157095
C37   C     C_R   0.316900 0.852326 0.312144 -0.083505
C38   C     C_R   0.683734 0.349432 0.686072 -0.069128
C39   C     C_R   0.264043 0.748997 0.334773 -0.121807
C40   C     C_R   0.736127 0.233948 0.668002 -0.114045
H15   H     H_    0.273911 0.668937 0.402974 0.159324
H16   H     H_    0.726286 0.141904 0.603713 0.133543
C41   C     C_R   0.198212 0.751163 0.271284 -0.095350
C42   C     C_R   0.802029 0.238947 0.731340 -0.094687
H17   H     H_    0.158108 0.672750 0.291489 0.146842
H18   H     H_    0.841776 0.150925 0.714928 0.130296
C43   C     C_R   0.184159 0.856167 0.183144 -0.061081
C44   C     C_R   0.816501 0.357700 0.814801 -0.056446
O11   O     O_R   0.913920 0.203370 0.916260 -0.522369
O12   O     O_R   0.086080 0.703370 0.083740 -0.522181
O13   O     O_R   0.047620 0.535540 0.888290 -0.534452
O14   O     O_R   0.952380 0.035540 0.111710 -0.533432
C45   C     C_R   0.065770 0.367172 0.865458 0.726999
C46   C     C_R   0.934345 0.869307 0.135032 0.728052
O15   O     O_R   0.912040 0.532780 0.904220 -0.531223
O16   O     O_R   0.087960 0.032780 0.095780 -0.528738
O17   O     O_R   0.949550 0.708160 0.099720 -0.534100
O18   O     O_R   0.050450 0.208160 0.900280 -0.537439
C47   C     C_R   0.885775 0.364900 0.882689 0.695650
C48   C     C_R   0.114470 0.864226 0.116548 0.694167
O19   O     O_3   0.012480 0.375300 0.064060 -0.368309
O20   O     O_3   0.987520 0.875300 0.935940 -0.371939
V3    V     V_3+5 0.997690 0.648180 0.988110 1.512465
V4    V     V_3+5 0.002310 0.148180 0.011890 1.515744
I1    I     I_    0.379928 0.104806 0.175420 -0.424042
I2    I     I_    0.621937 0.634521 0.810829 -0.456351
I3    I     I_    0.788848 0.617100 0.468492 -0.477807
I4    I     I_    0.203994 0.387232 0.496405 -0.505621
I5    I     I_    0.811903 0.918747 0.947351 -0.382769
I6    I     I_    0.188940 0.406004 0.053018 -0.372445

loop_
_geom_bond_atom_site_label_1
_geom_bond_atom_site_label_2
_ccdc_geom_bond_type
C34   C36   A    
C40   H16   S    
C37   C39   A    
O12   C48   A    
C9    C11   A    
C14   I4    S    
O1    C3    A    
O2    C4    A    
C32   C45   S    
C2    O7    A    
O3    V1    S    
C21   C23   A    
H4    C24   S    
O14   V4    S    
O5    C3    A    
O13   V3    S    
C5    H5    S    
O18   V4    S    
C6    H6    S    
C45   O18   A    
O14   C46   A    
C33   H13   S    
C27   H7    S    
C34   H14   S    
C28   H8    S    
C35   C37   A    
C5    C21   A    
C33   C43   A    
C41   H17   S    
C6    C22   A    
C36   C38   A    
O11   V4    S    
O19   V4    S    
C10   C32   A    
O11   C47   A    
C39   H15   S    
C36   I2    S    
C42   C44   A    
C25   I5    S    
C13   C15   A    
C41   C43   A    
C12   C14   A    
C17   C25   A    
C7    C29   A    
C16   C18   A    
C8    C30   A    
O12   V3    S    
O15   V3    S    
C22   C24   A    
O6    V2    S    
C23   C25   A    
C24   C26   A    
C46   O17   A    
O13   C45   A    
O17   V3    S    
O4    C2    A    
C10   H10   S    
C11   H11   S    
C3    C8    S    
C13   I3    S    
C12   H12   S    
C15   C19   A    
C1    C38   S    
C14   C16   A    
C2    C37   S    
O4    V2    S    
C17   C31   A    
C26   I6    S    
O6    C4    A    
O1    V2    S    
O2    V1    S    
H2    C30   S    
H3    C23   S    
C18   C26   A    
C19   C27   A    
C7    C27   A    
C18   C32   A    
C34   C44   A    
C16   C20   A    
C5    C29   A    
O3    C1    A    
C6    C30   A    
C42   H18   S    
C9    H9    S    
C33   C35   A    
O16   V4    S    
C31   C46   S    
C4    C7    S    
C10   C12   A    
O7    V1    S    
C1    O8    A    
C19   C21   A    
O16   C48   A    
C20   C22   A    
C40   C42   A    
C39   C41   A    
O5    V1    S    
C15   C17   A    
H1    C29   S    
C44   C47   S    
C43   C48   S    
C20   C28   A    
C8    C28   A    
C9    C31   A    
O20   V3    S    
C11   C13   A    
O9    V2    S    
O10   V1    S    
O8    V2    S    
O15   C47   A    
C35   I1    S    
C38   C40   A    
