data_mof_unit_34706.cif
_audit_creation_date              2012-12-11T16:08:43-0500
_audit_creation_method            fapswitch 2.2
_symmetry_space_group_name_H-M    P1
_symmetry_Int_Tables_number       1
_space_group_crystal_system       triclinic
_cell_length_a                    12.980702
_cell_length_b                    13.277171
_cell_length_c                    27.72493
_cell_angle_alpha                 95.008895
_cell_angle_beta                  90.10926
_cell_angle_gamma                 119.338268
_cell_volume                      4144.04876478

loop_
_atom_site_label
_atom_site_type_symbol
_atom_type_description
_atom_site_fract_x
_atom_site_fract_y
_atom_site_fract_z
_atom_type_partial_charge
C1    C     C_R   0.627853 0.895181 0.427458 0.547218
C2    C     C_R   0.190082 0.751985 0.297606 0.008420
C3    C     C_R   0.177127 0.747284 0.197130 0.009850
C4    C     C_R   0.600910 0.221671 0.440462 0.545191
C5    C     C_R   0.191286 0.662482 0.218155 -0.131760
C6    C     C_R   0.195732 0.663711 0.268230 -0.133953
C7    C     C_R   0.161144 0.739602 0.147297 -0.130183
C8    C     C_R   0.127985 0.812727 0.126605 -0.006162
C9    C     C_R   0.197127 0.938720 0.356824 -0.137271
C10   C     C_R   0.178252 0.931196 0.306606 0.010894
C11   C     C_R   0.179460 0.839812 0.276899 0.060569
C12   C     C_R   0.580989 0.255405 0.219795 -0.104792
C13   C     C_R   0.163524 0.015677 0.285310 -0.134128
C14   C     C_R   0.149027 0.008893 0.234930 -0.133079
C15   C     C_R   0.152290 0.919341 0.205284 0.010369
C16   C     C_R   0.269494 0.876060 0.425450 0.546309
C17   C     C_R   0.170595 0.836156 0.226424 0.059760
C18   C     C_R   0.130359 0.906776 0.155150 -0.136431
C19   C     C_R   0.213555 0.853896 0.377007 -0.004391
C20   C     C_R   0.753689 0.935393 0.357902 -0.129255
C21   C     C_R   0.759610 0.925879 0.307984 0.012609
C22   C     C_R   0.762830 0.915372 0.207304 0.011958
C23   C     C_R   0.569580 0.239492 0.269100 -0.102875
C24   C     C_R   0.854997 0.008734 0.235702 -0.126934
C25   C     C_R   0.854321 0.013036 0.285892 -0.126077
C26   C     C_R   0.767196 0.907529 0.157405 -0.127128
C27   C     C_R   0.685735 0.805869 0.129031 -0.005655
C28   C     C_R   0.627592 0.898305 0.564646 0.546985
C29   C     C_R   0.561564 0.759662 0.352013 -0.133297
C30   C     C_R   0.568671 0.745894 0.301837 0.014387
C31   C     C_R   0.665891 0.831941 0.279660 0.062098
C32   C     C_R   0.477587 0.651545 0.273186 -0.126927
C33   C     C_R   0.482977 0.642534 0.222752 -0.126859
C34   C     C_R   0.663306 0.311767 0.302785 0.035958
C35   C     C_R   0.578082 0.729248 0.200412 0.014671
C36   C     C_R   0.668611 0.825580 0.229105 0.062329
C37   C     C_R   0.587984 0.719081 0.150200 -0.135743
C38   C     C_R   0.651142 0.857913 0.379627 -0.005097
C39   C     C_R   0.741876 0.301195 0.651346 -0.138998
C40   C     C_R   0.603301 0.227683 0.578324 0.545390
C41   C     C_R   0.755773 0.324603 0.701816 0.006489
C42   C     C_R   0.770978 0.352686 0.803703 0.005714
C43   C     C_R   0.861391 0.347315 0.777949 -0.140486
C44   C     C_R   0.853073 0.331819 0.727276 -0.140390
C45   C     C_R   0.686479 0.343358 0.203814 0.035455
C46   C     C_R   0.779311 0.371352 0.854345 -0.138478
C47   C     C_R   0.688829 0.379099 0.879187 -0.005822
C48   C     C_R   0.560736 0.313038 0.652382 -0.135184
C49   C     C_R   0.569974 0.330273 0.702521 0.001444
C50   C     C_R   0.666667 0.334033 0.727516 0.056890
C51   C     C_R   0.479652 0.335889 0.728000 -0.143679
C52   C     C_R   0.271816 0.879496 0.563438 0.546944
C53   C     C_R   0.483373 0.342169 0.778272 -0.142990
C54   C     C_R   0.579206 0.346377 0.803454 0.001213
C55   C     C_R   0.672345 0.344245 0.778238 0.056115
C56   C     C_1   0.695032 0.366746 0.153764 -0.058252
C57   C     C_R   0.585805 0.358469 0.853614 -0.133340
C58   C     C_R   0.640794 0.289007 0.626970 -0.006879
C59   C     C_1   0.222198 0.863056 0.610169 -0.012630
C60   C     C_R   0.076756 0.746712 0.718021 -0.103727
C61   C     C_R   0.061690 0.736629 0.767634 -0.103535
C62   C     C_R   0.233144 0.927677 0.786043 -0.104872
C63   C     C_R   0.248156 0.937805 0.736400 -0.104444
C64   C     C_1   0.632255 0.267345 0.394397 -0.014568
C65   C     C_R   0.170349 0.847135 0.702285 0.036051
C66   C     C_R   0.140453 0.826593 0.801755 0.036409
C67   C     C_1   0.650108 0.292663 0.353314 -0.058590
C68   C     C_1   0.123579 0.814263 0.852650 -0.058200
C69   C     C_1   0.193374 0.854175 0.651570 -0.057513
C70   C     C_1   0.100238 0.797124 0.894248 -0.014263
C71   C     C_1   0.647487 0.860948 0.609007 -0.014521
C72   C     C_R   0.692081 0.904673 0.735047 -0.104175
C73   C     C_R   0.702496 0.887870 0.783401 -0.102247
C74   C     C_R   0.679781 0.698138 0.758150 -0.106422
C75   C     C_R   0.669134 0.714945 0.709562 -0.105326
C76   C     C_R   0.769277 0.399127 0.286803 -0.106150
C77   C     C_R   0.675398 0.818494 0.697996 0.036795
C78   C     C_1   0.703487 0.394488 0.113049 -0.014340
C79   C     C_R   0.696151 0.784654 0.795132 0.036445
C80   C     C_1   0.709893 0.770184 0.845126 -0.058551
C81   C     C_1   0.661281 0.837373 0.648663 -0.057808
C82   C     C_1   0.724875 0.761826 0.887179 -0.011366
C83   C     C_R   0.065533 0.773236 0.079020 0.549725
C84   C     C_R   0.717032 0.441487 0.067310 0.548915
C85   C     C_R   0.720607 0.782868 0.081063 0.558253
C86   C     C_R   0.056481 0.766204 0.941223 0.538385
C87   C     C_R   0.710258 0.434202 0.928923 0.536829
C88   C     C_R   0.780696 0.415064 0.237429 -0.104331
C89   C     C_R   0.201045 0.756730 0.347452 -0.130280
C90   C     C_R   0.748462 0.754406 0.936895 0.563381
Cr1   Cr    Cr6+3 0.416430 0.829200 0.492370 1.021426
Cr2   Cr    Cr6+3 0.674630 0.087020 0.504170 1.021194
Cr3   Cr    Cr6+3 0.408920 0.083740 0.503490 1.021259
Cr4   Cr    Cr6+3 0.914010 0.832750 0.013970 1.016986
Cr5   Cr    Cr6+3 0.922310 0.578600 0.003000 1.017070
Cr6   Cr    Cr6+3 0.656280 0.574630 0.003870 1.021130
H1    H     H_    0.842550 0.455078 0.312420 0.112078
H2    H     H_    0.412764 0.568173 0.201256 0.103583
H3    H     H_    0.402363 0.584911 0.289771 0.099864
H4    H     H_    0.862291 0.484260 0.225558 0.119388
H5    H     H_    0.482821 0.698783 0.368904 0.122570
H6    H     H_    0.858696 0.386542 0.874030 0.128983
H7    H     H_    0.804910 0.284497 0.631642 0.127626
H8    H     H_    0.937863 0.354098 0.796978 0.113694
H9    H     H_    0.922287 0.324940 0.708032 0.113027
H10   H     H_    0.514683 0.362687 0.872477 0.137926
H11   H     H_    0.412154 0.345223 0.797477 0.113782
H12   H     H_    0.134927 0.073302 0.219177 0.101570
H13   H     H_    0.404689 0.332322 0.709015 0.113294
H14   H     H_    0.483859 0.306402 0.633676 0.135729
H15   H     H_    0.016773 0.675653 0.692053 0.113591
H16   H     H_    0.507119 0.200295 0.194297 0.114467
H17   H     H_    0.989245 0.658249 0.779404 0.117533
H18   H     H_    0.294141 0.997970 0.812047 0.114371
H19   H     H_    0.321553 0.015476 0.724625 0.120004
H20   H     H_    0.696589 0.984852 0.726540 0.117309
H21   H     H_    0.715702 0.955485 0.811645 0.116412
H22   H     H_    0.675374 0.618146 0.766848 0.121651
H23   H     H_    0.162309 0.086285 0.307587 0.104689
H24   H     H_    0.655732 0.647487 0.681222 0.113354
H25   H     H_    0.487397 0.171165 0.281000 0.120337
H26   H     H_    0.162020 0.668422 0.125244 0.132970
H27   H     H_    0.211618 0.689629 0.362697 0.131319
H28   H     H_    0.195688 0.593538 0.195892 0.104239
H29   H     H_    0.205240 0.596652 0.283997 0.099606
H30   H     H_    0.106389 0.964492 0.139067 0.123796
H31   H     H_    0.205669 0.013276 0.379646 0.123269
H32   H     H_    0.841754 0.976264 0.141283 0.132363
H33   H     H_    0.824059 0.010248 0.379200 0.132222
H34   H     H_    0.928477 0.077319 0.219095 0.099701
H35   H     H_    0.926349 0.085782 0.307395 0.102849
H36   H     H_    0.524255 0.641103 0.128249 0.124235
O1    O     O_R   0.296680 0.802170 0.437540 -0.524698
O2    O     O_R   0.637200 0.461990 0.052510 -0.508838
O3    O     O_R   0.664790 0.681920 0.057970 -0.494476
O4    O     O_R   0.525380 0.838530 0.443500 -0.503564
O5    O     O_R   0.815840 0.852920 0.961840 -0.503921
O6    O     O_R   0.012100 0.822630 0.963670 -0.511526
O7    O     O_R   0.037010 0.668460 0.953040 -0.508109
O8    O     O_R   0.813390 0.478970 0.949660 -0.503628
O9    O     O_R   0.632250 0.456930 0.945520 -0.527851
O10   O     O_R   0.660200 0.677230 0.958780 -0.491867
O11   O     O_3   0.830870 0.661990 0.006950 -0.264652
O12   O     O_R   0.662610 0.183990 0.557860 -0.502112
O13   O     O_R   0.702130 0.995190 0.446810 -0.519660
O14   O     O_R   0.661770 0.181390 0.458760 -0.494441
O15   O     O_R   0.499820 0.198480 0.455280 -0.510360
O16   O     O_R   0.311660 0.976250 0.449080 -0.500138
O17   O     O_R   0.297580 0.804960 0.544440 -0.507011
O18   O     O_R   0.526220 0.841130 0.542590 -0.494200
O19   O     O_R   0.703030 0.997990 0.553710 -0.510576
O20   O     O_R   0.500730 0.201280 0.562180 -0.519964
O21   O     O_R   0.312500 0.978850 0.548170 -0.494684
O22   O     O_3   0.499990 0.999990 0.500010 -0.242234
O23   O     O_R   0.820790 0.857990 0.068830 -0.519771
O24   O     O_R   0.016700 0.827330 0.062850 -0.501940
O25   O     O_R   0.041970 0.673520 0.060040 -0.516994
O26   O     O_R   0.817980 0.483660 0.048840 -0.491316

loop_
_geom_bond_atom_site_label_1
_geom_bond_atom_site_label_2
_ccdc_geom_bond_type
C15   C18   A    
C66   C68   S    
C72   H20   S    
C63   C65   A    
C28   O18   A    
Cr5   O26   S    
C1    O13   A    
C35   C36   A    
C87   O8    A    
C7    C8    A    
C39   C41   A    
C53   C54   A    
Cr5   O11   S    
C46   H6    S    
C5    H28   S    
C84   O2    A    
Cr5   O8    S    
C29   C30   A    
Cr4   O11   S    
Cr3   O22   S    
C35   C37   A    
C62   H18   S    
C3    C7    A    
C31   C36   A    
C42   C46   A    
C5    C6    A    
C2    C11   A    
C8    C83   S    
C56   C78   T    
C40   O20   A    
Cr3   O16   S    
C15   C17   A    
C33   H2    S    
C85   O23   A    
C27   C85   S    
C43   H8    S    
Cr6   O9    S    
C46   C47   A    
C61   C66   A    
C9    C19   A    
C20   H33   S    
Cr1   O4    S    
C45   C56   S    
Cr4   O23   S    
C49   C51   A    
Cr1   O1    S    
C29   C38   A    
Cr3   O15   S    
C1    O4    A    
C9    C10   A    
C76   C88   A    
C63   H19   S    
C62   C63   A    
C14   H12   S    
C57   H10   S    
C51   H13   S    
C13   C14   A    
C2    C6    A    
C16   O1    A    
C13   H23   S    
Cr6   O3    S    
C73   C79   A    
C74   H22   S    
C73   H21   S    
C74   C75   A    
C62   C66   A    
Cr2   O14   S    
C64   C67   T    
C45   C88   A    
C40   C58   S    
C24   C25   A    
Cr1   O22   S    
C23   H25   S    
C12   C23   A    
Cr1   O17   S    
C84   O26   A    
C52   O17   A    
Cr6   O2    S    
C83   O24   A    
C89   H27   S    
C76   H1    S    
C44   H9    S    
C4    O15   A    
C8    C18   A    
C60   C61   A    
C51   C53   A    
C47   C87   S    
C2    C89   A    
C43   C44   A    
C72   C77   A    
C19   C89   A    
C52   C59   S    
C24   H34   S    
C42   C55   A    
C47   C57   A    
C20   C38   A    
C53   H11   S    
Cr4   O5    S    
C83   O25   A    
C77   C81   S    
C23   C34   A    
C4    O14   A    
C21   C31   A    
Cr2   O19   S    
C26   C27   A    
C29   H5    S    
C26   H32   S    
C87   O9    A    
C39   H7    S    
C75   C77   A    
C88   H4    S    
C1    C38   S    
C59   C69   T    
C86   O7    A    
C80   C82   T    
C48   C49   A    
C85   O3    A    
C60   C65   A    
C74   C79   A    
C40   O12   A    
C61   H17   S    
Cr4   O6    S    
C41   C44   A    
C22   C24   A    
C28   C71   S    
C42   C43   A    
C7    H26   S    
C70   C86   S    
C41   C50   A    
C12   H16   S    
C90   O5    A    
C9    H31   S    
C21   C25   A    
C54   C55   A    
C11   C17   A    
Cr2   O13   S    
Cr5   O25   S    
C75   H24   S    
C6    H29   S    
C72   C73   A    
C3    C5    A    
C10   C13   A    
C34   C67   S    
Cr1   O18   S    
C37   H36   S    
C48   C58   A    
C12   C45   A    
C90   O10   A    
C22   C36   A    
C4    C64   S    
Cr5   O7    S    
C50   C55   A    
C82   C90   S    
C32   H3    S    
C16   O16   A    
C32   C33   A    
Cr3   O21   S    
C52   O21   A    
C60   H15   S    
C18   H30   S    
Cr6   O11   S    
C30   C32   A    
C39   C58   A    
C30   C31   A    
C27   C37   A    
C16   C19   S    
C65   C69   S    
C33   C35   A    
C3    C17   A    
Cr2   O12   S    
C10   C11   A    
C86   O6    A    
Cr6   O10   S    
C79   C80   S    
C78   C84   S    
C20   C21   A    
C28   O19   A    
Cr4   O24   S    
C49   C50   A    
C22   C26   A    
C68   C70   T    
C14   C15   A    
Cr3   O20   S    
Cr2   O22   S    
C48   H14   S    
C34   C76   A    
C71   C81   T    
C54   C57   A    
C25   H35   S    
