data_mof_unit_31002.cif
_audit_creation_date              2012-12-11T15:39:24-0500
_audit_creation_method            fapswitch 2.2
_symmetry_space_group_name_H-M    P1
_symmetry_Int_Tables_number       1
_space_group_crystal_system       triclinic
_cell_length_a                    17.37489
_cell_length_b                    24.451643
_cell_length_c                    14.963887
_cell_angle_alpha                 89.878522
_cell_angle_beta                  125.070368
_cell_angle_gamma                 90.210167
_cell_volume                      5203.09987628

loop_
_atom_site_label
_atom_site_type_symbol
_atom_type_description
_atom_site_fract_x
_atom_site_fract_y
_atom_site_fract_z
_atom_type_partial_charge
C1    C     C_R   0.355871 0.347530 0.909314 0.844296
C2    C     C_R   0.427309 0.499554 0.631509 -0.142866
C3    C     C_R   0.184245 0.859218 0.999258 -0.160667
C4    C     C_R   0.956032 0.999956 0.284559 -0.190354
C5    C     C_R   0.916749 0.999361 0.624454 -0.240605
C6    C     C_R   0.173935 0.500480 0.716660 -0.114266
C7    C     C_R   0.792555 0.500525 0.371143 -0.235143
C8    C     C_R   0.674663 0.000168 0.720190 -0.112247
C9    C     C_R   0.296033 0.000589 0.368527 -0.191202
C10   C     C_R   0.034170 0.545312 0.567753 -0.068337
C11   C     C_R   0.940530 0.546594 0.487264 -0.170732
C12   C     C_R   0.539010 0.042139 0.562358 -0.107800
C13   C     C_R   0.687542 0.373573 0.090621 0.782049
C14   C     C_R   0.445985 0.043909 0.479828 -0.024394
C15   C     C_R   0.072831 0.502928 0.643373 -0.121056
C16   C     C_R   0.881761 0.504347 0.475986 -0.265895
C17   C     C_R   0.574254 0.002510 0.643373 -0.119508
C18   C     C_R   0.384940 0.004408 0.472459 -0.228767
C19   C     C_R   0.012672 0.464416 0.644144 0.633221
C20   C     C_R   0.916267 0.464871 0.559197 0.771208
C21   C     C_R   0.511969 0.966622 0.645717 0.645716
C22   C     C_R   0.416261 0.967311 0.558908 0.723562
C23   C     C_3   0.955456 0.569051 0.405185 0.585858
C24   C     C_R   0.857067 0.847490 0.907598 0.939711
C25   C     C_3   0.059443 0.566241 0.493234 0.547963
C26   C     C_3   0.465091 0.058970 0.397127 0.547989
C27   C     C_3   0.568333 0.056048 0.488291 0.529933
C28   C     C_R   0.381080 0.784866 0.021721 0.388396
C29   C     C_R   0.851565 0.674760 0.078315 0.522202
C30   C     C_R   0.878313 0.285247 0.014715 0.381725
C31   C     C_R   0.199966 0.236515 0.979209 0.398723
C32   C     C_R   0.824844 0.328571 0.013129 0.493639
C33   C     C_R   0.254013 0.280543 0.985922 0.344235
C34   C     C_R   0.327644 0.828280 0.019911 0.481053
C35   C     C_R   0.187436 0.873487 0.090183 0.778253
C36   C     C_R   0.902604 0.718775 0.074136 0.261503
C37   C     C_R   0.741067 0.316407 0.002098 -0.304001
C38   C     C_R   0.338451 0.269688 0.997619 -0.236039
C39   C     C_R   0.240435 0.816583 0.000624 -0.282023
C40   C     C_R   0.853446 0.756401 0.986175 -0.292839
C41   C     C_R   0.446698 0.652156 0.092128 0.876431
C42   C     C_R   0.594896 0.625456 0.905927 0.743392
C43   C     C_R   0.947188 0.152340 0.091911 0.897225
C44   C     C_R   0.097027 0.125200 0.907907 0.788499
C45   C     C_R   0.708997 0.263164 0.993872 0.636247
C46   C     C_R   0.392843 0.684877 0.003829 -0.305061
C47   C     C_R   0.373552 0.217012 0.009755 0.696219
C48   C     C_R   0.205166 0.763632 0.985131 0.610294
C49   C     C_R   0.771126 0.737630 0.888651 0.677022
C50   C     C_R   0.256886 0.720363 0.987042 0.398702
C51   C     C_R   0.734637 0.686733 0.886372 0.338858
C52   C     C_R   0.760602 0.219990 0.995158 0.400877
C53   C     C_R   0.322510 0.172930 0.009778 0.303258
C54   C     C_R   0.343907 0.731346 0.004541 -0.246630
C55   C     C_R   0.759570 0.664449 0.986054 -0.173119
C56   C     C_R   0.844342 0.231381 0.004906 -0.251390
C57   C     C_R   0.686859 0.636835 0.993374 -0.132718
C58   C     C_R   0.236479 0.183693 0.994039 -0.160454
C59   C     C_R   0.354219 0.521068 0.438394 0.736306
C60   C     C_R   0.360599 0.521124 0.350203 0.653359
C61   C     C_R   0.867671 0.047268 0.449389 0.655480
C62   C     C_R   0.881533 0.047783 0.366665 0.656410
C63   C     C_R   0.440337 0.498597 0.363280 -0.466635
C64   C     C_R   0.427677 0.498344 0.537034 -0.494708
C65   C     C_R   0.907475 0.999383 0.339902 -0.480989
C66   C     C_R   0.880634 0.998412 0.506741 -0.430645
C67   C     C_R   0.514221 0.477023 0.462987 0.698310
C68   C     C_R   0.893094 0.184979 0.003572 -0.282276
C69   C     C_R   0.507641 0.476622 0.549624 0.608592
C70   C     C_R   0.887352 0.949897 0.370240 0.640372
C71   C     C_R   0.876496 0.949103 0.455025 0.647353
C72   C     C_R   0.478805 0.454568 0.246903 0.725993
C73   C     C_R   0.445349 0.454757 0.694735 0.840870
C74   C     C_R   0.989299 0.954696 0.259615 0.779914
C75   C     C_R   0.938840 0.954601 0.692435 0.802502
C76   C     C_R   0.231976 0.545486 0.747841 0.426962
C77   C     C_R   0.745419 0.545268 0.306972 0.511535
C78   C     C_R   0.732214 0.045366 0.749831 0.416054
C79   C     C_R   0.183957 0.140149 0.997492 -0.116988
C80   C     C_R   0.248579 0.045228 0.305989 0.508273
C81   C     C_R   0.482183 0.545277 0.251142 0.741098
C82   C     C_R   0.446794 0.544851 0.694373 0.786036
C83   C     C_R   0.985681 0.045406 0.255309 0.734759
C84   C     C_R   0.941014 0.044729 0.692248 0.785875
C85   C     C_R   0.230239 0.454741 0.745319 0.796697
C86   C     C_R   0.751026 0.455121 0.306481 0.830473
C87   C     C_R   0.730863 0.954488 0.747920 0.784285
C88   C     C_R   0.252597 0.955069 0.305362 0.804820
C89   C     C_R   0.361698 0.654183 0.912278 0.593206
C90   C     C_R   0.451868 0.499770 0.276726 -0.114657
C91   C     C_R   0.688741 0.625637 0.086944 0.431456
C92   C     C_R   0.861319 0.154118 0.912060 0.583853
C93   C     C_R   0.187286 0.126905 0.089612 0.436846
C94   C     C_R   0.447645 0.346403 0.089178 0.518982
C95   C     C_R   0.596629 0.372937 0.908967 0.517320
C96   C     C_R   0.939570 0.847344 0.087544 0.463097
C97   C     C_R   0.096474 0.873485 0.908413 0.501685
C98   C     C_R   0.389417 0.315245 0.998622 -0.039169
C99   C     C_R   0.684508 0.359008 0.000049 -0.142287
C100  C     C_R   0.881207 0.814669 0.995066 -0.275147
F1    F     F_    0.318528 0.327841 0.807575 -0.550015
F2    F     F_    0.456798 0.209228 0.022552 -0.589941
F3    F     F_    0.120789 0.754577 0.969352 -0.650188
F4    F     F_    0.720545 0.769007 0.797741 -0.550924
F5    F     F_    0.277769 0.542784 0.428322 -0.534298
F6    F     F_    0.290473 0.542977 0.253307 -0.571473
F7    F     F_    0.840217 0.094417 0.470086 -0.497180
F8    F     F_    0.865497 0.095064 0.311281 -0.515319
F9    F     F_    0.594206 0.458238 0.477349 -0.565276
F10   F     F_    0.581005 0.457075 0.647292 -0.607090
F11   F     F_    0.876196 0.902265 0.317809 -0.546619
F12   F     F_    0.754241 0.358040 0.194238 -0.582770
F13   F     F_    0.863459 0.899651 0.484824 -0.496231
F14   F     F_    0.511384 0.671580 0.193736 -0.581772
F15   F     F_    0.549264 0.644652 0.803127 -0.558516
F16   F     F_    0.012844 0.172117 0.192851 -0.586675
F17   F     F_    0.060485 0.139753 0.803508 -0.584267
F18   F     F_    0.472133 0.402271 0.271434 -0.615937
F19   F     F_    0.408031 0.404678 0.653639 -0.558155
F20   F     F_    0.009433 0.905593 0.309257 -0.547556
F21   F     F_    0.896031 0.905266 0.659064 -0.500532
F22   F     F_    0.485101 0.596672 0.286127 -0.574689
F23   F     F_    0.836899 0.828533 0.811180 -0.522786
F24   F     F_    0.411400 0.595029 0.652506 -0.543738
F25   F     F_    0.989640 0.097575 0.286653 -0.542574
F26   F     F_    0.906673 0.095749 0.658437 -0.522816
F27   F     F_    0.199478 0.402679 0.715982 -0.552863
F28   F     F_    0.758348 0.403906 0.345187 -0.537078
F29   F     F_    0.700729 0.902133 0.720326 -0.548137
F30   F     F_    0.260693 0.904074 0.345346 -0.519251
F31   F     F_    0.047372 0.425194 0.722368 -0.570112
F32   F     F_    0.858928 0.425801 0.555592 -0.524173
F33   F     F_    0.544113 0.929598 0.727468 -0.575897
F34   F     F_    0.253969 0.857452 0.193496 -0.583524
F35   F     F_    0.356383 0.930705 0.556807 -0.543827
F36   F     F_    0.924466 0.622494 0.378584 -0.599742
F37   F     F_    0.103998 0.526994 0.471615 -0.628303
F38   F     F_    0.437364 0.111930 0.360268 -0.622114
F39   F     F_    0.612567 0.012778 0.475654 -0.649391
F40   F     F_    0.627483 0.253800 0.984817 -0.608497
H1    H     H_    0.930389 0.542026 0.333650 0.080451
H2    H     H_    0.189964 0.336051 0.013487 0.366215
H3    H     H_    0.420083 0.884301 0.049022 0.393204
H4    H     H_    0.025917 0.745221 0.122487 0.394882
H5    H     H_    0.162922 0.665941 0.960961 0.397807
H6    H     H_    0.673807 0.678395 0.729752 0.401769
H7    H     H_    0.671703 0.165020 0.980707 0.403669
H8    H     H_    0.415531 0.119070 0.035014 0.392738
H9    H     H_    0.236497 0.612462 0.689501 0.380368
H10   H     H_    0.779100 0.594307 0.426156 0.375105
H11   H     H_    0.735988 0.111635 0.688246 0.381480
H12   H     H_    0.094206 0.606931 0.515258 0.132344
H13   H     H_    0.188324 0.113054 0.295084 0.383825
H14   H     H_    0.327643 0.716087 0.815889 0.348426
H15   H     H_    0.714862 0.659783 0.215398 0.389874
H16   H     H_    0.826127 0.215800 0.814925 0.351998
H17   H     H_    0.303802 0.163347 0.195735 0.380807
H18   H     H_    0.566361 0.352028 0.228661 0.387432
H19   H     H_    0.608302 0.341342 0.799455 0.348303
H20   H     H_    0.953364 0.804920 0.202652 0.386850
H21   H     H_    0.108388 0.843756 0.797816 0.335615
H22   H     H_    0.440287 0.028271 0.331069 0.064600
H23   H     H_    0.605639 0.095774 0.506212 0.139501
H24   H     H_    0.496595 0.762038 0.037593 0.357373
H25   H     H_    0.954337 0.653073 0.225438 0.405213
H26   H     H_    0.992275 0.262717 0.026827 0.374827
H27   H     H_    0.082870 0.276611 0.914541 0.378604
H28   H     H_    0.911675 0.385258 0.029008 0.394357
N1    N     N_R   0.394180 0.396910 0.943210 -0.187722
N2    N     N_R   0.474350 0.471570 0.793850 -0.199340
N3    N     N_R   0.025650 0.971570 0.206150 -0.181848
N4    N     N_R   0.974350 0.971570 0.793850 -0.200831
N5    N     N_R   0.319480 0.528420 0.793810 -0.157551
N6    N     N_R   0.680520 0.528420 0.206190 -0.143624
N7    N     N_R   0.819480 0.028420 0.793810 -0.157522
N8    N     N_R   0.180520 0.028420 0.206190 -0.184412
N9    N     N_R   0.525640 0.528390 0.206120 -0.174788
N10   N     N_R   0.474360 0.528390 0.793880 -0.205133
N11   N     N_R   0.025640 0.028390 0.206120 -0.204793
N12   N     N_R   0.605820 0.396910 0.056790 -0.186653
N13   N     N_R   0.974360 0.028390 0.793880 -0.206712
N14   N     N_R   0.319490 0.471590 0.793840 -0.176419
N15   N     N_R   0.680510 0.471590 0.206160 -0.196193
N16   N     N_R   0.819490 0.971590 0.793840 -0.171208
N17   N     N_R   0.180510 0.971590 0.206160 -0.187909
N18   N     N_R   0.394130 0.603080 0.943110 -0.131602
N19   N     N_R   0.605870 0.603080 0.056890 -0.173998
N20   N     N_R   0.894130 0.103080 0.943110 -0.134338
N21   N     N_R   0.105870 0.103080 0.056890 -0.151195
N22   N     N_R   0.450990 0.396900 0.056840 -0.194269
N23   N     N_R   0.894180 0.896910 0.943210 -0.203460
N24   N     N_R   0.549010 0.396900 0.943160 -0.137020
N25   N     N_R   0.950990 0.896900 0.056840 -0.151690
N26   N     N_R   0.049010 0.896900 0.943160 -0.131922
N27   N     N_R   0.105820 0.896910 0.056790 -0.171868
N28   N     N_R   0.450950 0.603070 0.056740 -0.183569
N29   N     N_R   0.549050 0.603070 0.943260 -0.166593
N30   N     N_R   0.950950 0.103070 0.056740 -0.190252
N31   N     N_R   0.049050 0.103070 0.943260 -0.162339
N32   N     N_R   0.525650 0.471570 0.206150 -0.189418
Ni1   Ni    Ni4+2 0.434860 0.434850 0.869700 0.337236
Ni2   Ni    Ni4+2 0.565140 0.434850 0.130300 0.273317
Ni3   Ni    Ni4+2 0.934860 0.934850 0.869700 0.346616
Ni4   Ni    Ni4+2 0.065140 0.934850 0.130300 0.319920
Ni5   Ni    Ni4+2 0.565130 0.565140 0.130240 0.274412
Ni6   Ni    Ni4+2 0.434870 0.565140 0.869760 0.287529
Ni7   Ni    Ni4+2 0.065130 0.065140 0.130240 0.249814
Ni8   Ni    Ni4+2 0.934870 0.065140 0.869760 0.288078
O1    O     O_3   0.467023 0.796093 0.039431 -0.677301
O2    O     O_3   0.677992 0.658204 0.789934 -0.601126
O3    O     O_3   0.731685 0.166228 0.987131 -0.688018
O4    O     O_3   0.353731 0.119582 0.024324 -0.676927
O5    O     O_3   0.202931 0.598452 0.720421 -0.692323
O6    O     O_3   0.739073 0.595022 0.345289 -0.646211
O7    O     O_3   0.701959 0.097997 0.718855 -0.682930
O8    O     O_3   0.247856 0.094309 0.350337 -0.587691
O9    O     O_3   0.338170 0.676314 0.815012 -0.681853
O10   O     O_3   0.751781 0.648549 0.187146 -0.589284
O11   O     O_3   0.836665 0.176020 0.814189 -0.672366
O12   O     O_3   0.891327 0.639411 0.166077 -0.623822
O13   O     O_3   0.252920 0.144158 0.194511 -0.641650
O14   O     O_3   0.516356 0.324023 0.188302 -0.583158
O15   O     O_3   0.557963 0.357706 0.802869 -0.601499
O16   O     O_3   0.993602 0.829688 0.193526 -0.569599
O17   O     O_3   0.058106 0.860002 0.801477 -0.619176
O18   O     O_3   0.961156 0.296870 0.025063 -0.685694
O19   O     O_3   0.112379 0.243329 0.959399 -0.712202
O20   O     O_3   0.851394 0.382785 0.021615 -0.671762
O21   O     O_3   0.228050 0.334267 0.983578 -0.690628
O22   O     O_3   0.357437 0.882162 0.035842 -0.684762
O23   O     O_3   0.998273 0.722427 0.152297 -0.648007
O24   O     O_3   0.225131 0.666863 0.972731 -0.685553

loop_
_geom_bond_atom_site_label_1
_geom_bond_atom_site_label_2
_ccdc_geom_bond_type
C97   O17   S    
C13   C99   A    
C77   N6    A    
C73   F19   S    
C31   O19   S    
C92   O11   S    
N14   Ni1   S    
C89   N18   A    
C30   O18   S    
H4    O23   S    
C19   C20   A    
C50   C54   A    
C88   F30   S    
C41   F14   S    
C38   C98   S    
C9    C18   S    
C49   F4    S    
N23   N25   A    
N8    N17   A    
C80   O8    S    
C46   C89   A    
N16   Ni3   S    
C15   C19   A    
C29   C36   A    
C72   F18   S    
C26   C27   S    
C85   N14   A    
C6    C85   A    
C23   F36   S    
N2    N10   A    
C25   H12   S    
N1    N22   A    
N8    Ni7   S    
N18   N28   A    
C76   N5    A    
C89   O9    S    
C20   F32   S    
C79   C93   A    
C41   N28   A    
N12   Ni2   S    
H10   O6    S    
H8    O4    S    
C9    C88   A    
C4    C65   S    
C95   C99   A    
C7    C86   A    
C62   F8    S    
N26   Ni3   S    
C40   C49   A    
C96   C100  A    
N28   Ni5   S    
C71   F13   S    
H15   O10   S    
C69   F10   S    
C82   F24   S    
N3    Ni4   S    
C14   C18   A    
N2    Ni1   S    
H25   O12   S    
C27   H23   S    
C6    C15   S    
N4    N13   A    
C67   F9    S    
C29   O12   S    
N20   Ni8   S    
C32   O20   S    
C43   C68   A    
C49   C51   A    
N9    N32   A    
C12   C17   A    
N6    Ni5   S    
C41   C46   A    
C31   C33   A    
C50   O24   S    
N5    Ni6   S    
N20   N30   A    
H16   O11   S    
C4    C74   A    
C62   C65   A    
C35   N27   A    
C7    C77   A    
N21   N31   A    
C48   C50   A    
N26   N27   A    
C3    C39   S    
C59   C60   A    
H17   O13   S    
C47   F2    S    
H11   O7    S    
C21   C22   A    
C31   C58   A    
C8    C78   A    
H26   O18   S    
C65   C70   A    
N3    N11   A    
N29   Ni6   S    
C34   O22   S    
N23   Ni3   S    
N7    Ni8   S    
C83   F25   S    
C33   O21   S    
C61   C66   A    
C42   C57   A    
C21   F33   S    
H6    O2    S    
C2    C64   S    
C77   O6    S    
H21   O17   S    
C72   N32   A    
C42   N29   A    
C19   F31   S    
C63   C67   A    
N18   Ni6   S    
C12   C27   S    
C86   F28   S    
C34   C39   A    
C36   C40   A    
N13   Ni8   S    
C80   N8    A    
H9    O5    S    
N12   N24   A    
N24   Ni1   S    
C87   N16   A    
C5    C84   A    
C28   C54   A    
N22   Ni2   S    
H2    O21   S    
N27   Ni4   S    
C29   C55   A    
C75   F21   S    
C96   O16   S    
C28   O1    S    
C32   C37   A    
C48   F3    S    
C30   C56   A    
C26   H22   S    
C45   F40   S    
C95   O15   S    
N21   Ni7   S    
C67   C69   A    
C9    C80   A    
C97   N26   A    
C5    C75   A    
N4    Ni3   S    
C25   F37   S    
C94   N22   A    
H28   O20   S    
C43   F16   S    
C52   O3    S    
C72   C90   A    
C11   C16   A    
C3    C97   A    
H27   O19   S    
C66   C71   A    
N11   Ni7   S    
C3    C35   A    
H24   O1    S    
C16   C20   A    
C46   C54   S    
C74   N3    A    
C59   F5    S    
C64   C69   A    
C14   C26   S    
H14   O9    S    
H7    O3    S    
N25   Ni4   S    
C38   C47   A    
C70   C71   A    
C2    C73   A    
C95   N24   A    
C81   C90   A    
C58   C79   S    
C10   C25   S    
N32   Ni2   S    
C88   N17   A    
H20   O16   S    
H5    O24   S    
N19   N29   A    
N5    N14   A    
C10   C11   A    
C55   C57   S    
C78   N7    A    
C60   C63   A    
C85   F27   S    
C37   C45   A    
C1    F1    S    
C37   C99   S    
C60   F6    S    
N17   Ni4   S    
C91   N19   A    
C84   N13   A    
C57   C91   A    
C35   F34   S    
C28   C34   A    
N30   Ni7   S    
C24   C100  A    
N15   Ni2   S    
C44   C79   A    
C7    C16   S    
C8    C17   S    
C12   C14   A    
C5    C66   S    
C26   F38   S    
C1    C98   A    
C40   C100  S    
C53   C58   A    
C92   N20   A    
C6    C76   A    
C93   N21   A    
C13   F12   S    
C13   N12   A    
C74   F20   S    
C81   F22   S    
C33   C38   A    
C45   C52   A    
C83   N11   A    
C22   F35   S    
C10   C15   A    
C8    C87   A    
C87   F29   S    
C84   F26   S    
C18   C22   A    
C73   N2    A    
C81   N9    A    
C59   C64   A    
C56   C68   S    
C30   C32   A    
C51   O2    S    
C86   N15   A    
C4    C83   A    
C44   F17   S    
C91   O10   S    
C36   O23   S    
H19   O15   S    
C47   C53   A    
N10   Ni6   S    
C63   C90   S    
C11   C23   S    
N31   Ni8   S    
C68   C92   A    
N9    Ni5   S    
N19   Ni5   S    
C24   N23   A    
C51   C55   A    
C24   F23   S    
H3    O22   S    
C61   C62   A    
C61   F7    S    
C27   F39   S    
C2    C82   A    
C70   F11   S    
N1    Ni1   S    
C96   N25   A    
C42   F15   S    
C23   C25   S    
C44   N31   A    
H18   O14   S    
C76   O5    S    
C78   O7    S    
C1    N1    A    
C75   N4    A    
C94   O14   S    
C94   C98   A    
C23   H1    S    
C93   O13   S    
C43   N30   A    
N6    N15   A    
C82   N10   A    
H13   O8    S    
C53   O4    S    
C52   C56   A    
C39   C48   A    
N7    N16   A    
C17   C21   A    
