data_mof_unit_41760.cif
_audit_creation_date              2012-12-11T15:06:47-0500
_audit_creation_method            fapswitch 2.2
_symmetry_space_group_name_H-M    P1
_symmetry_Int_Tables_number       1
_space_group_crystal_system       triclinic
_cell_length_a                    19.962414
_cell_length_b                    11.240638
_cell_length_c                    18.679557
_cell_angle_alpha                 90.126966
_cell_angle_beta                  88.943711
_cell_angle_gamma                 90.011902
_cell_volume                      4190.78820283

loop_
_atom_site_label
_atom_site_type_symbol
_atom_type_description
_atom_site_fract_x
_atom_site_fract_y
_atom_site_fract_z
_atom_type_partial_charge
C1    C     C_R   0.761817 0.524160 0.639393 0.534805
C2    C     C_R   0.238051 0.523502 0.360980 0.534163
C3    C     C_R   0.261817 0.024162 0.639393 0.534806
C4    C     C_R   0.738049 0.023499 0.360981 0.534169
C5    C     C_3   0.807292 0.134436 0.448630 -0.257795
C6    C     C_3   0.185995 0.118333 0.552413 -0.249001
C7    C     C_3   0.307290 0.634450 0.448630 -0.257792
C8    C     C_3   0.685994 0.618320 0.552410 -0.249003
C9    C     C_3   0.746053 0.056522 0.437440 0.066033
C10   C     C_3   0.253566 0.058821 0.563420 0.065495
C11   C     C_3   0.246057 0.556523 0.437439 0.066029
C12   C     C_3   0.753567 0.558817 0.563419 0.065485
C13   C     C_3   0.759364 0.087819 0.575503 0.065806
C14   C     C_3   0.238018 0.092079 0.426123 0.068903
C15   C     C_3   0.259364 0.587816 0.575503 0.065803
C16   C     C_3   0.738021 0.592075 0.426122 0.068904
C17   C     C_3   0.763915 0.955987 0.561017 -0.258929
C18   C     C_3   0.244219 0.959534 0.437323 -0.259688
C19   C     C_3   0.263914 0.455983 0.561016 -0.258930
C20   C     C_3   0.744233 0.459531 0.437319 -0.259679
C21   C     C_3   0.814328 0.150256 0.529846 -0.218191
C22   C     C_3   0.175755 0.131040 0.471928 -0.215743
C23   C     C_3   0.314328 0.650257 0.529848 -0.218178
C24   C     C_3   0.675754 0.631021 0.471925 -0.215753
C25   C     C_3   0.007310 0.202348 0.460196 -0.233006
C26   C     C_3   0.004963 0.202217 0.542930 -0.239689
C27   C     C_3   0.507311 0.702352 0.460197 -0.233008
C28   C     C_3   0.504964 0.702222 0.542930 -0.239691
C29   C     C_3   0.062905 0.409797 0.472930 -0.208850
C30   C     C_3   0.934092 0.387738 0.528719 -0.213078
C31   C     C_3   0.562906 0.909799 0.472931 -0.208851
C32   C     C_3   0.434091 0.887742 0.528718 -0.213077
C33   C     C_3   0.942715 0.386029 0.447085 -0.266937
C34   C     C_3   0.055496 0.401954 0.554171 -0.261549
C35   C     C_3   0.442717 0.886036 0.447085 -0.266930
C36   C     C_3   0.555493 0.901962 0.554171 -0.261547
C37   C     C_3   0.011097 0.332155 0.431538 0.067970
C38   C     C_3   0.992520 0.331069 0.570395 0.066254
C39   C     C_3   0.511097 0.832159 0.431539 0.067967
C40   C     C_3   0.492519 0.831073 0.570395 0.066256
C41   C     C_3   0.815048 0.031118 0.044944 -0.249225
C42   C     C_3   0.184937 0.030737 0.954998 -0.248589
C43   C     C_3   0.315048 0.531120 0.044944 -0.249224
C44   C     C_3   0.684937 0.530737 0.954998 -0.248589
C45   C     C_R   0.773853 0.118883 0.650709 0.534972
C46   C     C_R   0.224489 0.122736 0.351012 0.540281
C47   C     C_R   0.273852 0.618881 0.650710 0.534968
C48   C     C_R   0.724489 0.622734 0.351011 0.540276
C49   C     C_3   0.815232 0.023217 0.965130 -0.237914
C50   C     C_3   0.184719 0.022880 0.034781 -0.238314
C51   C     C_3   0.315232 0.523218 0.965130 -0.237913
C52   C     C_3   0.684720 0.522879 0.034781 -0.238315
C53   C     C_3   0.688982 0.013066 0.034097 -0.211638
C54   C     C_3   0.311126 0.012991 0.965651 -0.211080
C55   C     C_3   0.188982 0.513067 0.034097 -0.211637
C56   C     C_3   0.811126 0.512990 0.965650 -0.211081
C57   C     C_3   0.736060 0.203195 0.059798 -0.257676
C58   C     C_3   0.263742 0.203087 0.940703 -0.258320
C59   C     C_3   0.236061 0.703197 0.059798 -0.257676
C60   C     C_3   0.763742 0.703087 0.940704 -0.258320
C61   C     C_3   0.745857 0.071451 0.075376 0.063421
C62   C     C_3   0.254128 0.071337 0.924685 0.064127
C63   C     C_3   0.245858 0.571452 0.075377 0.063422
C64   C     C_3   0.754128 0.571337 0.924685 0.064128
C65   C     C_3   0.757971 0.102266 0.935614 0.064109
C66   C     C_3   0.242059 0.101745 0.064486 0.063836
C67   C     C_3   0.257971 0.602267 0.935615 0.064108
C68   C     C_3   0.742060 0.601745 0.064486 0.063835
C69   C     C_3   0.693788 0.033244 0.951416 -0.254320
C70   C     C_3   0.306223 0.032709 0.048423 -0.254682
C71   C     C_3   0.193789 0.533244 0.951417 -0.254321
C72   C     C_3   0.806224 0.532709 0.048423 -0.254684
C73   C     C_3   0.751804 0.220393 0.979041 -0.226035
C74   C     C_3   0.248156 0.219953 0.021528 -0.225644
C75   C     C_3   0.251804 0.720394 0.979041 -0.226032
C76   C     C_3   0.748155 0.719953 0.021528 -0.225644
C77   C     C_3   0.005073 0.475343 0.039905 -0.257089
C78   C     C_3   0.995054 0.475378 0.960331 -0.257562
C79   C     C_3   0.505073 0.975343 0.039905 -0.257089
C80   C     C_3   0.495054 0.975378 0.960331 -0.257562
C81   C     C_3   0.072997 0.290869 0.006420 -0.241990
C82   C     C_3   0.927016 0.291056 0.993390 -0.241983
C83   C     C_3   0.572997 0.790868 0.006420 -0.241989
C84   C     C_3   0.427016 0.791054 0.993390 -0.241985
C85   C     C_3   0.958900 0.266688 0.068718 0.051999
C86   C     C_3   0.041083 0.266591 0.931053 0.052674
C87   C     C_3   0.458900 0.766688 0.068719 0.051998
C88   C     C_3   0.541083 0.766590 0.931053 0.052675
C89   C     C_R   0.971648 0.341489 0.646488 0.532497
C90   C     C_R   0.030581 0.341932 0.355090 0.536798
C91   C     C_R   0.471647 0.841490 0.646487 0.532500
C92   C     C_R   0.530581 0.841932 0.355090 0.536800
C93   C     C_3   0.023679 0.346205 0.065451 0.068071
C94   C     C_3   0.976374 0.346323 0.934496 0.068324
C95   C     C_3   0.523680 0.846205 0.065451 0.068071
C96   C     C_3   0.476374 0.846322 0.934496 0.068324
C97   C     C_R   0.760376 0.535472 0.847965 0.525374
C98   C     C_R   0.239602 0.535333 0.152025 0.525844
C99   C     C_R   0.260376 0.035471 0.847965 0.525375
C100  C     C_R   0.739602 0.035332 0.152025 0.525846
C101  C     C_R   0.773471 0.131197 0.858308 0.529884
C102  C     C_R   0.226596 0.130829 0.141793 0.530990
C103  C     C_R   0.273471 0.631197 0.858308 0.529884
C104  C     C_R   0.726596 0.630827 0.141793 0.530987
C105  C     C_R   0.945779 0.355613 0.861907 0.535082
C106  C     C_R   0.054249 0.355459 0.138081 0.535425
C107  C     C_R   0.445779 0.855613 0.861907 0.535082
C108  C     C_R   0.554249 0.855459 0.138081 0.535426
C109  C     C_3   0.685702 0.126744 0.469218 -0.236661
C110  C     C_3   0.308024 0.144792 0.534891 -0.247004
C111  C     C_3   0.185701 0.626729 0.469218 -0.236661
C112  C     C_3   0.808023 0.644792 0.534894 -0.246985
C113  C     C_3   0.688649 0.128967 0.551233 -0.235457
C114  C     C_3   0.304998 0.148150 0.452938 -0.230639
C115  C     C_3   0.188650 0.628964 0.551233 -0.235457
C116  C     C_3   0.804997 0.648164 0.452938 -0.230577
C117  C     C_3   0.759466 0.938814 0.479758 -0.214948
C118  C     C_3   0.256160 0.942620 0.517634 -0.227048
C119  C     C_3   0.259479 0.438814 0.479754 -0.214932
C120  C     C_3   0.756168 0.442619 0.517632 -0.227047
Cr1   Cr    Cr6+3 0.885690 0.492860 0.745310 0.984478
Cr2   Cr    Cr6+3 0.114310 0.492860 0.254690 0.985227
Cr3   Cr    Cr6+3 0.385690 0.992860 0.745310 0.984478
Cr4   Cr    Cr6+3 0.614310 0.992860 0.254690 0.985227
Cr5   Cr    Cr6+3 0.729880 0.332270 0.748190 0.976618
Cr6   Cr    Cr6+3 0.270120 0.332270 0.251810 0.977172
Cr7   Cr    Cr6+3 0.229880 0.832270 0.748190 0.976618
Cr8   Cr    Cr6+3 0.770120 0.832270 0.251810 0.977172
Cr9   Cr    Cr6+3 0.888120 0.178590 0.753010 0.967836
Cr10  Cr    Cr6+3 0.111880 0.178590 0.246990 0.968302
Cr11  Cr    Cr6+3 0.388120 0.678590 0.753010 0.967836
Cr12  Cr    Cr6+3 0.611880 0.678590 0.246990 0.968302
H1    H     H_    0.638226 0.092604 0.451422 0.129543
H2    H     H_    0.358812 0.120844 0.551394 0.125057
H3    H     H_    0.138230 0.592553 0.451429 0.129550
H4    H     H_    0.858812 0.620840 0.551395 0.125059
H5    H     H_    0.864309 0.119267 0.545138 0.131271
H6    H     H_    0.135400 0.067619 0.459096 0.124521
H7    H     H_    0.364308 0.619260 0.545137 0.131273
H8    H     H_    0.635402 0.567589 0.459091 0.124523
H9    H     H_    0.810090 0.909275 0.462829 0.130698
H10   H     H_    0.221181 0.875664 0.538870 0.135228
H11   H     H_    0.310109 0.409280 0.462829 0.130703
H12   H     H_    0.721189 0.375660 0.538867 0.135224
H13   H     H_    0.812635 0.922038 0.580566 0.126729
H14   H     H_    0.198040 0.912465 0.420801 0.122580
H15   H     H_    0.312627 0.422026 0.580577 0.126726
H16   H     H_    0.698057 0.412453 0.420790 0.122573
H17   H     H_    0.047741 0.147726 0.438744 0.133941
H18   H     H_    0.967020 0.138613 0.562760 0.129299
H19   H     H_    0.547746 0.647733 0.438747 0.133942
H20   H     H_    0.467020 0.638617 0.562760 0.129300
H21   H     H_    0.961600 0.158050 0.440197 0.103926
H22   H     H_    0.052793 0.169111 0.563753 0.106348
H23   H     H_    0.461602 0.658052 0.440196 0.103927
H24   H     H_    0.552794 0.669118 0.563754 0.106350
H25   H     H_    0.614784 0.892441 0.455204 0.112479
H26   H     H_    0.392136 0.834621 0.544901 0.110598
H27   H     H_    0.114785 0.392452 0.455199 0.112476
H28   H     H_    0.892138 0.334614 0.544904 0.110601
H29   H     H_    0.600154 0.859458 0.577806 0.098163
H30   H     H_    0.402331 0.833721 0.421724 0.100212
H31   H     H_    0.100156 0.359442 0.577802 0.098163
H32   H     H_    0.902330 0.333710 0.421727 0.100212
H33   H     H_    0.939906 0.477953 0.425566 0.120235
H34   H     H_    0.050392 0.492897 0.577152 0.127578
H35   H     H_    0.439911 0.977962 0.425568 0.120240
H36   H     H_    0.550385 0.992908 0.577148 0.127582
H37   H     H_    0.926766 0.480904 0.545220 0.139134
H38   H     H_    0.050604 0.503309 0.459798 0.132481
H39   H     H_    0.426765 0.980908 0.545220 0.139134
H40   H     H_    0.550617 0.003310 0.459792 0.132483
H41   H     H_    0.835290 0.946182 0.064854 0.143160
H42   H     H_    0.164728 0.945731 0.934907 0.143381
H43   H     H_    0.335291 0.446184 0.064854 0.143160
H44   H     H_    0.664728 0.445730 0.934907 0.143381
H45   H     H_    0.686540 0.219096 0.448749 0.107270
H46   H     H_    0.299267 0.233563 0.557630 0.113101
H47   H     H_    0.186525 0.719080 0.448742 0.107275
H48   H     H_    0.799264 0.733560 0.557641 0.113088
H49   H     H_    0.849670 0.101293 0.059788 0.134278
H50   H     H_    0.150228 0.100709 0.940198 0.133811
H51   H     H_    0.349670 0.601296 0.059788 0.134278
H52   H     H_    0.650228 0.600709 0.940199 0.133811
H53   H     H_    0.866393 0.044132 0.946084 0.126597
H54   H     H_    0.133579 0.044096 0.053830 0.126692
H55   H     H_    0.366393 0.544131 0.946083 0.126596
H56   H     H_    0.633579 0.544095 0.053830 0.126694
H57   H     H_    0.808166 0.929928 0.948102 0.118845
H58   H     H_    0.191640 0.929611 0.051637 0.118760
H59   H     H_    0.308166 0.429929 0.948103 0.118845
H60   H     H_    0.691641 0.429610 0.051637 0.118760
H61   H     H_    0.689436 0.922436 0.050978 0.098987
H62   H     H_    0.311174 0.922392 0.948101 0.098918
H63   H     H_    0.189435 0.422438 0.050979 0.098986
H64   H     H_    0.811171 0.422389 0.948102 0.098919
H65   H     H_    0.695829 0.947098 0.923143 0.102375
H66   H     H_    0.304127 0.946418 0.076295 0.102601
H67   H     H_    0.195829 0.447097 0.923143 0.102375
H68   H     H_    0.804128 0.446419 0.076295 0.102601
H69   H     H_    0.683671 0.231171 0.072454 0.117442
H70   H     H_    0.316055 0.231384 0.928002 0.117035
H71   H     H_    0.183671 0.731173 0.072455 0.117440
H72   H     H_    0.816055 0.731384 0.928003 0.117036
H73   H     H_    0.767523 0.259671 0.093313 0.095401
H74   H     H_    0.232058 0.259495 0.907563 0.095271
H75   H     H_    0.267524 0.759672 0.093313 0.095401
H76   H     H_    0.732058 0.759496 0.907563 0.095270
H77   H     H_    0.800841 0.257013 0.976244 0.107442
H78   H     H_    0.199024 0.256151 0.024754 0.107318
H79   H     H_    0.300840 0.757018 0.976243 0.107442
H80   H     H_    0.699024 0.756149 0.024754 0.107319
H81   H     H_    0.714785 0.280387 0.955178 0.132849
H82   H     H_    0.285175 0.280068 0.045509 0.133347
H83   H     H_    0.214782 0.780385 0.955179 0.132849
H84   H     H_    0.785175 0.780068 0.045510 0.133347
H85   H     H_    0.641649 0.049785 0.054000 0.123270
H86   H     H_    0.358369 0.050471 0.946028 0.123195
H87   H     H_    0.141649 0.549788 0.054000 0.123270
H88   H     H_    0.858369 0.550467 0.946026 0.123197
H89   H     H_    0.673680 0.217828 0.570913 0.136424
H90   H     H_    0.313826 0.237513 0.433054 0.140894
H91   H     H_    0.173683 0.717827 0.570909 0.136423
H92   H     H_    0.813800 0.737568 0.433068 0.140874
H93   H     H_    0.649822 0.084343 0.932713 0.112179
H94   H     H_    0.350188 0.083669 0.067418 0.112105
H95   H     H_    0.149822 0.584343 0.932712 0.112178
H96   H     H_    0.850188 0.583671 0.067417 0.112106
H97   H     H_    0.041394 0.544647 0.052886 0.118208
H98   H     H_    0.958685 0.544613 0.947570 0.117946
H99   H     H_    0.541394 0.044647 0.052886 0.118208
H100  H     H_    0.458684 0.044612 0.947570 0.117946
H101  H     H_    0.959224 0.509658 0.066236 0.129610
H102  H     H_    0.040909 0.509660 0.934071 0.129514
H103  H     H_    0.459224 0.009657 0.066236 0.129610
H104  H     H_    0.540909 0.009660 0.934071 0.129514
H105  H     H_    0.610970 0.856587 0.995685 0.105505
H106  H     H_    0.389168 0.856982 0.004303 0.105400
H107  H     H_    0.110970 0.356588 0.995685 0.105505
H108  H     H_    0.889168 0.356984 0.004302 0.105399
H109  H     H_    0.901577 0.213839 0.972660 0.088665
H110  H     H_    0.098293 0.213520 0.026923 0.088123
H111  H     H_    0.401577 0.713838 0.972661 0.088666
H112  H     H_    0.598293 0.713519 0.026923 0.088123
H113  H     H_    0.650664 0.068584 0.574471 0.108499
H114  H     H_    0.347994 0.097242 0.430196 0.107701
H115  H     H_    0.150665 0.568587 0.574476 0.108490
H116  H     H_    0.848009 0.597283 0.430178 0.107695
H117  H     H_    0.722986 0.869549 0.467115 0.111582
H118  H     H_    0.307200 0.915294 0.520186 0.109596
H119  H     H_    0.223007 0.369541 0.467101 0.111606
H120  H     H_    0.807209 0.415301 0.520189 0.109599
H121  H     H_    0.723051 0.907247 0.589563 0.098665
H122  H     H_    0.286409 0.923132 0.404257 0.098330
H123  H     H_    0.223041 0.407248 0.589551 0.098664
H124  H     H_    0.786431 0.423139 0.404255 0.098329
H125  H     H_    0.853067 0.091875 0.425475 0.121879
H126  H     H_    0.145287 0.062418 0.575967 0.131312
H127  H     H_    0.353067 0.591902 0.425470 0.121870
H128  H     H_    0.645286 0.562403 0.575964 0.131317
H129  H     H_    0.801580 0.221449 0.421633 0.100319
H130  H     H_    0.183839 0.206482 0.579268 0.096397
H131  H     H_    0.301570 0.721467 0.421640 0.100320
H132  H     H_    0.683835 0.706471 0.579263 0.096400
H133  H     H_    0.807595 0.241577 0.543693 0.109846
H134  H     H_    0.158449 0.220274 0.458224 0.109214
H135  H     H_    0.307597 0.741577 0.543701 0.109846
H136  H     H_    0.658448 0.720255 0.458219 0.109218
O1    O     O_R   0.957210 0.449410 0.665480 -0.532383
O2    O     O_R   0.042790 0.449410 0.334520 -0.531280
O3    O     O_R   0.457210 0.949410 0.665480 -0.532384
O4    O     O_R   0.542790 0.949410 0.334520 -0.531282
O5    O     O_R   0.736260 0.212010 0.826560 -0.508962
O6    O     O_R   0.263740 0.212010 0.173440 -0.508262
O7    O     O_R   0.236260 0.712010 0.826560 -0.508962
O8    O     O_R   0.763740 0.712010 0.173440 -0.508262
O9    O     O_R   0.832520 0.095300 0.836000 -0.540138
O10   O     O_R   0.167480 0.095300 0.164000 -0.539481
O11   O     O_R   0.332520 0.595300 0.836000 -0.540139
O12   O     O_R   0.667480 0.595300 0.164000 -0.539481
O13   O     O_R   0.946380 0.253940 0.826940 -0.525434
O14   O     O_R   0.053620 0.253940 0.173060 -0.524906
O15   O     O_R   0.446380 0.753940 0.826940 -0.525434
O16   O     O_R   0.553620 0.753940 0.173060 -0.524905
O17   O     O_3   0.834560 0.334570 0.748840 -0.276421
O18   O     O_3   0.165440 0.334570 0.251160 -0.278926
O19   O     O_3   0.334560 0.834570 0.748840 -0.276421
O20   O     O_3   0.665440 0.834570 0.251160 -0.278926
O21   O     O_R   0.820730 0.541240 0.668250 -0.513863
O22   O     O_R   0.179270 0.541240 0.331750 -0.514691
O23   O     O_R   0.320730 0.041240 0.668250 -0.513862
O24   O     O_R   0.679270 0.041240 0.331750 -0.514690
O25   O     O_R   0.714240 0.455060 0.663710 -0.536435
O26   O     O_R   0.285760 0.455060 0.336290 -0.536322
O27   O     O_R   0.214240 0.955060 0.663710 -0.536436
O28   O     O_R   0.785760 0.955060 0.336290 -0.536326
O29   O     O_R   0.736780 0.204870 0.675910 -0.514340
O30   O     O_R   0.263220 0.204870 0.324090 -0.515420
O31   O     O_R   0.236780 0.704870 0.675910 -0.514339
O32   O     O_R   0.763220 0.704870 0.324090 -0.515420
O33   O     O_R   0.833070 0.087590 0.673490 -0.530525
O34   O     O_R   0.166930 0.087590 0.326510 -0.530784
O35   O     O_R   0.333070 0.587590 0.673490 -0.530525
O36   O     O_R   0.666930 0.587590 0.326510 -0.530786
O37   O     O_R   0.946890 0.246800 0.676300 -0.517809
O38   O     O_R   0.053110 0.246800 0.323700 -0.519521
O39   O     O_R   0.446890 0.746800 0.676300 -0.517808
O40   O     O_R   0.553110 0.746800 0.323700 -0.519521
O41   O     O_R   0.956650 0.457120 0.827980 -0.530811
O42   O     O_R   0.043350 0.457120 0.172020 -0.530206
O43   O     O_R   0.456650 0.957120 0.827980 -0.530810
O44   O     O_R   0.543350 0.957120 0.172020 -0.530206
O45   O     O_R   0.820220 0.548390 0.818890 -0.518792
O46   O     O_R   0.179780 0.548390 0.181110 -0.518578
O47   O     O_R   0.320220 0.048390 0.818890 -0.518793
O48   O     O_R   0.679780 0.048390 0.181110 -0.518578
O49   O     O_R   0.713680 0.462770 0.826210 -0.540091
O50   O     O_R   0.286320 0.462770 0.173790 -0.539779
O51   O     O_R   0.213680 0.962770 0.826210 -0.540091
O52   O     O_R   0.786320 0.962770 0.173790 -0.539778
C121  C     C_3   0.589077 0.809170 0.868681 -0.364276
H137  H     H_    0.602586 0.903658 0.870662 0.109821
H138  H     H_    0.635628 0.757959 0.867579 0.094544
H139  H     H_    0.567050 0.796725 0.815232 0.165660
C122  C     C_3   0.410933 0.809474 0.131180 -0.363917
H140  H     H_    0.397380 0.903937 0.129340 0.110018
H141  H     H_    0.364376 0.758289 0.132221 0.094547
H142  H     H_    0.432965 0.797178 0.184605 0.166881
C123  C     C_3   0.089077 0.309170 0.868681 -0.364278
H143  H     H_    0.102586 0.403658 0.870662 0.109821
H144  H     H_    0.135628 0.257959 0.867577 0.094545
H145  H     H_    0.067050 0.296727 0.815231 0.165660
C124  C     C_3   0.910933 0.309474 0.131179 -0.363919
H146  H     H_    0.897380 0.403938 0.129340 0.110018
H147  H     H_    0.864376 0.258290 0.132220 0.094548
H148  H     H_    0.932964 0.297178 0.184605 0.166880
C125  C     C_3   0.974267 0.127533 0.081077 -0.215581
C126  C     C_3   0.951431 0.066130 0.152260 -0.292663
C127  C     C_3   0.969128 0.933766 0.151382 -0.446702
H149  H     H_    0.945223 0.888133 0.105683 0.138191
H150  H     H_    0.024304 0.921894 0.146899 0.145922
H151  H     H_    0.951032 0.891624 0.201864 0.146843
H152  H     H_    0.975638 0.105591 0.199471 0.195608
H153  H     H_    0.897034 0.074150 0.162361 0.172643
H154  H     H_    0.954002 0.073527 0.037180 0.100691
H155  H     H_    0.028061 0.109291 0.078758 0.157940
C128  C     C_3   0.025614 0.127430 0.918431 -0.215153
C129  C     C_3   0.048520 0.065866 0.847181 -0.292837
C130  C     C_3   0.030771 0.933518 0.847773 -0.446756
H156  H     H_    0.054663 0.887950 0.893379 0.138334
H157  H     H_    0.975591 0.921679 0.852221 0.145941
H158  H     H_    0.048863 0.891296 0.797204 0.146298
H159  H     H_    0.024382 0.105296 0.800019 0.194865
H160  H     H_    0.102947 0.073805 0.837252 0.172687
H161  H     H_    0.045795 0.073448 0.962234 0.100532
H162  H     H_    0.971801 0.109284 0.920668 0.158254
C131  C     C_3   0.474268 0.627532 0.081077 -0.215582
C132  C     C_3   0.451431 0.566129 0.152260 -0.292664
C133  C     C_3   0.469129 0.433765 0.151383 -0.446702
H163  H     H_    0.445223 0.388132 0.105684 0.138191
H164  H     H_    0.524304 0.421893 0.146899 0.145922
H165  H     H_    0.451032 0.391624 0.201865 0.146843
H166  H     H_    0.475638 0.605591 0.199471 0.195608
H167  H     H_    0.397034 0.574149 0.162361 0.172643
H168  H     H_    0.454002 0.573526 0.037181 0.100691
H169  H     H_    0.528061 0.609291 0.078759 0.157941
C134  C     C_3   0.525614 0.627429 0.918431 -0.215152
C135  C     C_3   0.548520 0.565866 0.847181 -0.292837
C136  C     C_3   0.530771 0.433517 0.847774 -0.446757
H170  H     H_    0.554664 0.387950 0.893379 0.138335
H171  H     H_    0.475592 0.421677 0.852222 0.145940
H172  H     H_    0.548863 0.391294 0.797205 0.146298
H173  H     H_    0.524382 0.605295 0.800019 0.194865
H174  H     H_    0.602946 0.573805 0.837252 0.172688
H175  H     H_    0.545794 0.573448 0.962234 0.100533
H176  H     H_    0.471801 0.609284 0.920668 0.158253

loop_
_geom_bond_atom_site_label_1
_geom_bond_atom_site_label_2
_ccdc_geom_bond_type
C97   O45   A    
C83   H105  S    
C131  C132  S    
C82   C94   S    
C119  H11   S    
C10   C110  S    
C7    H127  S    
C120  H12   S    
C41   C61   S    
C53   C69   S    
C104  O12   A    
C125  C126  S    
C43   C63   S    
Cr5   O5    S    
C124  H146  S    
C44   C64   S    
C80   H100  S    
C63   C98   S    
C31   H40   S    
C28   C40   S    
C131  H168  S    
C36   H36   S    
C30   C38   S    
C132  H167  S    
Cr9   O37   S    
C56   C72   S    
C105  O13   A    
C21   H5    S    
C8    H132  S    
C18   C118  S    
C81   C86   S    
C108  O16   A    
C136  H172  S    
C83   C88   S    
C48   O36   A    
C74   H82   S    
C23   H135  S    
C111  H47   S    
C90   O2    A    
C41   C49   S    
C135  C136  S    
C54   H86   S    
Cr5   O17   S    
Cr2   O46   S    
C109  H1    S    
Cr7   O19   S    
Cr8   O20   S    
C118  H118  S    
C26   C38   S    
Cr10  O38   S    
C14   C114  S    
C83   H112  S    
C60   C76   S    
C24   H8    S    
C120  H120  S    
C81   H110  S    
C30   H37   S    
C47   O31   A    
C22   H134  S    
C54   C70   S    
C16   C20   S    
C75   H79   S    
C97   O49   A    
C13   C21   S    
C98   O46   A    
C102  O6    A    
C99   O51   A    
C79   H99   S    
C31   H25   S    
C19   H123  S    
C64   C97   S    
C17   H13   S    
C15   C115  S    
C110  C114  S    
C20   C120  S    
Cr7   O27   S    
C124  H148  S    
C101  O9    A    
Cr8   O28   S    
C59   C63   S    
C46   O30   A    
Cr7   O7    S    
Cr4   O24   S    
C57   C61   S    
C82   C85   S    
C77   H97   S    
C60   C64   S    
Cr9   O17   S    
C135  H174  S    
C66   C70   S    
C78   C94   S    
C113  H113  S    
C43   H51   S    
C129  C130  S    
C95   C108  S    
C62   C99   S    
C5    C21   S    
C58   H70   S    
C121  H137  S    
C133  H163  S    
C109  H45   S    
C110  H46   S    
C31   C36   S    
C85   C124  S    
C48   O32   A    
C88   C121  S    
C55   C71   S    
C60   H76   S    
Cr6   O26   S    
C91   O39   A    
C13   C45   S    
C130  H156  S    
C54   H62   S    
C80   H104  S    
Cr2   O22   S    
C65   C101  S    
Cr10  O18   S    
C43   C51   S    
Cr11  O15   S    
C129  H160  S    
C3    O23   A    
C18   H122  S    
C37   C90   S    
C73   H77   S    
C108  O44   A    
C126  H153  S    
C126  H152  S    
C66   C74   S    
C25   H17   S    
C57   C73   S    
C122  H141  S    
C105  O41   A    
C85   C93   S    
C60   H72   S    
C107  O43   A    
C56   H88   S    
C87   C95   S    
Cr5   O49   S    
C56   C64   S    
C7    H131  S    
C45   O33   A    
C128  H162  S    
C42   C62   S    
C8    C12   S    
C112  H48   S    
C76   H80   S    
Cr6   O6    S    
C83   C95   S    
C70   H66   S    
C123  H144  S    
C1    C12   S    
C43   H43   S    
C112  H4    S    
C2    C11   S    
C77   H101  S    
C7    C11   S    
C53   H85   S    
Cr12  O12   S    
C42   H42   S    
C55   H87   S    
C25   C26   S    
C134  H176  S    
C106  O14   A    
C85   C125  S    
C8    H128  S    
C5    C9    S    
C119  H119  S    
C93   C106  S    
C78   H102  S    
C121  H139  S    
C5    H125  S    
C6    H130  S    
C51   C67   S    
C42   C50   S    
C125  H155  S    
C70   H94   S    
C130  H158  S    
Cr6   O18   S    
Cr3   O47   S    
C14   C22   S    
C110  H2    S    
C61   C100  S    
C67   C75   S    
C50   H54   S    
Cr1   O1    S    
C112  C116  S    
C51   H59   S    
C58   C74   S    
C59   H75   S    
Cr11  O39   S    
Cr4   O4    S    
C33   H33   S    
C44   H44   S    
C103  O7    A    
C68   C76   S    
C13   C17   S    
C98   O50   A    
C2    O22   A    
C99   O47   A    
C79   H103  S    
C7    C23   S    
C8    C24   S    
C133  H165  S    
C40   C91   S    
C87   C122  S    
Cr7   O31   S    
C127  H151  S    
C49   H53   S    
Cr1   O41   S    
C57   H69   S    
Cr3   O43   S    
C52   H56   S    
C4    C9    S    
Cr10  O34   S    
C136  H171  S    
C58   C62   S    
C5    H129  S    
C88   C96   S    
C94   C105  S    
C53   H61   S    
C12   C112  S    
C73   H81   S    
C14   C46   S    
C77   C78   S    
C42   H50   S    
C15   C19   S    
Cr9   O33   S    
C115  H91   S    
C92   O4    A    
C58   H74   S    
Cr3   O3    S    
C6    C22   S    
C14   C18   S    
C41   H41   S    
C56   H64   S    
Cr7   O51   S    
C116  H116  S    
Cr8   O52   S    
Cr8   O32   S    
C103  O11   A    
Cr3   O23   S    
Cr11  O11   S    
C17   C117  S    
C19   C119  S    
C87   C131  S    
C24   H136  S    
C27   H23   S    
C41   H49   S    
Cr12  O40   S    
C16   C116  S    
C100  O48   A    
C20   H124  S    
C115  H115  S    
C124  H147  S    
C9    C109  S    
C67   C103  S    
C26   H18   S    
C128  C129  S    
C117  H117  S    
C106  O42   A    
C54   C62   S    
C18   H14   S    
C131  H169  S    
C25   H21   S    
C29   C34   S    
C33   C37   S    
C81   H107  S    
C82   H109  S    
C68   C72   S    
C45   O29   A    
C116  H92   S    
C117  H9    S    
C4    O24   A    
C79   C95   S    
C89   O37   A    
Cr5   O29   S    
C76   H84   S    
C127  H149  S    
Cr1   O17   S    
C114  H90   S    
Cr3   O19   S    
Cr4   O20   S    
Cr12  O16   S    
C32   H39   S    
C39   C92   S    
Cr11  O35   S    
C27   H19   S    
C84   H106  S    
C68   C104  S    
C69   H93   S    
C6    C10   S    
C71   H67   S    
C1    O25   A    
C78   H98   S    
C92   O40   A    
C22   H6    S    
C6    H126  S    
C107  O15   A    
C111  H3    S    
C114  H114  S    
C65   C69   S    
C77   C93   S    
Cr4   O44   S    
C84   H111  S    
C67   C71   S    
C122  H140  S    
C50   H58   S    
C19   H15   S    
C51   H55   S    
Cr2   O2    S    
C3    O27   A    
C59   H71   S    
Cr12  O36   S    
C29   C37   S    
C11   C111  S    
C128  H161  S    
C34   H34   S    
C55   H63   S    
C9    C117  S    
C123  H143  S    
C2    O26   A    
C35   C39   S    
C134  C135  S    
C84   C87   S    
C15   C47   S    
C11   C119  S    
C16   C48   S    
C29   H27   S    
Cr12  O20   S    
C30   H28   S    
C38   C89   S    
C17   H121  S    
C49   C65   S    
C74   H78   S    
C89   O1    A    
C23   H7    S    
C91   O3    A    
C52   H60   S    
C135  H173  S    
C49   H57   S    
Cr1   O45   S    
C57   H73   S    
Cr2   O42   S    
C65   C73   S    
C134  H175  S    
C84   C96   S    
Cr4   O48   S    
Cr8   O8    S    
C86   C94   S    
C25   C37   S    
C12   C120  S    
C27   C39   S    
C121  H138  S    
C82   H108  S    
C35   H35   S    
Cr9   O9    S    
C29   H38   S    
C80   C96   S    
C44   H52   S    
C52   C68   S    
C21   H133  S    
C125  H154  S    
C15   C23   S    
C130  H157  S    
C69   H65   S    
C86   C123  S    
C101  O5    A    
C53   C61   S    
C102  O10   A    
C129  H159  S    
C32   H26   S    
C35   H30   S    
C1    O21   A    
C32   C35   S    
C36   C40   S    
C33   H32   S    
C34   H31   S    
Cr6   O50   S    
C66   C102  S    
C55   C63   S    
Cr10  O10   S    
C122  H142  S    
C46   O34   A    
C10   C118  S    
C72   H68   S    
C81   C93   S    
C113  H89   S    
C20   H16   S    
C132  H166  S    
C133  H164  S    
Cr9   O13   S    
C50   C66   S    
C100  O52   A    
C127  H150  S    
C28   H20   S    
C86   C128  S    
C123  H145  S    
C26   H22   S    
C59   C75   S    
C136  H170  S    
C104  O8    A    
C30   C33   S    
C34   C38   S    
C88   C134  S    
C71   H95   S    
C96   C107  S    
C47   O35   A    
C4    O28   A    
C118  H10   S    
Cr5   O25   S    
C90   O38   A    
Cr6   O30   S    
C109  C113  S    
C72   H96   S    
Cr1   O21   S    
Cr2   O18   S    
Cr10  O14   S    
C3    C10   S    
Cr11  O19   S    
C44   C52   S    
C36   H29   S    
C75   H83   S    
C31   C39   S    
C32   C40   S    
C132  C133  S    
C79   C80   S    
C16   C24   S    
C126  C127  S    
C27   C28   S    
C28   H24   S    
C111  C115  S    
C13   C113  S    
