data_mof_unit_10079.cif
_audit_creation_date              2013-03-05T15:46:46-0500
_audit_creation_method            fapswitch 2.2
_symmetry_space_group_name_H-M    P1
_symmetry_Int_Tables_number       1
_space_group_crystal_system       triclinic
_cell_length_a                    10.166694
_cell_length_b                    10.842347
_cell_length_c                    12.461921
_cell_angle_alpha                 90.783786
_cell_angle_beta                  109.776078
_cell_angle_gamma                 95.761523
_cell_volume                      1284.47411771

loop_
_atom_site_label
_atom_site_type_symbol
_atom_site_description
_atom_site_fract_x
_atom_site_fract_y
_atom_site_fract_z
_atom_type_partial_charge
O1    O     O_R   0.936910 0.692950 0.509080 -0.588648
O2    O     O_R   0.138320 0.658600 0.480130 -0.627590
C1    C     C_R   0.053401 0.732551 0.495430 0.951896
O3    O     O_R   0.002900 0.525670 0.675280 -0.549735
O4    O     O_R   0.204310 0.491320 0.646330 -0.617950
C2    C     C_R   0.139180 0.534004 0.709883 0.907556
Zn1   Zn    Zn3+2 0.865520 0.522940 0.519330 0.983626
Zn2   Zn    Zn3+2 0.134480 0.477060 0.480670 0.936967
O5    O     O_R   0.861680 0.341400 0.519870 -0.621277
O6    O     O_R   0.063090 0.307050 0.490920 -0.608926
O7    O     O_R   0.795690 0.508680 0.353670 -0.620587
O8    O     O_R   0.997100 0.474330 0.324720 -0.611586
C3    C     C_R   0.950120 0.267903 0.510426 0.943137
C4    C     C_R   0.863931 0.484418 0.286587 0.912446
C5    C     C_R   0.783311 0.479752 0.969297 0.579981
H1    H     H_    0.965494 0.448952 0.111619 0.176427
H2    H     H_    0.639496 0.563650 0.766448 0.190771
C6    C     C_R   0.788586 0.478731 0.164467 -0.142241
C7    C     C_R   0.159913 0.624295 0.904383 0.365365
C8    C     C_R   0.232098 0.618820 0.021528 -0.213269
C9    C     C_R   0.366018 0.579857 0.060618 -0.267828
C10   C     C_R   0.437761 0.558170 0.983540 0.126184
C11   C     C_R   0.369163 0.575697 0.867469 0.051285
C12   C     C_R   0.576275 0.523522 0.017017 0.029557
C13   C     C_R   0.647347 0.518244 0.936584 0.043433
C14   C     C_R   0.584052 0.556954 0.826851 -0.185302
C15   C     C_R   0.448685 0.589797 0.794498 -0.176033
C16   C     C_R   0.646653 0.495155 0.128549 -0.266344
C17   C     C_R   0.856286 0.466513 0.084740 -0.274011
C18   C     C_R   0.222920 0.582076 0.827391 -0.263009
H3    H     H_    0.594125 0.490135 0.190434 0.170131
H4    H     H_    0.413788 0.577311 0.151907 0.156477
H5    H     H_    0.185940 0.646572 0.083419 0.187089
H6    H     H_    0.406658 0.629086 0.712554 0.160472
H7    H     H_    0.130957 0.108342 0.525854 0.188651
H8    H     H_    0.918234 0.897554 0.556071 0.206757
C19   C     C_2   0.089523 0.865119 0.502345 -0.374866
C20   C     C_2   0.008276 0.936389 0.534182 -0.097928
H9    H     H_    0.827405 0.096476 0.530773 0.151181
C21   C     C_2   0.927285 0.136917 0.525679 -0.377970
C22   C     C_2   0.030883 0.068302 0.531047 -0.147307
H10   H     H_    0.179252 0.904363 0.480383 0.147588
H11   H     H_    0.567174 0.410093 0.434574 0.161863
H12   H     H_    0.428940 0.604501 0.543794 0.150624
N1    N     N_2   0.313640 0.446500 0.454900 -0.191055
C23   C     C_2   0.430246 0.518849 0.498952 -0.139438
H13   H     H_    0.682209 0.628793 0.594724 0.184193
N2    N     N_2   0.686360 0.553430 0.545150 -0.178538
C24   C     C_2   0.567468 0.488438 0.489811 -0.151989
H14   H     H_    0.319849 0.365559 0.413401 0.164135
O9    O     O_3   0.850411 0.466613 0.890828 -0.586633
C25   C     C_3   0.820874 0.342492 0.847250 -0.323251
H15   H     H_    0.706095 0.317705 0.801762 0.159082
H16   H     H_    0.861384 0.277295 0.916051 0.163266
H17   H     H_    0.874952 0.331558 0.784425 0.214839
N3    N     N_R   0.034049 0.686130 0.866159 0.241172
O10   O     O_R   0.970982 0.711906 0.937489 -0.391351
O11   O     O_R   0.003283 0.743612 0.771270 -0.411489

loop_
_geom_bond_atom_site_label_1
_geom_bond_atom_site_label_2
_geom_bond_distance
_ccdc_geom_bond_type
C7    N3    1.443024 S    
O4    Zn2   1.940951 S    
C11   C18   1.408521 A    
C19   C20   1.333551 D    
C5    O9    1.381669 S    
C4    C6    1.451110 S    
H13   N2    1.030471 S    
C25   H17   1.109554 S    
Zn2   O8    1.970257 S    
Zn1   N2    2.011253 S    
C8    C9    1.393486 A    
H8    C20   1.088321 S    
O2    C1    1.292596 A    
O8    C4    1.290961 A    
C6    C17   1.398531 A    
O1    Zn1   1.934281 S    
N1    C23   1.297395 D    
C12   C13   1.423699 A    
Zn1   O7    1.940951 S    
C23   C24   1.505600 S    
H1    C17   1.083379 S    
C14   C15   1.382114 A    
N1    H14   1.030727 S    
O3    Zn1   1.970257 S    
H2    C14   1.081685 S    
Zn2   O6    1.934283 S    
N2    C24   1.298002 D    
C2    C18   1.478938 S    
C25   H16   1.113783 S    
C5    C17   1.394810 A    
C11   C15   1.407271 A    
N3    O11   1.301379 A    
C15   H6    1.077044 S    
O4    C2    1.298563 A    
H7    C22   1.088320 S    
O7    C4    1.293252 A    
C10   C12   1.418178 A    
C5    C13   1.410775 A    
C16   H3    1.075607 S    
C8    H5    1.082845 S    
O9    C25   1.408791 S    
C9    H4    1.077279 S    
C12   C16   1.386111 A    
H9    C21   1.087393 S    
C6    C16   1.389594 A    
N3    O10   1.301632 A    
C1    C19   1.441355 S    
C20   C22   1.428835 S    
O3    C2    1.297412 A    
O2    Zn2   1.964932 S    
C19   H10   1.087353 S    
Zn1   O5    1.964935 S    
O5    C3    1.292373 A    
Zn2   N1    2.011156 S    
C21   C22   1.333515 D    
C3    C21   1.441540 S    
H12   C23   1.080831 S    
C13   C14   1.390934 A    
C9    C10   1.418546 A    
C7    C18   1.415344 A    
C10   C11   1.402241 A    
H11   C24   1.085122 S    
C7    C8    1.399800 A    
C25   H15   1.113785 S    
O1    C1    1.285355 A    
O6    C3    1.285393 A    
