data_mof_unit_39866.cif
_audit_creation_date              2012-12-11T16:31:29-0500
_audit_creation_method            fapswitch 2.2
_symmetry_space_group_name_H-M    P1
_symmetry_Int_Tables_number       1
_space_group_crystal_system       triclinic
_cell_length_a                    6.957455
_cell_length_b                    18.126304
_cell_length_c                    20.348471
_cell_angle_alpha                 68.40005
_cell_angle_beta                  90.880294
_cell_angle_gamma                 91.139649
_cell_volume                      2385.43719934

loop_
_atom_site_label
_atom_site_type_symbol
_atom_type_description
_atom_site_fract_x
_atom_site_fract_y
_atom_site_fract_z
_atom_type_partial_charge
O1    O     O_R   0.488990 0.443920 0.942160 -0.539605
O2    O     O_R   0.823840 0.406530 0.087600 -0.542628
O3    O     O_R   0.999650 0.556080 0.057840 -0.524659
C1    C     C_R   0.655302 0.383334 0.114829 0.684891
O4    O     O_R   0.818390 0.434590 0.944530 -0.538371
O5    O     O_R   0.994160 0.584350 0.913750 -0.528316
C2    C     C_R   0.648353 0.420515 0.924087 0.717091
O6    O     O_R   0.494480 0.415650 0.086250 -0.537099
O7    O     O_3   0.662600 0.549100 0.990070 -0.358552
V1    V     V_3+5 0.935320 0.490890 0.001840 1.447483
O8    O     O_R   0.324240 0.593470 0.912400 -0.544203
C3    C     C_R   0.155687 0.618148 0.885845 0.677045
O9    O     O_R   0.329690 0.565410 0.055470 -0.546277
C4    C     C_R   0.163719 0.576545 0.078245 0.740434
V2    V     V_3+5 0.435990 0.509110 0.998160 1.429331
O10   O     O_3   0.158840 0.450900 0.009930 -0.371126
C5    C     C_3   0.926997 0.720709 0.223726 0.268676
C6    C     C_3   0.258243 0.661352 0.283176 0.211175
C7    C     C_3   0.242198 0.706914 0.336610 0.352838
H1    H     H_    0.854389 0.717645 0.329643 0.214246
H2    H     H_    0.409684 0.670447 0.265897 0.138939
C8    C     C_1   0.106594 0.874217 0.378694 -0.118713
C9    C     C_3   0.142306 0.703146 0.211520 0.003928
C10   C     C_3   0.921037 0.759406 0.280445 -0.368759
C11   C     C_3   0.124560 0.784657 0.297466 0.010830
C12   C     C_3   0.219772 0.835327 0.225338 -0.528360
C13   C     C_3   0.235514 0.787857 0.175145 0.223305
C14   C     C_1   0.110870 0.834145 0.342153 0.122337
C15   C     C_1   0.155635 0.658171 0.163468 0.054034
C16   C     C_1   0.161434 0.621099 0.124529 -0.160635
H3    H     H_    0.149965 0.819215 0.125991 0.087661
H4    H     H_    0.131827 0.888934 0.198451 0.157060
H5    H     H_    0.872067 0.767564 0.174614 0.083689
H6    H     H_    0.828645 0.812438 0.260412 0.182873
H7    H     H_    0.363411 0.857889 0.234257 0.222006
H8    H     H_    0.474395 0.549836 0.704861 0.134674
C17   C     C_R   0.996093 0.777836 0.872710 0.004525
C18   C     C_R   0.887325 0.845563 0.862864 -0.093388
C19   C     C_R   0.859729 0.902267 0.796351 -0.159407
C20   C     C_R   0.940351 0.892861 0.738347 -0.148807
C21   C     C_R   0.038208 0.822726 0.744393 0.062624
C22   C     C_R   0.061303 0.761616 0.812720 -0.005086
C23   C     C_R   0.113747 0.814156 0.683201 -0.183415
C24   C     C_R   0.198660 0.741562 0.688494 -0.033396
C25   C     C_R   0.225591 0.680698 0.756221 0.035524
C26   C     C_R   0.150060 0.688652 0.817997 -0.166682
C27   C     C_R   0.249702 0.725675 0.627332 0.461565
C28   C     C_R   0.358629 0.659256 0.634159 -0.178518
C29   C     C_R   0.396279 0.602638 0.700233 -0.232336
C30   C     C_R   0.324033 0.611248 0.760210 -0.148605
H9    H     H_    0.833782 0.857644 0.907581 0.144710
H10   H     H_    0.782368 0.955779 0.790004 0.123388
H11   H     H_    0.922612 0.941856 0.688755 0.115750
H12   H     H_    0.404940 0.649485 0.587573 0.144193
H13   H     H_    0.347898 0.562272 0.809333 0.136970
H14   H     H_    0.613477 0.488711 0.302220 0.175194
C31   C     C_R   0.681463 0.219796 0.126610 -0.138024
C32   C     C_R   0.693091 0.141858 0.129989 -0.215975
C33   C     C_R   0.680379 0.078701 0.194785 0.069263
C34   C     C_R   0.656404 0.094320 0.256649 -0.145385
C35   C     C_R   0.645127 0.172953 0.254878 0.013039
C36   C     C_R   0.657704 0.236888 0.188390 0.077621
C37   C     C_R   0.617858 0.187904 0.317981 -0.181798
C38   C     C_R   0.601185 0.268016 0.314125 -0.022697
C39   C     C_R   0.624531 0.331751 0.247357 0.024917
C40   C     C_R   0.646433 0.316213 0.184531 -0.150068
C41   C     C_R   0.561531 0.287827 0.374403 0.426392
C42   C     C_R   0.575321 0.367089 0.369474 -0.184120
C43   C     C_R   0.607428 0.427875 0.305175 -0.196250
C44   C     C_R   0.626925 0.410923 0.244496 -0.160140
H15   H     H_    0.691289 0.266460 0.074924 0.100617
H16   H     H_    0.711317 0.130884 0.081601 0.107898
H17   H     H_    0.645317 0.044194 0.306089 0.140996
H18   H     H_    0.555749 0.381714 0.415942 0.127157
H19   H     H_    0.647227 0.460722 0.195361 0.106421
O11   O     O_R   0.770890 0.084490 0.414040 -0.547786
O12   O     O_R   0.445980 0.065450 0.555510 -0.540655
O13   O     O_R   0.270670 0.915620 0.586180 -0.529287
C45   C     C_R   0.615757 0.079349 0.576249 0.771553
O14   O     O_R   0.441480 0.093500 0.412450 -0.530977
O15   O     O_R   0.266140 0.943870 0.442100 -0.518158
C46   C     C_R   0.610417 0.119127 0.386885 0.783529
O16   O     O_R   0.775410 0.056240 0.558120 -0.549763
O17   O     O_3   0.602660 0.950990 0.510100 -0.362191
V3    V     V_3+5 0.329740 0.009100 0.498130 1.470229
O18   O     O_R   0.936120 0.934420 0.444240 -0.539000
C47   C     C_R   0.102869 0.921298 0.423072 0.773511
O19   O     O_R   0.940610 0.906370 0.587310 -0.547716
C48   C     C_R   0.108736 0.882833 0.614448 0.779892
V4    V     V_3+5 0.829110 0.990690 0.501470 1.448331
O20   O     O_3   0.106080 0.049010 0.489880 -0.389113
C49   C     C_3   0.758847 0.283546 0.678106 -0.358898
C50   C     C_3   0.420080 0.237606 0.714548 -0.071172
C51   C     C_3   0.422311 0.285150 0.765112 -0.324261
H20   H     H_    0.711341 0.392928 0.697815 0.137787
H21   H     H_    0.708011 0.322067 0.624528 0.141881
H22   H     H_    0.374756 0.279114 0.661208 0.057046
H23   H     H_    0.367021 0.345849 0.735983 0.110757
H24   H     H_    0.325106 0.257416 0.810892 0.169377
C52   C     C_1   0.637234 0.374908 0.878581 -0.190709
C53   C     C_3   0.626916 0.208674 0.707777 0.238331
C54   C     C_3   0.760631 0.331484 0.727791 -0.336032
C55   C     C_3   0.629163 0.291115 0.792584 0.254385
C56   C     C_3   0.702007 0.205612 0.832349 -0.311252
C57   C     C_3   0.705292 0.158080 0.782424 -0.304987
C58   C     C_1   0.632141 0.337141 0.840056 -0.093665
C59   C     C_1   0.628674 0.162836 0.660089 -0.111389
C60   C     C_1   0.625890 0.125045 0.621624 -0.176445
H25   H     H_    0.855274 0.140360 0.778136 0.163425
H26   H     H_    0.620288 0.102118 0.805746 0.177891
H27   H     H_    0.849299 0.207855 0.853745 0.148722
H28   H     H_    0.908030 0.265977 0.672240 0.139952
H29   H     H_    0.910569 0.336095 0.745965 0.145792
H30   H     H_    0.607303 0.174280 0.878114 0.156255
C61   C     C_2   0.059537 0.733942 0.946033 0.339705
H31   H     H_    0.200989 0.708177 0.956583 0.031426
O21   O     O_2   0.957751 0.729983 0.995649 -0.556128
O22   O     O_3   0.178301 0.769853 0.561041 -0.562384
C62   C     C_3   0.002124 0.734263 0.552069 -0.201521
H32   H     H_    0.895519 0.733415 0.592636 0.124530
H33   H     H_    0.023390 0.673119 0.553158 0.140286
H34   H     H_    0.939328 0.769254 0.499832 0.178298
O23   O     O_3   0.800762 0.653623 0.243315 -0.569755
C63   C     C_3   0.721841 0.639097 0.184387 -0.179476
H35   H     H_    0.720131 0.691199 0.133801 0.172960
H36   H     H_    0.571321 0.617964 0.196080 0.165911
H37   H     H_    0.799487 0.590234 0.176727 0.122376
C64   C     C_2   0.691245 0.996384 0.197250 0.294902
H38   H     H_    0.714452 0.985184 0.149135 0.035540
O24   O     O_2   0.673898 0.940098 0.253010 -0.554076
O25   O     O_3   0.508319 0.230781 0.438417 -0.574945
C65   C     C_3   0.310718 0.239440 0.448917 -0.207327
H39   H     H_    0.221103 0.232605 0.405624 0.136038
H40   H     H_    0.281368 0.297084 0.454168 0.105901
H41   H     H_    0.264981 0.192571 0.499053 0.167826
C66   C     C_2   0.271875 0.170881 0.736131 0.316358
H42   H     H_    0.179489 0.162057 0.696097 0.039067
O26   O     O_2   0.257906 0.125151 0.797424 -0.542773
O27   O     O_3   0.250940 0.576807 0.314067 -0.569942
C67   C     C_3   0.065351 0.542807 0.327746 -0.125683
H43   H     H_    0.005683 0.534716 0.280058 0.163232
H44   H     H_    0.967354 0.575538 0.349269 0.202126
H45   H     H_    0.077849 0.482429 0.368717 0.114485
O28   O     O_3   0.140230 0.661067 0.399471 -0.550462
C68   C     C_3   0.245337 0.597528 0.448249 -0.120662
H46   H     H_    0.286939 0.612826 0.494464 0.152307
H47   H     H_    0.376810 0.581596 0.426334 0.149957
H48   H     H_    0.150395 0.544160 0.467857 0.111956
C69   C     C_2   0.440678 0.733475 0.353968 0.323154
H49   H     H_    0.546017 0.754701 0.312779 0.057298
O29   O     O_2   0.478130 0.736885 0.411644 -0.517277
O30   O     O_3   0.430994 0.782367 0.158429 -0.550083
C70   C     C_3   0.485504 0.848225 0.098067 -0.239754
H50   H     H_    0.454879 0.905328 0.104243 0.134465
H51   H     H_    0.412284 0.845577 0.049999 0.146918
H52   H     H_    0.642437 0.846358 0.090427 0.148128

loop_
_geom_bond_atom_site_label_1
_geom_bond_atom_site_label_2
_ccdc_geom_bond_type
C53   C59   S    
C1    C40   S    
C57   H26   S    
C12   H4    S    
C13   O30   S    
C6    H2    S    
C21   C22   A    
C67   H43   S    
C67   H45   S    
C1    O6    A    
C50   C66   S    
C64   H38   S    
C68   H46   S    
V3    O20   S    
O23   C63   S    
C25   C26   A    
C11   C14   S    
C28   H12   S    
C12   C13   S    
O14   V3    S    
C5    H5    S    
C9    C15   S    
C17   C18   A    
C67   H44   S    
C69   O29   D    
O5    C3    A    
C18   C19   A    
C51   H23   S    
C42   H18   S    
C61   H31   S    
C7    O28   S    
C34   H17   S    
C49   H21   S    
C31   H15   S    
C6    C7    S    
C22   C26   A    
C17   C22   A    
C35   C37   A    
O22   C62   S    
C54   C55   S    
O8    V2    S    
C5    O23   S    
C27   O22   S    
H1    C10   S    
C42   C43   A    
C61   O21   D    
C59   C60   T    
O1    V2    S    
C9    C13   S    
C70   H51   S    
O7    V1    S    
C35   C36   A    
V4    O20   S    
C24   C27   A    
C49   C54   S    
O12   C45   A    
C19   H10   S    
O12   V3    S    
C33   C34   A    
C8    C14   T    
O9    C4    A    
C21   C23   A    
C6    O27   S    
O17   V4    S    
C4    C16   S    
C56   C57   S    
C68   H47   S    
C62   H33   S    
O13   C48   A    
C53   C57   S    
C5    C10   S    
C2    C52   S    
C36   C40   A    
C37   C46   S    
C13   H3    S    
C41   C42   A    
C38   C41   A    
C31   C36   A    
O17   V3    S    
C66   O26   D    
O18   V4    S    
O11   C46   A    
C19   C20   A    
O4    C2    A    
O18   C47   A    
C49   H28   S    
C18   H9    S    
C33   C64   S    
C10   H6    S    
C6    C9    S    
C34   C35   A    
O2    C1    A    
C23   C24   A    
C15   C16   T    
C27   C28   A    
C5    C9    S    
C62   H32   S    
C50   C51   S    
C23   C48   S    
C8    C47   S    
C10   C11   S    
C70   H52   S    
O15   C47   A    
O3    C4    A    
C49   C53   S    
C63   H37   S    
C56   H30   S    
O13   V3    S    
C3    C26   S    
C28   C29   A    
O19   V4    S    
C51   C55   S    
C29   C30   A    
O6    V2    S    
O9    V2    S    
C32   C33   A    
C50   C53   S    
O25   C65   S    
O2    V1    S    
C50   H22   S    
C55   C56   S    
C68   H48   S    
C24   C25   A    
C63   H36   S    
C62   H34   S    
O16   V4    S    
C57   H25   S    
C20   C21   A    
O1    C2    A    
C41   O25   S    
C66   H42   S    
C64   O24   D    
O5    V1    S    
C56   H27   S    
O27   C67   S    
H20   C54   S    
C17   C61   S    
C52   C58   T    
C30   H13   S    
O28   C68   S    
C51   H24   S    
C38   C39   A    
C11   C12   S    
O4    V1    S    
O3    V1    S    
V1    O10   S    
C69   H49   S    
C45   O16   A    
C32   H16   S    
C31   C32   A    
C25   C30   A    
C65   H41   S    
V2    O10   S    
C7    C69   S    
O14   C46   A    
C45   C60   S    
C65   H39   S    
C55   C58   S    
C39   C40   A    
O7    V2    S    
C43   C44   A    
C7    C11   S    
C20   H11   S    
C37   C38   A    
C12   H7    S    
O19   C48   A    
C65   H40   S    
H14   C43   S    
C44   H19   S    
C54   H29   S    
O30   C70   S    
C70   H50   S    
O15   V3    S    
H8    C29   S    
C39   C44   A    
O8    C3    A    
O11   V4    S    
C63   H35   S    
