data_mof_unit_52039.cif
_audit_creation_date              2012-10-26T20:13:57-0400
_audit_creation_method            fapswitch 2.2
_symmetry_space_group_name_H-M    P1
_symmetry_Int_Tables_number       1
_space_group_crystal_system       triclinic
_cell_length_a                    8.766866
_cell_length_b                    10.827734
_cell_length_c                    9.603583
_cell_angle_alpha                 91.14708
_cell_angle_beta                  97.844508
_cell_angle_gamma                 92.170952
_cell_volume                      902.151675323

loop_
_atom_site_label
_atom_site_type_symbol
_atom_type_description
_atom_site_fract_x
_atom_site_fract_y
_atom_site_fract_z
_atom_type_partial_charge
C1    C     C_R   0.492627 0.262613 0.498215 0.606598
C2    C     C_R   0.605919 0.570864 0.941479 0.131087
C3    C     C_3   0.632315 0.707223 0.941711 -0.284830
C4    C     C_R   0.204057 0.498497 0.464465 0.545292
C5    C     C_3   0.631180 0.707616 0.099664 -0.274367
C6    C     C_R   0.500724 0.737498 0.501432 0.585882
C7    C     C_R   0.795545 0.500225 0.536458 0.581276
C8    C     C_2   0.038548 0.503282 0.447896 -0.133068
C9    C     C_2   0.960737 0.495055 0.559246 0.236232
C10   C     C_R   0.560609 0.069553 0.611039 -0.056877
C11   C     C_R   0.480583 0.128895 0.498519 0.017816
C12   C     C_R   0.381928 0.927086 0.400823 0.233258
C13   C     C_R   0.380154 0.057547 0.398089 0.072524
C14   C     C_3   0.051004 0.566344 0.782279 -0.092724
C15   C     C_3   0.156490 0.815961 0.343633 -0.112545
C16   C     C_3   0.971676 0.878937 0.686242 -0.142264
C17   C     C_R   0.485794 0.870165 0.503616 0.017281
C18   C     C_R   0.563506 0.943002 0.614542 -0.048270
C19   C     C_3   0.726780 0.947240 0.687143 0.172453
C20   C     C_3   0.722808 0.088761 0.680707 0.006560
C21   C     C_R   0.606486 0.570518 0.088152 0.119998
C22   C     C_R   0.404511 0.422015 0.062049 0.231790
C23   C     C_R   0.409522 0.416942 0.914462 0.196416
Cu1   Cu    Cu3+1 0.499990 0.499980 0.640670 0.956225
Cu2   Cu    Cu3+1 0.500010 0.500020 0.359330 1.003280
H1    H     H_    0.980086 0.519199 0.342888 0.078164
H2    H     H_    0.939267 0.601528 0.804108 0.124782
H3    H     H_    0.121849 0.640704 0.740715 0.110462
H4    H     H_    0.114024 0.539255 0.884384 0.137627
H5    H     H_    0.283616 0.075272 0.197224 0.251613
H6    H     H_    0.164067 0.098590 0.317687 0.226596
H7    H     H_    0.180669 0.757366 0.437054 0.103825
H8    H     H_    0.086980 0.758394 0.259405 0.135659
H9    H     H_    0.085968 0.894626 0.368399 0.118086
H10   H     H_    0.027022 0.969702 0.723648 0.119278
H11   H     H_    0.049193 0.833271 0.621350 0.116468
H12   H     H_    0.747527 0.732297 0.912677 0.109729
H13   H     H_    0.960311 0.819912 0.777788 0.091825
H14   H     H_    0.935200 0.152814 0.638625 0.242697
H15   H     H_    0.818988 0.096722 0.493750 0.268583
H16   H     H_    0.316777 0.252756 0.089634 0.234370
H17   H     H_    0.186947 0.364167 0.077978 0.221082
H18   H     H_    0.533995 0.755406 0.884234 0.149396
H19   H     H_    0.744613 0.735804 0.160670 0.123076
H20   H     H_    0.531011 0.755147 0.132066 0.191185
H21   H     H_    0.732099 0.913118 0.795990 0.077513
H22   H     H_    0.730656 0.136447 0.785237 0.123839
H23   H     H_    0.268661 0.340748 0.742249 0.317867
H24   H     H_    0.404029 0.246313 0.822962 0.232023
N1    N     N_R   0.500980 0.500930 0.148050 -0.222646
N2    N     N_R   0.500990 0.500890 0.852140 -0.239152
N3    N     N_3   0.326820 0.314951 0.837516 -0.645437
N4    N     N_3   0.275923 0.116560 0.295206 -0.604985
N5    N     N_3   0.821943 0.147912 0.587707 -0.593569
N6    N     N_3   0.298391 0.342842 0.121695 -0.525055
O1    O     O_R   0.500000 0.319640 0.618810 -0.524108
O2    O     O_3   0.293576 0.857355 0.294810 -0.572715
O3    O     O_3   0.827978 0.892739 0.603360 -0.568363
O4    O     O_R   0.500020 0.319680 0.381230 -0.448374
O5    O     O_R   0.274830 0.499980 0.591380 -0.485973
O6    O     O_R   0.274850 0.500020 0.353800 -0.478050
O7    O     O_R   0.499980 0.680320 0.618770 -0.529829
O8    O     O_R   0.500000 0.680360 0.381190 -0.470979
O9    O     O_R   0.725150 0.499980 0.646200 -0.473744
O10   O     O_R   0.725170 0.500020 0.408620 -0.535138
O11   O     O_3   0.030578 0.461529 0.690990 -0.556648

loop_
_geom_bond_atom_site_label_1
_geom_bond_atom_site_label_2
_ccdc_geom_bond_type
C6    O8    A    
C12   C17   A    
Cu1   O7    S    
C22   N6    S    
H17   N6    S    
Cu1   O1    S    
C8    H1    S    
C16   H10   S    
C15   H9    S    
C23   N2    A    
C19   C20   S    
C1    C11   S    
C4    C8    S    
C22   N1    A    
H24   N3    S    
C3    H18   S    
C4    O5    A    
C2    C21   A    
C2    C3    S    
C14   O11   S    
C19   H21   S    
C5    C21   S    
C15   H7    S    
Cu1   O9    S    
Cu2   O6    S    
C16   H11   S    
C12   C13   A    
C15   O2    S    
C6    O7    A    
C23   N3    S    
Cu1   N2    S    
C12   O2    S    
C21   N1    A    
C1    O1    A    
C10   C18   A    
C17   C18   A    
H23   N3    S    
C13   N4    S    
C10   C11   A    
C1    O4    A    
C19   O3    S    
C14   H2    S    
H5    N4    S    
C7    O9    A    
H14   N5    S    
C7    O10   A    
C2    N2    A    
C14   H4    S    
C20   H22   S    
C3    C5    S    
C11   C13   A    
Cu2   O10   S    
Cu1   Cu2   S    
C3    H12   S    
C20   N5    S    
C18   C19   S    
Cu2   O8    S    
C16   H13   S    
C7    C9    S    
C6    C17   S    
Cu2   N1    S    
H16   N6    S    
C16   O3    S    
Cu1   O5    S    
Cu2   O4    S    
C14   H3    S    
C9    O11   S    
C5    H20   S    
C4    O6    A    
C5    H19   S    
C22   C23   A    
H6    N4    S    
H15   N5    S    
C10   C20   S    
C8    C9    D    
C15   H8    S    
