data_mof_unit_8144.cif
_audit_creation_date              2012-12-11T15:08:42-0500
_audit_creation_method            fapswitch 2.2
_symmetry_space_group_name_H-M    P1
_symmetry_Int_Tables_number       1
_space_group_crystal_system       triclinic
_cell_length_a                    26.866221
_cell_length_b                    7.080789
_cell_length_c                    11.927728
_cell_angle_alpha                 89.999458
_cell_angle_beta                  103.247685
_cell_angle_gamma                 89.993708
_cell_volume                      2208.67684998

loop_
_atom_site_label
_atom_site_type_symbol
_atom_type_description
_atom_site_fract_x
_atom_site_fract_y
_atom_site_fract_z
_atom_type_partial_charge
O1    O     O_R   0.437360 0.505910 0.042120 -0.531015
O2    O     O_R   0.562640 0.005910 0.957880 -0.530985
O3    O     O_R   0.542480 0.176660 0.157100 -0.542567
O4    O     O_R   0.457520 0.676660 0.842900 -0.542582
C1    C     C_R   0.556461 0.344226 0.198060 0.701243
C2    C     C_R   0.443541 0.844242 0.801940 0.701268
O5    O     O_R   0.436520 0.176250 0.054800 -0.546358
O6    O     O_R   0.563480 0.676250 0.945200 -0.546438
O7    O     O_R   0.455920 0.005040 0.854840 -0.536490
O8    O     O_R   0.544080 0.505040 0.145160 -0.536493
C3    C     C_R   0.416897 0.344457 0.060992 0.717245
C4    C     C_R   0.583105 0.844438 0.939006 0.717272
O9    O     O_3   0.506490 0.338900 0.934520 -0.367051
O10   O     O_3   0.493510 0.838900 0.065480 -0.366982
V1    V     V_3+5 0.498800 0.064400 0.012150 1.467565
V2    V     V_3+5 0.501200 0.564400 0.987850 1.467428
C5    C     C_R   0.682712 0.788011 0.767169 -0.172329
C6    C     C_R   0.317293 0.288926 0.232908 -0.172249
H1    H     H_    0.601798 0.748181 0.736181 0.129247
H2    H     H_    0.398212 0.249083 0.263965 0.129176
H3    H     H_    0.775233 0.807949 0.725063 0.127874
H4    H     H_    0.224776 0.309364 0.274995 0.127870
H5    H     H_    0.683590 0.751375 0.679384 0.136122
H6    H     H_    0.316420 0.252733 0.320760 0.136108
C7    C     C_R   0.633141 0.849619 0.908628 -0.033103
C8    C     C_R   0.366856 0.349722 0.091337 -0.033088
C9    C     C_R   0.868608 0.853318 0.213718 -0.124141
C10   C     C_R   0.131379 0.352597 0.786278 -0.124067
C11   C     C_R   0.823002 0.837055 0.249215 -0.122384
C12   C     C_R   0.176981 0.336042 0.750796 -0.122393
C13   C     C_R   0.776427 0.835961 0.168404 -0.166406
C14   C     C_R   0.223560 0.335204 0.831598 -0.166361
C15   C     C_R   0.774133 0.861494 0.049693 0.092941
C16   C     C_R   0.225860 0.361340 0.950266 0.092914
C17   C     C_R   0.821108 0.863152 0.013317 0.093720
C18   C     C_R   0.178889 0.363358 0.986654 0.093744
C19   C     C_R   0.726745 0.866118 0.965034 0.064826
C20   C     C_R   0.273251 0.366203 0.034908 0.064857
C21   C     C_R   0.727936 0.827748 0.848699 0.105924
C22   C     C_R   0.272067 0.328404 0.151313 0.105971
C23   C     C_R   0.774309 0.828677 0.814637 -0.177071
C24   C     C_R   0.225696 0.329665 0.185385 -0.177157
C25   C     C_R   0.820060 0.856533 0.894950 -0.152726
C26   C     C_R   0.179944 0.357333 0.105036 -0.152614
C27   C     C_R   0.678097 0.904008 0.989888 0.078536
C28   C     C_R   0.321896 0.403809 0.009976 0.078586
C29   C     C_R   0.636099 0.788448 0.798934 -0.184551
C30   C     C_R   0.363906 0.289097 0.201140 -0.184687
C31   C     C_R   0.868211 0.862344 0.096435 -0.039733
C32   C     C_R   0.131783 0.362242 0.903547 -0.039712
H7    H     H_    0.904475 0.852607 0.277744 0.105962
H8    H     H_    0.095508 0.351612 0.722264 0.106025
H9    H     H_    0.742670 0.806727 0.200018 0.135023
H10   H     H_    0.257312 0.305677 0.800025 0.135025
H11   H     H_    0.823765 0.820687 0.339850 0.127660
H12   H     H_    0.176214 0.319198 0.660189 0.127663
H13   H     H_    0.854912 0.858508 0.863965 0.113460
H14   H     H_    0.145095 0.359597 0.136029 0.113440
C33   C     C_R   0.092039 0.857122 0.311576 -0.085420
C34   C     C_R   0.907961 0.357202 0.688419 -0.085427
C35   C     C_R   0.409374 0.847892 0.687240 -0.043704
C36   C     C_R   0.590630 0.347809 0.312760 -0.043723
C37   C     C_R   0.103830 0.833851 0.518326 -0.037489
C38   C     C_R   0.896187 0.334831 0.481637 -0.037521
C39   C     C_R   0.072028 0.840695 0.408376 -0.206363
C40   C     C_R   0.927982 0.341433 0.591599 -0.206356
C41   C     C_R   0.145201 0.856922 0.322121 -0.104429
C42   C     C_R   0.854799 0.356650 0.677865 -0.104427
C43   C     C_R   0.179385 0.833760 0.433056 0.025558
C44   C     C_R   0.820627 0.333716 0.566895 0.025562
C45   C     C_R   0.158250 0.838285 0.533367 0.030654
C46   C     C_R   0.841763 0.338792 0.466592 0.030648
C47   C     C_R   0.233763 0.810646 0.448129 0.051152
C48   C     C_R   0.766256 0.310355 0.551790 0.051106
C49   C     C_R   0.267090 0.839043 0.558137 0.061600
C50   C     C_R   0.732920 0.338994 0.441816 0.061561
C51   C     C_R   0.245051 0.859950 0.653509 -0.238775
C52   C     C_R   0.754952 0.360257 0.346460 -0.238686
C53   C     C_R   0.192466 0.849359 0.643691 -0.073770
C54   C     C_R   0.807541 0.349930 0.356272 -0.073759
C55   C     C_R   0.255673 0.745839 0.358575 -0.183927
C56   C     C_R   0.744366 0.245095 0.641266 -0.183853
C57   C     C_R   0.308039 0.740788 0.369248 -0.199969
C58   C     C_R   0.692001 0.239927 0.630607 -0.199977
C59   C     C_R   0.341737 0.787332 0.473257 0.076681
C60   C     C_R   0.658291 0.286766 0.526665 0.076647
C61   C     C_R   0.321558 0.834312 0.570259 0.083405
C62   C     C_R   0.678454 0.334122 0.429702 0.083366
C63   C     C_R   0.395348 0.777314 0.484042 -0.028320
C64   C     C_R   0.604683 0.276663 0.515895 -0.028307
C65   C     C_R   0.428509 0.804201 0.591296 -0.195424
C66   C     C_R   0.571511 0.303789 0.408677 -0.195388
C67   C     C_R   0.356801 0.868812 0.676461 -0.224728
C68   C     C_R   0.643200 0.368852 0.323542 -0.224743
H15   H     H_    0.344999 0.906413 0.753904 0.102118
H16   H     H_    0.654991 0.406703 0.246126 0.102185
H17   H     H_    0.469417 0.787241 0.600865 0.117035
H18   H     H_    0.530607 0.286732 0.399108 0.116978
H19   H     H_    0.321899 0.693723 0.295554 0.156376
H20   H     H_    0.678155 0.192548 0.704250 0.156383
H21   H     H_    0.030790 0.836700 0.397755 0.115939
H22   H     H_    0.969223 0.337812 0.602220 0.115975
H23   H     H_    0.268199 0.874937 0.739546 0.124225
H24   H     H_    0.731797 0.375311 0.260433 0.124215
H25   H     H_    0.233049 0.686208 0.280602 0.154270
H26   H     H_    0.767009 0.185225 0.719152 0.154227
O11   O     O_R   0.955980 0.206520 0.854760 -0.542347
O12   O     O_R   0.044020 0.706520 0.145240 -0.542314
O13   O     O_R   0.063490 0.536770 0.945200 -0.529301
O14   O     O_R   0.936510 0.036770 0.054800 -0.529393
C69   C     C_R   0.082569 0.368711 0.937037 0.673686
C70   C     C_R   0.917428 0.868731 0.062954 0.673572
O15   O     O_R   0.957530 0.536190 0.842880 -0.540319
O16   O     O_R   0.042470 0.036190 0.157120 -0.540334
O17   O     O_R   0.937350 0.707210 0.042130 -0.531248
O18   O     O_R   0.062650 0.207210 0.957870 -0.531318
C71   C     C_R   0.943533 0.367448 0.802086 0.706236
C72   C     C_R   0.056463 0.867431 0.197918 0.706209
O19   O     O_3   0.993540 0.373870 0.065440 -0.365526
O20   O     O_3   0.006460 0.873870 0.934560 -0.365594
V3    V     V_3+5 0.001200 0.648440 0.987860 1.522058
V4    V     V_3+5 0.998800 0.148440 0.012140 1.521921
C73   C     C_1   0.077785 0.818164 0.611454 0.272817
N1    N     N_1   0.056328 0.805257 0.684945 -0.336128
C74   C     C_1   0.922250 0.320059 0.388492 0.272741
N2    N     N_1   0.943723 0.307898 0.314990 -0.335940
C75   C     C_1   0.162550 0.896335 0.217853 0.252628
N3    N     N_1   0.175790 0.925109 0.133674 -0.320641
C76   C     C_1   0.837428 0.395583 0.782168 0.252487
N4    N     N_1   0.824170 0.423998 0.866366 -0.320505
C77   C     C_1   0.417561 0.733040 0.387536 0.263135
N5    N     N_1   0.435375 0.697761 0.310406 -0.359761
C78   C     C_1   0.582484 0.232058 0.612372 0.263244
N6    N     N_1   0.564680 0.196518 0.689479 -0.359966
C79   C     C_3   0.672616 0.023972 0.091697 -0.794089
H27   H     H_    0.645469 0.141411 0.062071 0.221342
H28   H     H_    0.658279 0.937319 0.155235 0.199313
H29   H     H_    0.708699 0.095645 0.133668 0.211733
C80   C     C_3   0.327372 0.523204 0.907933 -0.794212
H30   H     H_    0.354523 0.640694 0.937319 0.221272
H31   H     H_    0.341700 0.436147 0.844551 0.199330
H32   H     H_    0.291289 0.594795 0.865840 0.211752
C81   C     C_1   0.176399 0.856382 0.751515 0.316838
N7    N     N_1   0.164319 0.861939 0.838611 -0.298344
C82   C     C_1   0.823600 0.357160 0.248445 0.316859
N8    N     N_1   0.835674 0.362866 0.161344 -0.298232

loop_
_geom_bond_atom_site_label_1
_geom_bond_atom_site_label_2
_ccdc_geom_bond_type
C79   H29   S    
C12   C14   A    
C37   C39   A    
O17   V3    S    
C9    C11   A    
C47   C49   A    
C40   H22   S    
O1    C3    A    
C39   H21   S    
O12   V3    S    
O2    C4    A    
C2    O7    A    
C45   C53   A    
C82   N8    T    
C66   H18   S    
C79   H27   S    
C21   C23   A    
H4    C24   S    
O5    C3    A    
C5    H5    S    
C48   C50   A    
C6    H6    S    
C2    C35   S    
C58   C60   A    
O13   C69   A    
C80   H32   S    
C60   C62   A    
C81   N7    T    
C5    C21   A    
C14   H10   S    
C43   C45   A    
C6    C22   A    
C33   C41   A    
C10   C32   A    
C53   C81   S    
C56   H26   S    
C26   H14   S    
C36   C66   A    
C17   C31   A    
C13   C15   A    
C43   C47   A    
C69   O18   A    
C63   C65   A    
C17   C25   A    
C7    C29   A    
C16   C18   A    
C8    C30   A    
C59   C61   A    
C34   C40   A    
C67   H15   S    
C57   H19   S    
C9    C31   A    
C11   C13   A    
C23   C25   A    
C24   C26   A    
C48   C56   A    
C47   C55   A    
C55   C57   A    
C9    H7    S    
C55   H25   S    
C51   C53   A    
C62   C68   A    
C27   C79   S    
C52   H24   S    
C58   H20   S    
O12   C72   A    
C73   N1    T    
O4    C2    A    
C60   C64   A    
C64   C78   S    
C59   C63   A    
O5    V1    S    
C11   H11   S    
C3    C8    S    
C12   H12   S    
C65   H17   S    
C46   C54   A    
C41   C43   A    
C38   C40   A    
O4    V2    S    
C44   C48   A    
C41   C75   S    
C25   H13   S    
C64   C66   A    
O6    C4    A    
C52   C54   A    
C34   C71   S    
O1    V2    S    
O16   C72   A    
C13   H9    S    
C68   H16   S    
O2    V1    S    
C49   C51   A    
H2    C30   S    
O19   V3    S    
O18   V4    S    
C31   C70   S    
O15   C71   A    
C49   C61   A    
C54   C82   S    
C57   C59   A    
C37   C45   A    
C33   C72   S    
C56   C58   A    
C36   C68   A    
C74   N2    T    
H3    C23   S    
C51   H23   S    
C19   C27   A    
C77   N5    T    
C7    C27   A    
C18   C32   A    
O20   V3    S    
O20   V4    S    
C15   C19   A    
C76   N4    T    
O19   V4    S    
C79   H28   S    
C50   C62   A    
C16   C20   A    
C5    C29   A    
C50   C52   A    
O3    C1    A    
C6    C30   A    
C37   C73   S    
C80   H30   S    
C10   H8    S    
C63   C77   S    
C4    C7    S    
C10   C12   A    
O7    V1    S    
C1    O8    A    
C19   C21   A    
O8    V2    S    
C33   C39   A    
C20   C22   A    
C80   H31   S    
O13   V3    S    
C78   N6    T    
C61   C67   A    
C22   C24   A    
C32   C69   S    
C15   C17   A    
C1    C36   S    
H1    C29   S    
C38   C46   A    
C42   C76   S    
O14   C70   A    
C20   C28   A    
C18   C26   A    
C8    C28   A    
O16   V4    S    
C35   C65   A    
O15   V3    S    
C34   C42   A    
O6    V2    S    
C38   C74   S    
O9    V2    S    
C42   C44   A    
O10   V1    S    
O3    V1    S    
C44   C46   A    
O11   V4    S    
C35   C67   A    
O11   C71   A    
C70   O17   A    
O14   V4    S    
C75   N3    T    
C14   C16   A    
C28   C80   S    
