data_mof_unit_56312.cif
_audit_creation_date              2012-12-10T17:24:43-0500
_audit_creation_method            fapswitch 2.2
_symmetry_space_group_name_H-M    P1
_symmetry_Int_Tables_number       1
_space_group_crystal_system       triclinic
_cell_length_a                    23.520444
_cell_length_b                    10.811475
_cell_length_c                    9.603422
_cell_angle_alpha                 88.285048
_cell_angle_beta                  89.948948
_cell_angle_gamma                 93.222988
_cell_volume                      2437.09797926

loop_
_atom_site_label
_atom_site_type_symbol
_atom_type_description
_atom_site_fract_x
_atom_site_fract_y
_atom_site_fract_z
_atom_type_partial_charge
C1    C     C_R   0.497406 0.262726 0.502244 0.821782
C2    C     C_R   0.964867 0.277583 0.532402 0.251230
C3    C     C_R   0.024481 0.280561 0.536092 -0.233843
C4    C     C_R   0.057097 0.392840 0.523411 -0.050817
C5    C     C_R   0.029690 0.504676 0.507929 -0.020279
C6    C     C_R   0.062378 0.617855 0.494901 -0.002745
C7    C     C_R   0.034901 0.729366 0.479694 -0.167480
C8    C     C_R   0.975691 0.728745 0.477101 -0.171082
C9    C     C_R   0.116854 0.395892 0.524005 0.550023
C10   C     C_R   0.121983 0.616552 0.497104 0.531438
C11   C     C_R   0.238621 0.545822 0.386169 -0.177169
C12   C     C_R   0.391062 0.501876 0.499923 0.784870
C13   C     C_R   0.298190 0.547732 0.381609 0.222308
C14   C     C_R   0.328466 0.506706 0.500376 -0.067586
C15   C     C_R   0.298133 0.468844 0.622018 -0.292201
C16   C     C_R   0.238952 0.469282 0.625585 -0.108180
C17   C     C_R   0.208980 0.507180 0.507598 0.324515
C18   C     C_R   0.760842 0.504603 0.627552 -0.102821
C19   C     C_R   0.701564 0.503477 0.627051 -0.195637
C20   C     C_R   0.671638 0.503425 0.500292 -0.035894
C21   C     C_R   0.702175 0.505779 0.374191 -0.220262
C22   C     C_R   0.761496 0.507172 0.375086 -0.113152
C23   C     C_R   0.498153 0.737548 0.497746 0.811130
C24   C     C_R   0.790870 0.506110 0.501698 0.364461
C25   C     C_R   0.408420 0.112063 0.655424 -0.172081
C26   C     C_R   0.365277 0.038998 0.722143 -0.129635
C27   C     C_R   0.364137 0.910597 0.714817 -0.135989
C28   C     C_R   0.406646 0.854255 0.642615 -0.160267
C29   C     C_R   0.451183 0.926189 0.574947 0.034180
C30   C     C_R   0.451745 0.057078 0.580723 0.097438
C31   C     C_R   0.494411 0.128868 0.506454 -0.168080
C32   C     C_R   0.532588 0.073314 0.421617 -0.294836
C33   C     C_R   0.528390 0.946454 0.403394 0.448744
C34   C     C_R   0.608993 0.501095 0.499952 0.794562
C35   C     C_R   0.492625 0.871455 0.492783 -0.216476
C36   C     C_R   0.581999 0.650264 0.138429 -0.166899
C37   C     C_R   0.625023 0.716366 0.064496 -0.290844
C38   C     C_R   0.623299 0.723499 0.920243 0.230795
C39   C     C_R   0.580456 0.655385 0.851125 -0.173650
C40   C     C_R   0.539919 0.575303 0.922772 0.167427
C41   C     C_R   0.540276 0.574066 0.072045 0.173045
C42   C     C_R   0.461782 0.428655 0.076397 -0.040359
C43   C     C_R   0.461946 0.428293 0.928510 -0.061350
C44   C     C_R   0.883112 0.614855 0.487926 0.530660
C45   C     C_R   0.876691 0.394320 0.518967 0.541583
C46   C     C_R   0.936655 0.390131 0.518634 -0.055210
C47   C     C_R   0.969596 0.503616 0.505453 -0.066425
C48   C     C_R   0.942656 0.616623 0.489928 0.004888
Cu1   Cu    Cu3+1 0.500000 0.499990 0.640660 0.922909
Cu2   Cu    Cu3+1 0.500000 0.500010 0.359340 0.941656
H1    H     H_    0.679267 0.502176 0.725843 0.165312
H2    H     H_    0.680331 0.506160 0.274984 0.164526
H3    H     H_    0.784687 0.508364 0.277556 0.133285
H4    H     H_    0.564675 0.130005 0.364174 0.161927
H5    H     H_    0.406453 0.211474 0.660256 0.134953
H6    H     H_    0.332131 0.082309 0.778153 0.141365
H7    H     H_    0.330094 0.854284 0.765099 0.145845
H8    H     H_    0.402879 0.754541 0.636438 0.152305
H9    H     H_    0.430478 0.370100 0.133536 0.139767
H10   H     H_    0.045141 0.193690 0.546924 0.188060
H11   H     H_    0.581530 0.667255 0.246722 0.243986
H12   H     H_    0.656975 0.771153 0.120448 0.172399
H13   H     H_    0.580747 0.669104 0.741553 0.212420
H14   H     H_    0.430818 0.369351 0.875363 0.123450
H15   H     H_    0.059027 0.817517 0.469519 0.187201
H16   H     H_    0.955916 0.816513 0.465221 0.176654
H17   H     H_    0.215171 0.575882 0.295387 0.142917
H18   H     H_    0.320153 0.437349 0.714381 0.163964
H19   H     H_    0.216280 0.439732 0.720084 0.149503
H20   H     H_    0.783513 0.503952 0.725636 0.134030
N1    N     N_R   0.851703 0.505100 0.502565 -0.476614
N2    N     N_R   0.147947 0.506585 0.510619 -0.461197
N3    N     N_R   0.500540 0.501210 0.147910 -0.196787
N4    N     N_R   0.500560 0.501290 0.852040 -0.188081
O1    O     O_R   0.500000 0.319640 0.618810 -0.578598
O2    O     O_2   0.843307 0.289422 0.536347 -0.499804
O3    O     O_2   0.143710 0.289020 0.536014 -0.539557
O4    O     O_2   0.153790 0.724290 0.486451 -0.540399
O5    O     O_R   0.500000 0.319660 0.381240 -0.577993
O6    O     O_R   0.417880 0.499950 0.618810 -0.602103
O7    O     O_R   0.417880 0.499980 0.381240 -0.544696
O8    O     O_R   0.500000 0.680340 0.618760 -0.608353
O9    O     O_R   0.500000 0.680360 0.381190 -0.574703
O10   O     O_R   0.582120 0.500020 0.618760 -0.597263
O11   O     O_R   0.582120 0.500050 0.381190 -0.601488
O12   O     O_2   0.856643 0.721970 0.472309 -0.543248
N5    N     N_2   0.934113 0.160449 0.541862 -0.374017
H21   H     H_    0.951109 0.099275 0.612823 0.246112
C49   C     C_3   0.923631 0.104499 0.408659 -0.585390
H22   H     H_    0.964452 0.080760 0.360462 0.193508
H23   H     H_    0.901470 0.168599 0.337250 0.244240
H24   H     H_    0.896103 0.018302 0.423885 0.247510
O13   O     O_3   0.559849 0.895334 0.299745 -0.620982
C50   C     C_3   0.543739 0.943562 0.166731 0.069530
H25   H     H_    0.576457 0.921392 0.090228 0.178423
H26   H     H_    0.543640 0.046362 0.160477 0.128933
C51   C     C_3   0.485586 0.887234 0.121259 -0.381008
H27   H     H_    0.483792 0.785267 0.137539 0.252749
H28   H     H_    0.451461 0.924518 0.185289 0.207594
C52   C     C_3   0.474095 0.916827 0.968194 -0.882854
H29   H     H_    0.473729 0.018601 0.948894 0.260860
H30   H     H_    0.431931 0.873655 0.940668 0.263740
H31   H     H_    0.506917 0.878391 0.901165 0.266500
N6    N     N_2   0.664317 0.800582 0.844123 -0.424012
H32   H     H_    0.700160 0.826604 0.900359 0.261718
C53   C     C_3   0.641597 0.903870 0.767066 -0.659100
H33   H     H_    0.676742 0.957570 0.711381 0.245679
H34   H     H_    0.620935 0.966117 0.839375 0.214551
H35   H     H_    0.610253 0.871078 0.688086 0.226962
N7    N     N_2   0.326967 0.592126 0.257945 -0.413582
H36   H     H_    0.304570 0.573631 0.167888 0.241915
C54   C     C_3   0.347956 0.720377 0.261567 -0.640509
H37   H     H_    0.311859 0.781796 0.270312 0.227365
H38   H     H_    0.371705 0.745681 0.163971 0.217794
H39   H     H_    0.377281 0.735159 0.350848 0.224391

loop_
_geom_bond_atom_site_label_1
_geom_bond_atom_site_label_2
_ccdc_geom_bond_type
C18   H20   S    
C44   C48   A    
N5    H21   S    
C8    H16   S    
O13   C50   S    
C23   O8    A    
C45   N1    A    
C19   C20   A    
C9    N2    A    
Cu2   O5    S    
C54   H38   S    
C51   H27   S    
C10   O4    S    
C7    C8    A    
C45   C46   A    
C2    C46   A    
C5    C47   A    
C26   C27   A    
C29   C30   A    
C23   O9    A    
C45   O2    S    
C18   C24   A    
Cu1   O10   S    
C28   C29   A    
C37   C38   A    
C30   C31   A    
C53   H33   S    
C15   C16   A    
C1    C31   S    
C44   N1    A    
C18   C19   A    
N7    H36   S    
N6    H32   S    
C38   N6    S    
Cu2   O11   S    
C11   C17   A    
C47   C48   A    
C16   C17   A    
Cu2   O9    S    
Cu1   O1    S    
C49   H23   S    
C20   C34   S    
C3    H10   S    
C43   N4    A    
C21   C22   A    
C36   C41   A    
C34   O10   A    
C44   O12   S    
C32   H4    S    
C54   H37   S    
C51   H28   S    
C11   H17   S    
C43   H14   S    
C37   H12   S    
C22   H3    S    
C38   C39   A    
C1    O1    A    
C27   H7    S    
Cu2   N3    S    
C39   C40   A    
C50   C51   S    
C25   C26   A    
C52   H31   S    
C33   O13   S    
C34   O11   A    
Cu1   O8    S    
C8    C48   A    
C13   N7    S    
C7    H15   S    
C31   C32   A    
C52   H30   S    
C2    N5    S    
C9    O3    S    
C49   H24   S    
C50   H26   S    
C6    C7    A    
C40   C41   A    
C12   C14   S    
C23   C35   S    
N5    C49   S    
C1    O5    A    
C22   C24   A    
C42   C43   A    
C3    C4    A    
C51   C52   S    
C25   C30   A    
C46   C47   A    
C36   C37   A    
C42   N3    A    
C14   C15   A    
C16   H19   S    
C25   H5    S    
C4    C5    A    
C26   H6    S    
C42   H9    S    
C6    C10   A    
N6    C53   S    
C28   H8    S    
C39   H13   S    
C29   C35   A    
Cu1   O6    S    
C32   C33   A    
C2    C3    A    
C4    C9    A    
C11   C13   A    
C5    C6    A    
C53   H34   S    
C15   H18   S    
C12   O6    A    
C52   H29   S    
C33   C35   A    
C40   N4    A    
C12   O7    A    
C54   H39   S    
C50   H25   S    
N7    C54   S    
C41   N3    A    
C19   H1    S    
C20   C21   A    
C24   N1    S    
C17   N2    S    
Cu1   Cu2   S    
C27   C28   A    
Cu1   N4    S    
C49   H22   S    
C13   C14   A    
C21   H2    S    
C36   H11   S    
Cu2   O7    S    
C53   H35   S    
C10   N2    A    
