data_mof_unit_54607.cif
_audit_creation_date              2013-03-05T15:53:42-0500
_audit_creation_method            fapswitch 2.2
_symmetry_space_group_name_H-M    P1
_symmetry_Int_Tables_number       1
_space_group_crystal_system       triclinic
_cell_length_a                    12.859118
_cell_length_b                    13.306037
_cell_length_c                    27.704153
_cell_angle_alpha                 94.733531
_cell_angle_beta                  90.235905
_cell_angle_gamma                 118.964874
_cell_volume                      4127.92723942

loop_
_atom_site_label
_atom_site_type_symbol
_atom_site_description
_atom_site_fract_x
_atom_site_fract_y
_atom_site_fract_z
_atom_type_partial_charge
O1    O     O_R   0.296680 0.802170 0.437540 -0.502152
O2    O     O_R   0.525380 0.838530 0.443500 -0.493760
C1    C     C_R   0.627606 0.897286 0.426785 0.551891
O3    O     O_R   0.702130 0.995190 0.446810 -0.510561
O4    O     O_R   0.661770 0.181390 0.458760 -0.499176
C2    C     C_R   0.601448 0.222465 0.440621 0.559561
O5    O     O_R   0.499820 0.198480 0.455280 -0.476217
O6    O     O_R   0.311660 0.976250 0.449080 -0.502703
C3    C     C_R   0.269017 0.876816 0.425539 0.544193
O7    O     O_R   0.297580 0.804960 0.544440 -0.488430
O8    O     O_R   0.526220 0.841130 0.542590 -0.475965
C4    C     C_R   0.627577 0.899028 0.564949 0.558040
O9    O     O_R   0.703030 0.997990 0.553710 -0.507258
O10   O     O_R   0.662610 0.183990 0.557860 -0.515058
C5    C     C_R   0.605559 0.231759 0.576924 0.576514
O11   O     O_R   0.500730 0.201280 0.562180 -0.436431
O12   O     O_R   0.312500 0.978850 0.548170 -0.489115
C6    C     C_R   0.271748 0.879568 0.563446 0.554119
Cr1   Cr    Cr6+3 0.416430 0.829200 0.492370 1.097788
Cr2   Cr    Cr6+3 0.674630 0.087020 0.504170 1.065721
Cr3   Cr    Cr6+3 0.408920 0.083740 0.503490 1.125883
O13   O     O_3   0.499990 0.999990 0.500010 -0.274108
C7    C     C_1   0.634007 0.269113 0.394850 0.082239
C8    C     C_R   0.740574 0.429499 0.289977 0.236252
C9    C     C_R   0.750488 0.447056 0.240255 0.254733
C10   C     C_R   0.628712 0.240510 0.218802 -0.048657
C11   C     C_R   0.618278 0.222067 0.267808 0.219978
C12   C     C_R   0.673227 0.316285 0.303627 0.017535
C13   C     C_R   0.693682 0.352107 0.204864 0.003063
C14   C     C_1   0.698156 0.369998 0.154162 0.078720
C15   C     C_1   0.654807 0.295460 0.354012 0.104929
C16   C     C_1   0.704421 0.394893 0.113048 0.085815
H1    H     H_    0.584765 0.167650 0.191524 0.188543
C17   C     C_R   0.172333 0.752479 0.350115 -0.050362
C18   C     C_R   0.160180 0.744999 0.299729 0.056093
C19   C     C_R   0.163890 0.741024 0.198503 0.003453
C20   C     C_R   0.146754 0.644306 0.221428 -0.012758
C21   C     C_R   0.140114 0.644054 0.271363 0.249631
C22   C     C_R   0.164886 0.738502 0.148126 0.203718
H2    H     H_    0.164982 0.679904 0.367784 0.206339
H3    H     H_    0.132603 0.565831 0.200631 0.226381
C23   C     C_R   0.139740 0.815858 0.125339 0.004961
C24   C     C_R   0.217590 0.952208 0.355786 -0.075928
C25   C     C_R   0.201725 0.946439 0.305346 -0.002739
C26   C     C_R   0.177472 0.843470 0.277072 0.021152
C27   C     C_R   0.222768 0.045161 0.282535 0.212163
C28   C     C_R   0.217523 0.040692 0.231549 0.224664
C29   C     C_R   0.185616 0.935205 0.202977 -0.035554
C30   C     C_R   0.174356 0.839656 0.226196 -0.031848
C31   C     C_R   0.158705 0.919276 0.152201 0.171454
C32   C     C_R   0.210182 0.857920 0.377678 -0.016086
H4    H     H_    0.246852 0.033208 0.377747 0.189967
C33   C     C_R   0.734280 0.957390 0.352465 -0.085757
C34   C     C_R   0.731858 0.947650 0.302314 0.003490
C35   C     C_R   0.727143 0.930362 0.201161 0.006847
C36   C     C_R   0.802835 0.037425 0.227893 0.228509
C37   C     C_R   0.807067 0.043485 0.278377 -0.063157
C38   C     C_R   0.738295 0.913767 0.151643 -0.105994
H5    H     H_    0.808354 0.982324 0.133815 0.223580
H6    H     H_    0.796744 0.039274 0.371995 0.157668
H7    H     H_    0.866505 0.124690 0.299121 0.177142
C39   C     C_R   0.671186 0.805184 0.125959 0.002546
C40   C     C_R   0.567961 0.763217 0.351461 -0.069785
C41   C     C_R   0.567843 0.749329 0.300732 0.041083
C42   C     C_R   0.648575 0.843736 0.276058 0.045391
C43   C     C_R   0.486494 0.645499 0.273917 0.232657
C44   C     C_R   0.486065 0.636236 0.223444 -0.030044
C45   C     C_R   0.567149 0.728864 0.198560 -0.002033
C46   C     C_R   0.647020 0.834483 0.225224 -0.003922
C47   C     C_R   0.575487 0.716141 0.148032 0.235382
C48   C     C_R   0.648393 0.868284 0.377095 0.002840
H8    H     H_    0.423940 0.554176 0.204245 0.233897
H9    H     H_    0.502102 0.695451 0.371101 0.189814
C49   C     C_R   0.748560 0.314895 0.647559 -0.156588
C50   C     C_R   0.773875 0.362108 0.695620 0.016043
C51   C     C_R   0.804567 0.428140 0.795807 0.029896
C52   C     C_R   0.880137 0.393184 0.771704 -0.084196
C53   C     C_R   0.863789 0.359249 0.722450 -0.125511
C54   C     C_R   0.815334 0.452806 0.846395 0.181560
H10   H     H_    0.796696 0.272940 0.632048 0.146870
H11   H     H_    0.949970 0.386595 0.790536 0.200159
H12   H     H_    0.919773 0.327725 0.705578 0.135245
C55   C     C_R   0.728264 0.471851 0.870853 -0.001312
C56   C     C_R   0.596417 0.372084 0.640327 0.202926
C57   C     C_R   0.617961 0.414996 0.689537 -0.040224
C58   C     C_R   0.703338 0.405569 0.717874 0.025319
C59   C     C_R   0.553308 0.463892 0.711179 -0.073984
C60   C     C_R   0.559019 0.488521 0.761092 0.269645
C61   C     C_R   0.637304 0.469608 0.791442 0.053673
C62   C     C_R   0.715897 0.435951 0.768521 -0.018590
C63   C     C_R   0.638881 0.479704 0.842939 0.211578
C64   C     C_R   0.654076 0.311491 0.621087 -0.001521
H13   H     H_    0.493594 0.479847 0.689484 0.207545
C65   C     C_1   0.221375 0.862377 0.610115 0.034302
C66   C     C_R   0.112611 0.733487 0.719754 -0.058914
C67   C     C_R   0.101414 0.724813 0.769611 -0.027436
C68   C     C_R   0.201493 0.933431 0.784506 -0.038204
C69   C     C_R   0.212958 0.942165 0.734597 -0.046949
C70   C     C_R   0.168484 0.842215 0.702102 0.060221
C71   C     C_R   0.146374 0.824678 0.802122 0.092271
C72   C     C_1   0.127854 0.813780 0.853038 0.041641
C73   C     C_1   0.191897 0.851800 0.651449 -0.003928
C74   C     C_1   0.102568 0.797265 0.894551 0.072194
H14   H     H_    0.079338 0.655632 0.695104 0.125126
H15   H     H_    0.057492 0.640295 0.782850 0.146809
H16   H     H_    0.235475 0.011158 0.809256 0.145201
H17   H     H_    0.258042 0.026744 0.721400 0.142052
C75   C     C_1   0.642508 0.867559 0.611571 0.048212
C76   C     C_R   0.732685 0.807445 0.723164 -0.120185
C77   C     C_R   0.739489 0.798996 0.772821 0.212201
C78   C     C_R   0.578255 0.844128 0.784571 0.278874
C79   C     C_R   0.572366 0.853228 0.734503 0.285248
C80   C     C_R   0.649926 0.834626 0.703893 -0.029313
C81   C     C_R   0.662281 0.817247 0.803756 0.050897
C82   C     C_1   0.668748 0.804885 0.854707 0.131585
C83   C     C_1   0.648353 0.849104 0.653029 0.023013
C84   C     C_1   0.683036 0.792559 0.896316 0.110745
H18   H     H_    0.792741 0.793716 0.699655 0.162180
O14   O     O_R   0.820790 0.857990 0.068830 -0.488424
O15   O     O_R   0.016700 0.827330 0.062850 -0.452926
C85   C     C_R   0.068293 0.773837 0.078637 0.581133
O16   O     O_R   0.041970 0.673520 0.060040 -0.444339
O17   O     O_R   0.817980 0.483660 0.048840 -0.480410
C86   C     C_R   0.716796 0.440430 0.067082 0.562783
O18   O     O_R   0.637200 0.461990 0.052510 -0.455660
O19   O     O_R   0.664790 0.681920 0.057970 -0.442287
C87   C     C_R   0.718171 0.782416 0.080487 0.563915
O20   O     O_R   0.815840 0.852920 0.961840 -0.499450
O21   O     O_R   0.012100 0.822630 0.963670 -0.495563
C88   C     C_R   0.056801 0.766054 0.941286 0.551797
O22   O     O_R   0.037010 0.668460 0.953040 -0.448843
O23   O     O_R   0.813390 0.478970 0.949660 -0.434482
C89   C     C_R   0.733062 0.489990 0.925130 0.578801
O24   O     O_R   0.632250 0.456930 0.945520 -0.435145
O25   O     O_R   0.660200 0.677230 0.958780 -0.470619
C90   C     C_R   0.715657 0.776641 0.943318 0.546773
Cr4   Cr    Cr6+3 0.914010 0.832750 0.013970 1.140941
Cr5   Cr    Cr6+3 0.922310 0.578600 0.003000 1.177140
Cr6   Cr    Cr6+3 0.656280 0.574630 0.003870 1.184393
O26   O     O_3   0.830870 0.661990 0.006950 -0.337454
N1    N     N_R   0.797795 0.526015 0.326290 0.112629
O27   O     O_R   0.783586 0.616075 0.324495 -0.262008
O28   O     O_R   0.861717 0.522963 0.362088 -0.313159
N2    N     N_R   0.255050 0.146074 0.209456 0.143110
O29   O     O_R   0.207760 0.211372 0.220904 -0.152618
O30   O     O_R   0.346618 0.183710 0.182491 -0.274769
N3    N     N_R   0.255972 0.152399 0.310954 0.103655
O31   O     O_R   0.180071 0.162595 0.339023 -0.283954
O32   O     O_R   0.360657 0.241020 0.307596 -0.231651
N4    N     N_R   0.874153 0.140603 0.204637 0.091239
O33   O     O_R   0.828254 0.165920 0.168739 -0.329198
O34   O     O_R   0.976272 0.219143 0.224662 -0.200649
Cl1   Cl    Cl    0.469006 0.588097 0.113496 -0.450669
Cl2   Cl    Cl    0.386328 0.522546 0.301840 -0.413780
Cl3   Cl    Cl    0.836670 0.587670 0.222117 -0.552453
Cl4   Cl    Cl    0.938257 0.455634 0.877644 -0.530028
Cl5   Cl    Cl    0.522776 0.491821 0.872644 -0.439748
Cl6   Cl    Cl    0.465288 0.545724 0.779544 -0.489132
N5    N     N_R   0.512786 0.385203 0.610557 0.077681
O35   O     O_R   0.400046 0.331916 0.619015 -0.313727
O36   O     O_R   0.547124 0.437786 0.571380 -0.307135
Cl7   Cl    Cl    0.845799 0.764711 0.795167 -0.671878
Cl8   Cl    Cl    0.479853 0.865402 0.823015 -0.482036
Cl9   Cl    Cl    0.468540 0.889052 0.710255 -0.549357
Cl10  Cl    Cl    0.533039 0.079242 0.283116 -0.632792
Cl11  Cl    Cl    0.197334 0.638343 0.114329 -0.465102
Cl12  Cl    Cl    0.107354 0.514902 0.296494 -0.445298
N6    N     N_R   0.140521 0.002127 0.128730 0.121457
O37   O     O_R   0.055538 0.023637 0.141662 -0.270940
O38   O     O_R   0.201144 0.047662 0.091455 -0.256921

loop_
_geom_bond_atom_site_label_1
_geom_bond_atom_site_label_2
_geom_bond_distance
_ccdc_geom_bond_type
C38   C39   1.398619 A    
C54   C55   1.424657 A    
C35   C36   1.415004 A    
O19   C87   1.272097 A    
C9    Cl3   1.769984 S    
C47   Cl1   1.775876 S    
C16   C86   1.431700 S    
C66   C67   1.397770 A    
C3    C32   1.464995 S    
C51   C54   1.403386 A    
C67   H15   1.082970 S    
C81   C82   1.441190 S    
C77   Cl7   1.761801 S    
O17   C86   1.267969 A    
C34   C42   1.407546 A    
C52   C53   1.383482 A    
O18   Cr6   2.025414 S    
O25   Cr6   1.908427 S    
C4    O9    1.266883 A    
O17   Cr5   1.909413 S    
O8    Cr1   1.919482 S    
C17   C32   1.395397 A    
C20   C21   1.386565 A    
C17   H2    1.082165 S    
C19   C20   1.403387 A    
N3    O32   1.301139 A    
C78   C79   1.407195 A    
C44   H8    1.081268 S    
O20   C90   1.263049 A    
N5    O35   1.301535 A    
O14   C87   1.276205 A    
O4    C2    1.267147 A    
C66   C70   1.400472 A    
C24   H4    1.081877 S    
O23   Cr5   1.940136 S    
C5    O11   1.259791 A    
C59   H13   1.082169 S    
C36   C37   1.393588 A    
C39   C47   1.416234 A    
C17   C18   1.393943 A    
C49   C64   1.396402 A    
C10   H1    1.084114 S    
C5    C64   1.466346 S    
C56   C57   1.405918 A    
C33   H6    1.084695 S    
N3    O31   1.301083 A    
C33   C34   1.383539 A    
O23   C89   1.306791 A    
C82   C84   1.203374 T    
N5    O36   1.300991 A    
C10   C13   1.395645 A    
C60   Cl6   1.767160 S    
C61   C63   1.421069 A    
C77   C81   1.409033 A    
C76   C80   1.395841 A    
C80   C83   1.439298 S    
C8    N1    1.438140 S    
C29   C31   1.420985 A    
C43   C44   1.393308 A    
C54   Cl4   1.781919 S    
C72   C74   1.205124 T    
C49   H10   1.084777 S    
Cr3   O13   1.967168 S    
C31   N6    1.435102 S    
C79   C80   1.409434 A    
C74   C88   1.433011 S    
C56   N5    1.437200 S    
C25   C27   1.411473 A    
C76   H18   1.084020 S    
C68   C69   1.399534 A    
C22   C23   1.410838 A    
C57   C59   1.391986 A    
C9    C13   1.409582 A    
C21   Cl12  1.764695 S    
C79   Cl9   1.767165 S    
Cr4   O26   1.978896 S    
O19   Cr6   1.946951 S    
O1    Cr1   2.040138 S    
C55   C89   1.499355 S    
C49   C50   1.390601 A    
C44   C45   1.408182 A    
O14   Cr4   2.044594 S    
O10   Cr2   1.944091 S    
O25   C90   1.274422 A    
Cr1   O13   1.979263 S    
C78   Cl8   1.767448 S    
C51   C52   1.413664 A    
O16   Cr5   2.056285 S    
N2    O30   1.301237 A    
C58   C62   1.414049 A    
O24   Cr6   2.066575 S    
O4    Cr2   1.909689 S    
C45   C46   1.414223 A    
C40   H9    1.082337 S    
C38   H5    1.081552 S    
C57   C58   1.407096 A    
C28   N2    1.436109 S    
C19   C22   1.393565 A    
O12   Cr3   1.907651 S    
C69   H17   1.083529 S    
C7    C15   1.204832 T    
C1    C48   1.459706 S    
C24   C25   1.401790 A    
C27   N3    1.435262 S    
C13   C14   1.440702 S    
C53   H12   1.084242 S    
C50   C58   1.411048 A    
C28   C29   1.421699 A    
C52   H11   1.079913 S    
O7    Cr1   2.034263 S    
O8    C4    1.272019 A    
C18   C21   1.405958 A    
O12   C6    1.273774 A    
O6    C3    1.276137 A    
O1    C3    1.272535 A    
C8    C9    1.412100 A    
C85   O16   1.268558 A    
C35   C46   1.416499 A    
Cr5   O26   1.967344 S    
C23   C31   1.418231 A    
O20   Cr4   2.031871 S    
C68   H16   1.083289 S    
N6    O37   1.301445 A    
C11   Cl10  1.764153 S    
C10   C11   1.395025 A    
C89   O24   1.299180 A    
C6    C65   1.433796 S    
N4    O34   1.301331 A    
C43   Cl2   1.763561 S    
C36   N4    1.439580 S    
C1    O3    1.261107 A    
C18   C26   1.419485 A    
C68   C71   1.400205 A    
C66   H14   1.083574 S    
C4    C75   1.430242 S    
O21   C88   1.275406 A    
C27   C28   1.408821 A    
C29   C30   1.417251 A    
O9    Cr2   2.025739 S    
O2    Cr1   1.919940 S    
O10   C5    1.273021 A    
C12   C15   1.443728 S    
C25   C26   1.412460 A    
C8    C12   1.412607 A    
Cr2   O13   1.963310 S    
N2    O29   1.301212 A    
O6    Cr3   1.943749 S    
Cr6   O26   1.962976 S    
O11   Cr3   2.063912 S    
C37   H7    1.084419 S    
C2    O5    1.263508 A    
C55   C63   1.432612 A    
N4    O33   1.301516 A    
C41   C42   1.416852 A    
C75   C83   1.203685 T    
C22   Cl11  1.778434 S    
N1    O28   1.301196 A    
C88   O22   1.267881 A    
O22   Cr5   2.025510 S    
O5    Cr3   2.025349 S    
C76   C77   1.395305 A    
C14   C16   1.204472 T    
C24   C32   1.400445 A    
C39   C87   1.471190 S    
O7    C6    1.267939 A    
C42   C46   1.402739 A    
C2    C7    1.432155 S    
C67   C71   1.401906 A    
N6    O38   1.301418 A    
C71   C72   1.438933 S    
C26   C30   1.405915 A    
O2    C1    1.273982 A    
C78   C81   1.406723 A    
C20   H3    1.082237 S    
C50   C53   1.389600 A    
C63   Cl5   1.775853 S    
C40   C41   1.402209 A    
O3    Cr2   2.060585 S    
C70   C73   1.439439 S    
O21   Cr4   1.923288 S    
C60   C61   1.434225 A    
C65   C73   1.205522 T    
C59   C60   1.387780 A    
C45   C47   1.406913 A    
C69   C70   1.402768 A    
C35   C38   1.390555 A    
C51   C62   1.415283 A    
C11   C12   1.409466 A    
O15   C85   1.282355 A    
O15   Cr4   1.917384 S    
C56   C64   1.412516 A    
C61   C62   1.421934 A    
N1    O27   1.301433 A    
C84   C90   1.429514 S    
C40   C48   1.399353 A    
C19   C30   1.411032 A    
C23   C85   1.484581 S    
C41   C43   1.406876 A    
C86   O18   1.262144 A    
C34   C37   1.396979 A    
C33   C48   1.400928 A    
