data_mof_unit_12570.cif
_audit_creation_date              2012-12-11T14:49:49-0500
_audit_creation_method            fapswitch 2.2
_symmetry_space_group_name_H-M    P1
_symmetry_Int_Tables_number       1
_space_group_crystal_system       triclinic
_cell_length_a                    16.644321
_cell_length_b                    7.024344
_cell_length_c                    17.121177
_cell_angle_alpha                 89.999777
_cell_angle_beta                  100.719661
_cell_angle_gamma                 89.999682
_cell_volume                      1966.79774634

loop_
_atom_site_label
_atom_site_type_symbol
_atom_type_description
_atom_site_fract_x
_atom_site_fract_y
_atom_site_fract_z
_atom_type_partial_charge
O1    O     O_R   0.579510 0.506290 0.439030 -0.533234
O2    O     O_R   0.420490 0.006290 0.560970 -0.533223
O3    O     O_R   0.412540 0.170090 0.405290 -0.543938
O4    O     O_R   0.587460 0.670090 0.594710 -0.543937
C1    C     C_R   0.385116 0.346626 0.381850 0.714787
C2    C     C_R   0.614884 0.846625 0.618150 0.714766
O5    O     O_R   0.578390 0.176230 0.429330 -0.526902
O6    O     O_R   0.421610 0.676230 0.570670 -0.526898
O7    O     O_R   0.587530 0.011250 0.585190 -0.519112
O8    O     O_R   0.412470 0.511250 0.414810 -0.519112
C3    C     C_R   0.604784 0.345086 0.413231 0.798825
C4    C     C_R   0.395216 0.845087 0.586768 0.798836
O9    O     O_3   0.502800 0.340940 0.551110 -0.351404
O10   O     O_3   0.497200 0.840940 0.448890 -0.351416
V1    V     V_3+5 0.499480 0.064020 0.490520 1.598463
V2    V     V_3+5 0.500520 0.564020 0.509480 1.598467
C5    C     C_R   0.171441 0.911173 0.866740 -0.201021
C6    C     C_R   0.828558 0.411176 0.133259 -0.201028
C7    C     C_R   0.332349 0.853038 0.639231 -0.302696
C8    C     C_R   0.667650 0.353033 0.360767 -0.302714
C9    C     C_R   0.193236 0.787347 0.659706 0.407324
C10   C     C_R   0.806763 0.287355 0.340292 0.407340
C11   C     C_R   0.253122 0.780839 0.611501 0.299077
C12   C     C_R   0.746879 0.280849 0.388498 0.299063
C13   C     C_R   0.351634 0.927943 0.717296 0.347684
C14   C     C_R   0.648359 0.427907 0.282698 0.347709
C15   C     C_R   0.294469 0.914288 0.770427 -0.152675
C16   C     C_R   0.705529 0.414275 0.229570 -0.152678
C17   C     C_R   0.213696 0.849790 0.739389 -0.108289
C18   C     C_R   0.786303 0.349795 0.260609 -0.108310
C19   C     C_R   0.153972 0.846731 0.788403 -0.211628
C20   C     C_R   0.846027 0.346745 0.211596 -0.211644
C21   C     C_R   0.252516 0.956259 0.900387 0.335485
C22   C     C_R   0.747487 0.456258 0.099615 0.335504
C23   C     C_R   0.314252 0.956375 0.853692 0.453214
C24   C     C_R   0.685752 0.456365 0.146310 0.453263
H1    H     H_    0.092691 0.795279 0.766037 0.175170
H2    H     H_    0.907307 0.295307 0.233963 0.175176
C25   C     C_3   0.738294 0.807787 0.837161 0.298030
C26   C     C_3   0.261704 0.307775 0.162840 0.298022
H3    H     H_    0.757819 0.665762 0.861953 0.184848
H4    H     H_    0.242178 0.165745 0.138050 0.184839
C27   C     C_3   0.666400 0.777567 0.765605 -0.259526
C28   C     C_3   0.333599 0.277559 0.234397 -0.259519
H5    H     H_    0.608506 0.837498 0.778535 0.258291
H6    H     H_    0.391493 0.337486 0.221465 0.258312
H7    H     H_    0.655611 0.622587 0.756038 0.196701
H8    H     H_    0.344387 0.122579 0.243967 0.196697
H9    H     H_    0.749688 0.615130 0.657413 0.208847
H10   H     H_    0.250311 0.115137 0.342592 0.208844
C29   C     C_3   0.837624 0.788455 0.741083 0.186284
C30   C     C_3   0.162374 0.288462 0.258922 0.186295
C31   C     C_3   0.785309 0.103732 0.775229 -0.368754
C32   C     C_3   0.214692 0.603738 0.224768 -0.368743
C33   C     C_3   0.813210 0.906907 0.810768 -0.132747
C34   C     C_3   0.186789 0.406906 0.189233 -0.132749
H11   H     H_    0.836053 0.169520 0.750792 0.163683
H12   H     H_    0.163948 0.669534 0.249205 0.163690
H13   H     H_    0.772671 0.201548 0.822577 0.267992
H14   H     H_    0.227331 0.701552 0.177418 0.267985
C35   C     C_3   0.686305 0.868316 0.689065 -0.096094
C36   C     C_3   0.313694 0.368317 0.310935 -0.096101
C37   C     C_3   0.763724 0.767845 0.670582 -0.461218
C38   C     C_3   0.236275 0.267854 0.329421 -0.461224
C39   C     C_3   0.709441 0.083734 0.707839 0.283305
C40   C     C_3   0.290559 0.583738 0.292159 0.283310
H15   H     H_    0.723908 0.150631 0.653612 0.090326
H16   H     H_    0.276093 0.650639 0.346385 0.090322
H17   H     H_    0.887838 0.864449 0.719343 0.098390
H18   H     H_    0.112161 0.364468 0.280663 0.098382
H19   H     H_    0.780172 0.829989 0.615897 0.134429
H20   H     H_    0.219830 0.330002 0.384107 0.134432
O11   O     O_R   0.087500 0.266000 0.085220 -0.513650
O12   O     O_R   0.912500 0.766000 0.914780 -0.513645
O13   O     O_R   0.921600 0.589950 0.070670 -0.538123
O14   O     O_R   0.078400 0.089950 0.929330 -0.538124
C41   C     C_R   0.894551 0.421212 0.085595 0.771263
C42   C     C_R   0.105448 0.921211 0.914404 0.771249
O15   O     O_R   0.087460 0.596020 0.094710 -0.534958
O16   O     O_R   0.912540 0.096020 0.905290 -0.534956
O17   O     O_R   0.079520 0.760970 0.939020 -0.526255
O18   O     O_R   0.920480 0.260970 0.060980 -0.526253
C43   C     C_R   0.115256 0.425662 0.118707 0.749548
C44   C     C_R   0.884744 0.925662 0.881294 0.749554
O19   O     O_3   0.997180 0.425140 0.948910 -0.354260
O20   O     O_3   0.002820 0.925140 0.051090 -0.354264
V3    V     V_3+5 0.000520 0.702080 0.009480 1.638584
V4    V     V_3+5 0.999480 0.202080 0.990520 1.638589
Cl1   Cl    Cl    0.877409 0.557439 0.771436 -0.731844
Cl2   Cl    Cl    0.122584 0.057438 0.228574 -0.731837
Cl3   Cl    Cl    0.627247 0.221228 0.733454 -0.507988
Cl4   Cl    Cl    0.372755 0.721225 0.266543 -0.507986
Cl5   Cl    Cl    0.278100 0.993631 0.003917 -0.480132
Cl6   Cl    Cl    0.721905 0.493645 0.996089 -0.480143
O21   O     O_3   0.116205 0.714698 0.630131 -0.527891
C45   C     C_3   0.062073 0.866822 0.604249 0.102466
H21   H     H_    0.082985 0.949464 0.556748 0.115728
H22   H     H_    0.056472 0.966993 0.653211 0.112158
C46   C     C_3   0.977697 0.786550 0.571670 -0.711282
H23   H     H_    0.954727 0.705682 0.618684 0.240516
H24   H     H_    0.934458 0.903568 0.550269 0.201405
H25   H     H_    0.981018 0.689906 0.521347 0.217151
O22   O     O_3   0.883796 0.214711 0.369866 -0.527883
C47   C     C_3   0.937921 0.366839 0.395757 0.102510
H26   H     H_    0.916994 0.449494 0.443247 0.115707
H27   H     H_    0.943537 0.466996 0.346796 0.112156
C48   C     C_3   0.022291 0.286568 0.428363 -0.711283
H28   H     H_    0.045289 0.205735 0.381356 0.240489
H29   H     H_    0.065520 0.403584 0.449794 0.201419
H30   H     H_    0.018950 0.189893 0.478671 0.217169
Cl7   Cl    Cl    0.415960 0.984025 0.905900 -0.273901
Cl8   Cl    Cl    0.584064 0.484011 0.094114 -0.273963
O23   O     O_3   0.233174 0.698892 0.536976 -0.538453
C49   C     C_3   0.213865 0.842442 0.478531 0.096782
H31   H     H_    0.266737 0.862409 0.448325 0.112159
H32   H     H_    0.199676 0.984437 0.502073 0.088545
C50   C     C_3   0.140032 0.779038 0.417775 -0.702398
H33   H     H_    0.124932 0.888575 0.371114 0.235505
H34   H     H_    0.152571 0.641972 0.390427 0.200331
H35   H     H_    0.086187 0.759347 0.446269 0.228150
O24   O     O_3   0.766831 0.198901 0.463023 -0.538446
C51   C     C_3   0.786120 0.342449 0.521469 0.096773
H36   H     H_    0.733242 0.362385 0.551668 0.112165
H37   H     H_    0.800300 0.484454 0.497930 0.088549
C52   C     C_3   0.859952 0.279071 0.582231 -0.702462
H38   H     H_    0.913806 0.259452 0.553751 0.228157
H39   H     H_    0.875026 0.388587 0.628899 0.235507
H40   H     H_    0.847431 0.141985 0.609568 0.200343
Cl9   Cl    Cl    0.444952 0.052317 0.742121 -0.465011
Cl10  Cl    Cl    0.555016 0.552180 0.257851 -0.465000
Cl11  Cl    Cl    0.703769 0.938759 0.914901 -0.436063
Cl12  Cl    Cl    0.296231 0.438740 0.085095 -0.436049

loop_
_geom_bond_atom_site_label_1
_geom_bond_atom_site_label_2
_ccdc_geom_bond_type
C40   H16   S    
H9    C37   S    
C15   C17   A    
H10   C38   S    
C30   Cl2   S    
O21   C45   S    
O1    C3    A    
O16   C44   A    
C13   Cl9   S    
C2    O7    A    
C47   H27   S    
C49   H31   S    
C31   H13   S    
O3    V1    S    
C25   H3    S    
C32   H14   S    
O5    C3    A    
C25   Cl11  S    
C2    C35   S    
O14   C42   A    
C50   H34   S    
O20   V4    S    
C45   C46   S    
C35   C37   S    
C12   O24   S    
C36   C38   S    
C25   C33   S    
C8    C12   A    
C39   H15   S    
C45   H22   S    
C24   Cl8   S    
C52   H40   S    
C48   H28   S    
C20   H2    S    
O12   V3    S    
C18   C20   A    
C31   C39   S    
O14   V4    S    
C22   C24   A    
C14   Cl10  S    
O19   V3    S    
C26   Cl12  S    
O2    C4    A    
O6    V2    S    
C26   C34   S    
O16   V4    S    
C48   H29   S    
C5    C21   A    
O15   V3    S    
C47   H26   S    
C28   H6    S    
C31   C33   S    
C32   C34   S    
C3    C8    S    
C36   C40   S    
C30   C34   S    
C29   C37   S    
O4    C2    A    
C30   C38   S    
C50   H35   S    
C31   H11   S    
O20   V3    S    
C40   Cl4   S    
C9    O21   S    
C15   C23   A    
C9    C17   A    
C10   O22   S    
C19   H1    S    
O4    V2    S    
C7    C11   A    
O11   V4    S    
C11   O23   S    
C6    C22   A    
C49   H32   S    
C46   H23   S    
O6    C4    A    
C45   H21   S    
O1    V2    S    
O2    V1    S    
O13   C41   A    
O24   C51   S    
O17   V3    S    
O13   V3    S    
C46   H24   S    
C37   H19   S    
C9    C11   A    
C52   H38   S    
C5    C19   A    
C48   H30   S    
C10   C12   A    
C6    C20   A    
C51   H37   S    
C23   Cl7   S    
C27   C35   S    
C34   C43   S    
O23   C49   S    
C32   H12   S    
O19   V4    S    
C39   Cl3   S    
C10   C18   A    
C22   Cl6   S    
O12   C44   A    
C26   H4    S    
O3    C1    A    
C21   Cl5   S    
C25   C27   S    
C51   H36   S    
C32   C40   S    
C13   C15   A    
C14   C16   A    
C28   C36   S    
C51   C52   S    
C16   C18   A    
O7    V1    S    
C1    O8    A    
C27   H5    S    
O8    V2    S    
C50   H33   S    
C29   Cl1   S    
O15   C43   A    
C42   O17   A    
C8    C14   A    
C41   O18   A    
C6    C41   S    
O18   V4    S    
C4    C7    S    
O5    V1    S    
C5    C42   S    
C21   C23   A    
C1    C36   S    
C29   C33   S    
C38   H20   S    
C7    C13   A    
C49   C50   S    
C30   H18   S    
C35   C39   S    
C26   C28   S    
C46   H25   S    
C16   C24   A    
C17   C19   A    
O9    V2    S    
O22   C47   S    
C52   H39   S    
O10   V1    S    
C29   H17   S    
C33   C44   S    
C27   H7    S    
O11   C43   A    
C47   C48   S    
C28   H8    S    
