data_mof_unit_42682.cif
_audit_creation_date              2012-12-10T19:11:32-0500
_audit_creation_method            fapswitch 2.2
_symmetry_space_group_name_H-M    P1
_symmetry_Int_Tables_number       1
_space_group_crystal_system       triclinic
_cell_length_a                    7.779924
_cell_length_b                    9.096911
_cell_length_c                    17.410037
_cell_angle_alpha                 89.985034
_cell_angle_beta                  84.48628
_cell_angle_gamma                 90.00296
_cell_volume                      1226.46435237

loop_
_atom_site_label
_atom_site_type_symbol
_atom_type_description
_atom_site_fract_x
_atom_site_fract_y
_atom_site_fract_z
_atom_type_partial_charge
C1    C     C_R   0.499999 0.779991 0.500013 0.844761
C2    C     C_R   0.500000 0.220008 0.499987 0.844839
C3    C     C_1   0.500002 0.934637 0.500004 -0.153009
C4    C     C_1   0.499998 0.065363 0.499996 -0.153055
C5    C     C_R   0.474841 0.496513 0.650557 0.789561
C6    C     C_R   0.525163 0.503603 0.349444 0.789499
C7    C     C_R   0.456163 0.485975 0.735368 -0.116036
C8    C     C_R   0.543821 0.514650 0.264645 -0.116019
C9    C     C_R   0.605280 0.456088 0.772038 -0.203491
C10   C     C_R   0.394683 0.544948 0.228060 -0.203694
C11   C     C_R   0.599125 0.451094 0.851745 -0.123162
C12   C     C_R   0.400755 0.550538 0.148369 -0.123253
C13   C     C_R   0.443375 0.477758 0.896789 0.159100
C14   C     C_R   0.556442 0.524095 0.103244 0.159042
C15   C     C_R   0.292583 0.502641 0.861361 -0.197858
C16   C     C_R   0.707270 0.498850 0.138586 -0.197740
C17   C     C_R   0.295976 0.505562 0.781046 0.006663
C18   C     C_R   0.703980 0.495301 0.218896 0.006513
C19   C     C_2   0.433649 0.478479 0.981158 -0.201773
C20   C     C_2   0.566038 0.523731 0.018877 -0.201861
Cu1   Cu    Cu3+1 0.330920 0.500000 0.500000 1.054933
Cu2   Cu    Cu3+1 0.669080 0.500000 0.500000 1.054931
H1    H     H_    0.171529 0.520078 0.896620 0.137523
H2    H     H_    0.828266 0.481574 0.103256 0.137750
H3    H     H_    0.283511 0.576723 0.122447 0.141152
H4    H     H_    0.716346 0.425154 0.877737 0.141074
H5    H     H_    0.727817 0.435609 0.738968 0.203320
H6    H     H_    0.272177 0.565278 0.261190 0.203319
N1    N     N_1   0.923170 0.500000 0.500010 -0.018351
N2    N     N_1   0.076830 0.500000 0.499990 -0.018401
O1    O     O_R   0.357240 0.711600 0.500000 -0.578209
O2    O     O_R   0.642760 0.288400 0.500000 -0.578194
O3    O     O_R   0.642760 0.711600 0.500000 -0.573003
O4    O     O_R   0.357240 0.288400 0.500000 -0.572961
O5    O     O_R   0.340660 0.500000 0.613590 -0.555665
O6    O     O_R   0.659340 0.500000 0.386410 -0.555469
O7    O     O_R   0.626230 0.500000 0.613600 -0.586195
O8    O     O_R   0.373770 0.500000 0.386400 -0.586149
C21   C     C_2   0.870633 0.470849 0.251011 0.834348
O9    O     O_2   0.929523 0.565069 0.291146 -0.586548
O10   O     O_R   0.964991 0.343299 0.231468 -0.762439
H7    H     H_    0.077549 0.338950 0.256279 0.332412
C22   C     C_2   0.129412 0.529675 0.748813 0.834662
O11   O     O_2   0.070359 0.434920 0.709071 -0.586687
O12   O     O_R   0.035450 0.657692 0.767710 -0.762318
H8    H     H_    0.923019 0.661883 0.742810 0.332436
H9    H     H_    0.686929 0.557468 0.987430 0.151810
H10   H     H_    0.312764 0.444738 0.012603 0.151895

loop_
_geom_bond_atom_site_label_1
_geom_bond_atom_site_label_2
_ccdc_geom_bond_type
C2    C4    S    
C22   O11   D    
C6    O8    A    
N1    N2    T    
Cu1   O5    S    
Cu2   N1    S    
C5    O7    A    
C9    C11   A    
O10   H7    S    
C19   C20   D    
C12   H3    S    
C18   C21   S    
Cu1   Cu2   S    
C2    O4    A    
C15   H1    S    
C1    O3    A    
C16   H2    S    
C16   C18   A    
O12   H8    S    
C22   O12   S    
Cu1   O1    S    
Cu2   O2    S    
C11   C13   A    
C10   C12   A    
C2    O2    A    
C12   C14   A    
C7    C9    A    
C13   C15   A    
C14   C16   A    
C20   H9    S    
C13   C19   S    
C3    C4    T    
C21   O9    D    
C5    O5    A    
C1    O1    A    
Cu2   O6    S    
C9    H5    S    
C14   C20   S    
C21   O10   S    
Cu1   N2    S    
C10   H6    S    
C17   C22   S    
C15   C17   A    
Cu2   O3    S    
C5    C7    S    
C6    C8    S    
Cu1   O4    S    
C11   H4    S    
C1    C3    S    
C19   H10   S    
Cu2   O7    S    
C8    C10   A    
C8    C18   A    
Cu1   O8    S    
C6    O6    A    
C7    C17   A    
