data_mof_unit_46467.cif
_audit_creation_date              2012-12-11T14:54:26-0500
_audit_creation_method            fapswitch 2.2
_symmetry_space_group_name_H-M    P1
_symmetry_Int_Tables_number       1
_space_group_crystal_system       triclinic
_cell_length_a                    18.93692
_cell_length_b                    10.992558
_cell_length_c                    18.845514
_cell_angle_alpha                 90.178641
_cell_angle_beta                  89.897623
_cell_angle_gamma                 90.029134
_cell_volume                      3922.95420318

loop_
_atom_site_label
_atom_site_type_symbol
_atom_type_description
_atom_site_fract_x
_atom_site_fract_y
_atom_site_fract_z
_atom_type_partial_charge
C1    C     C_R   0.731101 0.378826 0.647252 0.583961
C2    C     C_R   0.268143 0.385341 0.350750 0.567856
C3    C     C_R   0.231102 0.878828 0.647254 0.583651
C4    C     C_R   0.768145 0.885334 0.350756 0.555804
C5    C     C_3   0.534031 0.355055 0.449568 0.006062
C6    C     C_3   0.552030 0.360551 0.528287 -0.007472
C7    C     C_3   0.034032 0.855062 0.449566 0.005764
C8    C     C_3   0.052033 0.860555 0.528285 -0.007513
C9    C     C_R   0.674177 0.960199 0.521401 0.156945
C10   C     C_R   0.300601 0.879336 0.463339 0.180409
C11   C     C_R   0.174181 0.460191 0.521401 0.156759
C12   C     C_R   0.800606 0.379345 0.463341 0.180208
C13   C     C_R   0.681924 0.939347 0.447774 -0.196023
C14   C     C_R   0.293768 0.852476 0.535068 -0.208280
C15   C     C_R   0.181928 0.439345 0.447774 -0.195699
C16   C     C_R   0.793773 0.352486 0.535069 -0.208239
C17   C     C_R   0.748180 0.951919 0.416055 -0.018623
C18   C     C_R   0.254189 0.927054 0.579690 0.017830
C19   C     C_R   0.248185 0.451912 0.416056 -0.018836
C20   C     C_R   0.754186 0.427056 0.579689 0.017594
C21   C     C_R   0.803137 0.009094 0.454982 0.237369
C22   C     C_R   0.226430 0.036753 0.555208 0.222593
C23   C     C_R   0.303146 0.509071 0.454987 0.236193
C24   C     C_R   0.726420 0.536749 0.555204 0.222189
C25   C     C_R   0.799259 0.014320 0.527824 0.075706
C26   C     C_R   0.231052 0.062414 0.482217 0.023520
C27   C     C_R   0.299264 0.514299 0.527829 0.075769
C28   C     C_R   0.731045 0.562412 0.482214 0.023710
C29   C     C_R   0.734032 0.993339 0.562444 0.041105
C30   C     C_R   0.265742 0.981771 0.435805 0.085190
C31   C     C_R   0.234036 0.493326 0.562446 0.041238
C32   C     C_R   0.765742 0.481773 0.435804 0.085681
C33   C     C_R   0.459156 0.077234 0.950140 0.159994
C34   C     C_R   0.454445 0.065666 0.023695 0.190454
C35   C     C_R   0.958019 0.580646 0.949972 0.164275
C36   C     C_R   0.950854 0.569673 0.023326 0.211477
C37   C     C_R   0.480596 0.159762 0.068463 -0.003253
C38   C     C_R   0.496844 0.175440 0.921603 -0.073567
C39   C     C_R   0.979503 0.660300 0.068674 -0.003634
C40   C     C_R   0.999670 0.675107 0.922692 -0.062076
C41   C     C_R   0.511381 0.264412 0.039778 0.215276
C42   C     C_R   0.517269 0.274793 0.965877 0.154733
C43   C     C_R   0.014627 0.761463 0.041285 0.192395
C44   C     C_R   0.023061 0.771324 0.967751 0.149135
C45   C     C_R   0.531370 0.155338 0.646908 0.552165
C46   C     C_R   0.438054 0.151316 0.361034 0.532435
C47   C     C_R   0.031373 0.655338 0.646906 0.551687
C48   C     C_R   0.938056 0.651316 0.361034 0.531908
C49   C     C_R   0.809398 0.894504 0.954340 0.035609
C50   C     C_R   0.208590 0.009331 0.027777 0.036955
C51   C     C_R   0.303539 0.349952 0.942860 0.036454
C52   C     C_R   0.711230 0.510341 0.027328 0.041342
C53   C     C_R   0.817625 0.877764 0.026555 -0.192517
C54   C     C_R   0.201741 0.978140 0.958320 -0.127023
C55   C     C_R   0.316346 0.320906 0.013513 -0.191228
C56   C     C_R   0.701275 0.476463 0.958605 -0.129620
C57   C     C_R   0.761027 0.899099 0.073045 0.032846
C58   C     C_R   0.230815 0.871000 0.932365 0.068776
C59   C     C_R   0.272632 0.366694 0.067142 0.033393
C60   C     C_R   0.728429 0.367422 0.933067 0.067106
C61   C     C_R   0.694764 0.931724 0.048581 0.209396
C62   C     C_R   0.270950 0.793935 0.976307 0.219445
C63   C     C_R   0.214689 0.441090 0.051277 0.225483
C64   C     C_R   0.767508 0.289586 0.977448 0.221067
C65   C     C_R   0.686584 0.950616 0.975362 0.044465
C66   C     C_R   0.277328 0.823577 0.048926 0.061880
C67   C     C_R   0.202190 0.471335 0.979710 0.053344
C68   C     C_R   0.774454 0.320015 0.049968 0.061247
C69   C     C_R   0.744568 0.933208 0.928597 0.100047
C70   C     C_R   0.246879 0.932142 0.073772 0.101994
C71   C     C_R   0.247799 0.426876 0.926384 0.100008
C72   C     C_R   0.746840 0.431158 0.074005 0.108636
C73   C     C_R   0.728382 0.017762 0.639505 0.598160
C74   C     C_R   0.271296 0.014772 0.360527 0.600178
C75   C     C_R   0.228384 0.517757 0.639505 0.598515
C76   C     C_R   0.771296 0.514771 0.360527 0.598790
C77   C     C_R   0.712792 0.336046 0.860159 0.614474
C78   C     C_R   0.288058 0.334329 0.139848 0.589536
C79   C     C_R   0.213697 0.837904 0.860230 0.622313
C80   C     C_R   0.772121 0.874642 0.146614 0.607415
C81   C     C_R   0.530651 0.158945 0.852334 0.557563
C82   C     C_R   0.463594 0.155513 0.144099 0.619857
C83   C     C_R   0.031763 0.658768 0.852939 0.566557
C84   C     C_R   0.962937 0.655509 0.144023 0.627023
C85   C     C_R   0.739714 0.974349 0.855586 0.638337
C86   C     C_R   0.258547 0.973036 0.145468 0.619000
C87   C     C_R   0.240562 0.472345 0.854654 0.647894
C88   C     C_R   0.758519 0.472616 0.145611 0.629814
C89   C     C_R   0.454673 0.158851 0.436451 -0.001323
C90   C     C_R   0.490830 0.165544 0.581420 0.021839
C91   C     C_R   0.954677 0.658853 0.436449 -0.000777
C92   C     C_R   0.990836 0.665545 0.581417 0.021556
C93   C     C_R   0.475866 0.267668 0.468652 0.034221
C94   C     C_R   0.493352 0.271331 0.540085 0.022473
C95   C     C_R   0.975869 0.767671 0.468651 0.034478
C96   C     C_R   0.993355 0.771334 0.540083 0.022401
C97   C     C_R   0.459398 0.061165 0.551981 -0.138919
C98   C     C_R   0.443479 0.057215 0.479754 -0.185162
C99   C     C_R   0.959405 0.561164 0.551978 -0.139170
C100  C     C_R   0.943486 0.557215 0.479752 -0.185052
Cr1   Cr    Cr6+3 0.771950 0.169480 0.750100 1.079730
Cr2   Cr    Cr6+3 0.228050 0.169480 0.249900 1.077543
Cr3   Cr    Cr6+3 0.271950 0.669480 0.750100 1.079501
Cr4   Cr    Cr6+3 0.728050 0.669480 0.249900 1.081730
Cr5   Cr    Cr6+3 0.614930 0.323340 0.749170 1.034896
Cr6   Cr    Cr6+3 0.385070 0.323340 0.250830 1.066110
Cr7   Cr    Cr6+3 0.114930 0.823340 0.749170 1.035097
Cr8   Cr    Cr6+3 0.885070 0.823340 0.250830 1.062486
Cr9   Cr    Cr6+3 0.616590 0.010620 0.750610 1.086261
Cr10  Cr    Cr6+3 0.383410 0.010620 0.249390 1.094606
Cr11  Cr    Cr6+3 0.116590 0.510620 0.750610 1.089379
Cr12  Cr    Cr6+3 0.883410 0.510620 0.249390 1.096829
H1    H     H_    0.454340 0.978289 0.582534 0.154420
H2    H     H_    0.427283 0.972127 0.456713 0.163203
H3    H     H_    0.954348 0.478287 0.582530 0.154500
H4    H     H_    0.927292 0.472127 0.456710 0.163291
H5    H     H_    0.868284 0.847576 0.046433 0.152156
H6    H     H_    0.172025 0.039670 0.924888 0.173880
H7    H     H_    0.359379 0.261075 0.026562 0.113680
H8    H     H_    0.672964 0.539497 0.924903 0.172903
H9    H     H_    0.014361 0.941938 0.426769 0.206660
H10   H     H_    0.105348 0.825900 0.542737 0.162708
H11   H     H_    0.514362 0.441931 0.426769 0.206700
H12   H     H_    0.605345 0.325896 0.542741 0.162717
H13   H     H_    0.638583 0.901966 0.417223 0.141327
H14   H     H_    0.316346 0.769632 0.555234 0.141270
H15   H     H_    0.138586 0.401972 0.417222 0.141578
H16   H     H_    0.816357 0.269649 0.555237 0.141301
O1    O     O_R   0.787510 0.042610 0.670410 -0.487596
O2    O     O_R   0.212490 0.042610 0.329590 -0.475668
O3    O     O_R   0.287510 0.542610 0.670410 -0.487390
O4    O     O_R   0.712490 0.542610 0.329590 -0.476716
O5    O     O_R   0.556450 0.252890 0.823790 -0.501930
O6    O     O_R   0.443550 0.252890 0.176210 -0.474959
O7    O     O_R   0.056450 0.752890 0.823790 -0.500467
O8    O     O_R   0.943550 0.752890 0.176210 -0.463168
O9    O     O_R   0.545750 0.051070 0.830560 -0.470393
O10   O     O_R   0.454250 0.051070 0.169440 -0.448875
O11   O     O_R   0.045750 0.551070 0.830560 -0.477433
O12   O     O_R   0.954250 0.551070 0.169440 -0.455152
O13   O     O_R   0.681210 0.959150 0.825320 -0.487287
O14   O     O_R   0.318790 0.959150 0.174680 -0.450468
O15   O     O_R   0.181210 0.459150 0.825320 -0.488103
O16   O     O_R   0.818790 0.459150 0.174680 -0.448956
O17   O     O_3   0.667820 0.167810 0.749960 -0.322768
O18   O     O_3   0.332180 0.167810 0.250040 -0.358641
O19   O     O_3   0.167820 0.667810 0.749960 -0.320084
O20   O     O_3   0.832180 0.667810 0.250040 -0.337712
O21   O     O_R   0.765670 0.292090 0.675090 -0.537646
O22   O     O_R   0.234330 0.292090 0.324910 -0.490457
O23   O     O_R   0.265670 0.792090 0.675090 -0.538246
O24   O     O_R   0.734330 0.792090 0.324910 -0.494159
O25   O     O_R   0.670220 0.409020 0.668560 -0.472652
O26   O     O_R   0.329780 0.409020 0.331440 -0.490992
O27   O     O_R   0.170220 0.909020 0.668560 -0.472894
O28   O     O_R   0.829780 0.909020 0.331440 -0.494065
O29   O     O_R   0.556580 0.251590 0.674980 -0.525738
O30   O     O_R   0.443420 0.251590 0.325020 -0.496667
O31   O     O_R   0.056580 0.751590 0.674980 -0.525730
O32   O     O_R   0.943420 0.751590 0.325020 -0.496018
O33   O     O_R   0.545890 0.049670 0.670030 -0.478269
O34   O     O_R   0.454110 0.049670 0.329970 -0.508447
O35   O     O_R   0.045890 0.549670 0.670030 -0.478660
O36   O     O_R   0.954110 0.549670 0.329970 -0.510101
O37   O     O_R   0.681340 0.957860 0.676500 -0.440190
O38   O     O_R   0.318660 0.957860 0.323500 -0.453523
O39   O     O_R   0.181340 0.457860 0.676500 -0.439923
O40   O     O_R   0.818660 0.457860 0.323500 -0.456915
O41   O     O_R   0.787380 0.044010 0.830940 -0.444992
O42   O     O_R   0.212620 0.044010 0.169060 -0.488524
O43   O     O_R   0.287380 0.544010 0.830940 -0.457361
O44   O     O_R   0.712620 0.544010 0.169060 -0.482620
O45   O     O_R   0.765540 0.293390 0.823910 -0.446863
O46   O     O_R   0.234460 0.293390 0.176090 -0.433417
O47   O     O_R   0.265540 0.793390 0.823910 -0.445988
O48   O     O_R   0.734460 0.793390 0.176090 -0.446661
O49   O     O_R   0.670090 0.410410 0.829090 -0.514159
O50   O     O_R   0.329910 0.410410 0.170910 -0.494255
O51   O     O_R   0.170090 0.910410 0.829090 -0.516865
O52   O     O_R   0.829910 0.910410 0.170910 -0.532331
N1    N     N_3   0.867018 0.874769 0.906792 -0.607735
H17   H     H_    0.879246 0.782523 0.908611 0.226117
H18   H     H_    0.909843 0.925776 0.924982 0.244840
N2    N     N_3   0.175732 0.120502 0.050780 -0.573070
H19   H     H_    0.121061 0.110139 0.046123 0.246654
H20   H     H_    0.190312 0.189605 0.015857 0.222537
N3    N     N_3   0.346128 0.300963 0.887062 -0.623584
H21   H     H_    0.346912 0.206424 0.892110 0.243552
H22   H     H_    0.396945 0.335578 0.892978 0.237528
N4    N     N_3   0.686767 0.628528 0.048359 -0.566222
H23   H     H_    0.631949 0.631226 0.041876 0.247879
H24   H     H_    0.708775 0.691516 0.013396 0.220652
O53   O     O_3   0.641108 0.948435 0.097741 -0.680324
H25   H     H_    0.595241 0.958704 0.073723 0.335321
O54   O     O_3   0.301699 0.691668 0.946864 -0.674578
H26   H     H_    0.330650 0.648493 0.982275 0.323182
O55   O     O_3   0.173574 0.484049 0.106847 -0.663346
H27   H     H_    0.133759 0.533067 0.089002 0.328015
O56   O     O_3   0.797471 0.186551 0.948466 -0.680511
H28   H     H_    0.829867 0.148249 0.982752 0.325650
N5    N     N_3   0.621957 0.998032 0.948995 -0.581989
H29   H     H_    0.611669 0.078528 0.976641 0.224303
H30   H     H_    0.581973 0.934356 0.958115 0.250992
N6    N     N_3   0.311884 0.743996 0.098226 -0.590613
H31   H     H_    0.364826 0.733914 0.083696 0.247420
H32   H     H_    0.287060 0.659140 0.096756 0.260405
N7    N     N_3   0.145297 0.549969 0.960322 -0.603058
H33   H     H_    0.151333 0.633150 0.986598 0.236483
H34   H     H_    0.098199 0.508754 0.976241 0.235090
N8    N     N_3   0.807689 0.239635 0.099680 -0.600887
H35   H     H_    0.860798 0.228820 0.085911 0.245070
H36   H     H_    0.782298 0.155311 0.097580 0.245025
N9    N     N_3   0.591349 0.300346 0.407872 -0.621340
H37   H     H_    0.602047 0.212213 0.425822 0.241610
H38   H     H_    0.574906 0.293426 0.355146 0.272208
N10   N     N_3   0.535426 0.479063 0.559153 -0.637602
H39   H     H_    0.543253 0.473799 0.613918 0.280858
H40   H     H_    0.572127 0.541634 0.539707 0.252717
N11   N     N_3   0.091350 0.800359 0.407868 -0.620374
H41   H     H_    0.102049 0.712224 0.425813 0.242007
H42   H     H_    0.074907 0.793446 0.355141 0.272907
N12   N     N_3   0.035430 0.979067 0.559153 -0.637511
H43   H     H_    0.043249 0.973795 0.613919 0.280969
H44   H     H_    0.072137 0.041633 0.539715 0.252667
O57   O     O_3   0.610411 0.939431 0.554579 -0.680568
H45   H     H_    0.575868 0.909624 0.519072 0.318446
O58   O     O_3   0.341896 0.807364 0.420191 -0.684141
H46   H     H_    0.377097 0.765706 0.450453 0.331745
O59   O     O_3   0.110414 0.439426 0.554579 -0.680661
H47   H     H_    0.075872 0.409619 0.519071 0.318450
O60   O     O_3   0.841907 0.307379 0.420194 -0.685386
H48   H     H_    0.877108 0.265725 0.450457 0.331790
O61   O     O_3   0.865563 0.047740 0.424584 -0.699629
H49   H     H_    0.853067 0.092665 0.380814 0.374947
O62   O     O_3   0.195540 0.115007 0.604082 -0.675354
H50   H     H_    0.176297 0.188003 0.580743 0.340590
O63   O     O_3   0.365578 0.547702 0.424595 -0.699896
H51   H     H_    0.353088 0.592643 0.380828 0.376239
O64   O     O_3   0.695521 0.614998 0.604076 -0.676160
H52   H     H_    0.676265 0.687979 0.580733 0.340526
N13   N     N_3   0.863968 0.032612 0.566315 -0.559788
H53   H     H_    0.896467 0.957881 0.556351 0.279307
H54   H     H_    0.889879 0.110567 0.548348 0.255036
N14   N     N_3   0.206321 0.174991 0.455381 -0.618748
H55   H     H_    0.234999 0.240912 0.482771 0.228187
H56   H     H_    0.152306 0.182974 0.465944 0.233855
N15   N     N_3   0.363971 0.532592 0.566322 -0.559841
H57   H     H_    0.396471 0.457861 0.556362 0.279350
H58   H     H_    0.389882 0.610549 0.548357 0.255027
N16   N     N_3   0.706312 0.674988 0.455376 -0.617676
H59   H     H_    0.734983 0.740911 0.482772 0.228588
H60   H     H_    0.652295 0.682962 0.465931 0.233780
O65   O     O_3   0.427856 0.989783 0.907550 -0.686349
H61   H     H_    0.418954 0.024805 0.860001 0.336202
O66   O     O_3   0.421906 0.964992 0.053078 -0.664769
H62   H     H_    0.418545 0.898863 0.017501 0.371270
O67   O     O_3   0.924303 0.497477 0.906388 -0.682616
H63   H     H_    0.916831 0.534809 0.859185 0.335881
O68   O     O_3   0.914003 0.472950 0.052026 -0.662043
H64   H     H_    0.908895 0.407385 0.016304 0.371134
O69   O     O_3   0.534976 0.354540 0.085498 -0.664160
H65   H     H_    0.557390 0.421322 0.058537 0.372684
O70   O     O_3   0.544988 0.380826 0.938666 -0.706992
H66   H     H_    0.514490 0.405975 0.898671 0.342386
O71   O     O_3   0.040410 0.848167 0.088020 -0.672202
H67   H     H_    0.064083 0.914372 0.061789 0.371103
O72   O     O_3   0.057021 0.872683 0.941857 -0.718064
H68   H     H_    0.027794 0.905735 0.902942 0.344309

loop_
_geom_bond_atom_site_label_1
_geom_bond_atom_site_label_2
_ccdc_geom_bond_type
C2    O22   A    
Cr5   O25   S    
C49   C53   A    
C58   C62   A    
C93   C94   A    
C88   O44   A    
C13   H13   S    
C55   C59   A    
C34   C37   A    
C56   H8    S    
C41   C42   A    
Cr12  O12   S    
Cr1   O45   S    
C95   C96   A    
C8    C96   S    
C6    H12   S    
N7    H34   S    
C68   N8    S    
C83   O11   A    
C97   C98   A    
Cr10  O34   S    
Cr3   O19   S    
O70   H66   S    
Cr4   O48   S    
C46   C89   S    
C55   H7    S    
N9    H37   S    
N2    H19   S    
C85   O41   A    
C15   C19   A    
C48   O32   A    
Cr1   O17   S    
C50   C54   A    
C37   C41   A    
C64   C68   A    
O64   H52   S    
N10   H40   S    
C39   C84   S    
C38   C42   A    
Cr11  O19   S    
C99   H3    S    
O65   H61   S    
C30   C74   S    
C53   H5    S    
C98   H2    S    
C29   C73   S    
Cr8   O20   S    
N16   H60   S    
Cr12  O40   S    
C75   O39   A    
C92   C96   A    
N14   H55   S    
Cr8   O52   S    
C3    C18   S    
Cr9   O9    S    
N13   H53   S    
N5    H29   S    
C36   O68   S    
Cr1   O21   S    
C57   C61   A    
Cr10  O14   S    
C45   O33   A    
C9    C13   A    
Cr1   O41   S    
C52   C56   A    
C11   C15   A    
Cr5   O29   S    
C12   C16   A    
N14   H56   S    
Cr6   O26   S    
C48   C91   S    
C100  H4    S    
C77   O45   A    
O62   H50   S    
C1    O21   A    
C23   C27   A    
C91   C100  A    
Cr4   O20   S    
O71   H67   S    
C90   C97   A    
C83   O7    A    
O53   H25   S    
Cr11  O15   S    
Cr4   O44   S    
C47   O35   A    
C5    C93   S    
C51   N3    S    
N15   H58   S    
C2    C19   S    
C57   C80   S    
Cr5   O17   S    
O56   H28   S    
C11   O59   S    
C49   C69   A    
O63   H51   S    
C12   C32   A    
Cr3   O43   S    
C25   N13   S    
N5    H30   S    
C40   C83   S    
C78   O50   A    
C76   O4    A    
C51   C71   A    
C62   O54   S    
C7    H9    S    
C47   C92   S    
Cr12  O36   S    
C59   C78   S    
C3    O27   A    
C72   C88   S    
C75   O3    A    
C90   C94   A    
C44   O72   S    
C63   C67   A    
N1    H18   S    
C25   C29   A    
C4    O24   A    
C21   O61   S    
C60   C77   S    
C59   C63   A    
N3    H22   S    
C62   C66   A    
Cr11  O11   S    
N7    H33   S    
C79   O47   A    
C28   C32   A    
C45   O29   A    
N10   H39   S    
C68   C72   A    
C74   O38   A    
C73   O37   A    
C10   C14   A    
C85   O13   A    
N11   H41   S    
C53   C57   A    
C19   C23   A    
Cr9   O13   S    
C47   O31   A    
O54   H26   S    
C51   C55   A    
C6    C94   S    
N16   H59   S    
N1    H17   S    
C27   C31   A    
C17   C21   A    
Cr12  O20   S    
C34   O66   S    
N13   H54   S    
C35   C36   A    
C82   O6    A    
C81   O9    A    
C43   C44   A    
N4    H23   S    
O59   H47   S    
C52   C72   A    
C69   C85   S    
C27   N15   S    
N11   H42   S    
Cr7   O19   S    
C10   C30   A    
Cr6   O6    S    
Cr7   O31   S    
O58   H46   S    
Cr8   O28   S    
C88   O16   A    
Cr10  O10   S    
C16   C20   A    
C87   O43   A    
Cr3   O47   S    
C33   C34   A    
Cr11  O35   S    
C52   N4    S    
N6    H31   S    
C1    O25   A    
C45   C90   S    
C16   H16   S    
C80   O48   A    
C24   O64   S    
Cr9   O37   S    
C58   C79   S    
Cr2   O22   S    
C61   C65   A    
C49   N1    S    
C4    C17   S    
C4    O28   A    
N6    H32   S    
C26   C30   A    
N8    H36   S    
C35   O67   S    
C54   H6    S    
C38   C81   S    
Cr4   O4    S    
C10   O58   S    
C54   C58   A    
C71   C87   S    
C37   C82   S    
C64   O56   S    
Cr11  O39   S    
C97   H1    S    
O68   H64   S    
C70   C86   S    
C74   O2    A    
C61   O53   S    
C31   C75   S    
O67   H63   S    
O60   H48   S    
C8    N12   S    
C86   O14   A    
C12   O60   S    
Cr5   O5    S    
O61   H49   S    
C65   C69   A    
C21   C25   A    
C84   O8    A    
C1    C20   S    
N4    H24   S    
C65   N5    S    
Cr7   O51   S    
N12   H44   S    
C18   C22   A    
Cr7   O7    S    
C81   O5    A    
C36   C39   A    
Cr9   O17   S    
C24   C28   A    
C77   O49   A    
Cr5   O49   S    
C42   O70   S    
C14   H14   S    
C50   N2    S    
C32   C76   S    
C39   C43   A    
N15   H57   S    
C43   O71   S    
Cr8   O32   S    
Cr3   O23   S    
Cr2   O46   S    
C7    C95   S    
C5    H11   S    
C3    O23   A    
C33   C38   A    
Cr6   O18   S    
Cr8   O8    S    
C13   C17   A    
C89   C98   A    
C60   C64   A    
O72   H68   S    
C87   O15   A    
Cr12  O16   S    
C41   O69   S    
C35   C40   A    
C50   C70   A    
N9    H38   S    
C66   N6    S    
N3    H21   S    
C80   O52   A    
Cr9   O33   S    
C99   C100  A    
Cr2   O18   S    
Cr6   O30   S    
C9    C29   A    
Cr10  O38   S    
Cr4   O24   S    
C5    C6    S    
Cr3   O3    S    
C86   O42   A    
C48   O36   A    
C23   O63   S    
C5    N9    S    
C63   O55   S    
N2    H20   S    
C14   C18   A    
C76   O40   A    
C26   N14   S    
C67   C71   A    
C8    H10   S    
C89   C93   A    
O55   H27   S    
C20   C24   A    
C28   N16   S    
Cr2   O42   S    
C7    C8    S    
C7    N11   S    
C11   C31   A    
C22   O62   S    
C56   C60   A    
C40   C44   A    
C79   O51   A    
C6    N10   S    
C66   C70   A    
C84   O12   A    
C91   C95   A    
C82   O10   A    
N8    H35   S    
C22   C26   A    
C2    O26   A    
C33   O65   S    
C78   O46   A    
C67   N7    S    
O69   H65   S    
Cr2   O2    S    
C15   H15   S    
C9    O57   S    
Cr10  O18   S    
C46   O34   A    
N12   H43   S    
Cr6   O50   S    
Cr7   O27   S    
O66   H62   S    
C92   C99   A    
Cr1   O1    S    
O57   H45   S    
C73   O1    A    
C46   O30   A    
