data_mof_unit_46571.cif
_audit_creation_date              2012-12-10T17:09:20-0500
_audit_creation_method            fapswitch 2.2
_symmetry_space_group_name_H-M    P1
_symmetry_Int_Tables_number       1
_space_group_crystal_system       triclinic
_cell_length_a                    18.148005
_cell_length_b                    18.695655
_cell_length_c                    11.747599
_cell_angle_alpha                 90.035609
_cell_angle_beta                  74.398016
_cell_angle_gamma                 90.006665
_cell_volume                      3838.96365893

loop_
_atom_site_label
_atom_site_type_symbol
_atom_type_description
_atom_site_fract_x
_atom_site_fract_y
_atom_site_fract_z
_atom_type_partial_charge
C1    C     C_R   0.397435 0.098337 0.522927 0.835666
C2    C     C_R   0.599567 0.898343 0.476975 0.836106
C3    C     C_R   0.602613 0.098292 0.477075 0.833701
C4    C     C_R   0.400553 0.898253 0.522983 0.842416
C5    C     C_R   0.900459 0.601679 0.522976 0.836576
C6    C     C_R   0.102583 0.401675 0.477038 0.835490
C7    C     C_R   0.099432 0.601787 0.477110 0.840795
C8    C     C_R   0.897460 0.401632 0.522950 0.831756
C9    C     C_R   0.536697 0.000261 0.960722 -0.008179
C10   C     C_R   0.463293 0.999883 0.039284 -0.005425
C11   C     C_R   0.036707 0.500178 0.960703 0.001079
C12   C     C_R   0.963316 0.500137 0.039265 0.001961
C13   C     C_R   0.409522 0.999102 0.868540 0.071746
C14   C     C_R   0.590481 0.999680 0.131443 0.074047
C15   C     C_R   0.909538 0.501472 0.868560 0.082192
C16   C     C_R   0.090470 0.501602 0.131442 0.083507
C17   C     C_R   0.399534 0.999308 0.991239 -0.246175
C18   C     C_R   0.600461 0.000001 0.008749 -0.253204
C19   C     C_R   0.899553 0.501081 0.991264 -0.269060
C20   C     C_R   0.100466 0.501128 0.008720 -0.269699
C21   C     C_R   0.544300 0.001448 0.836347 0.139180
C22   C     C_R   0.455688 0.000602 0.163669 0.138683
C23   C     C_R   0.044291 0.498481 0.836358 0.138155
C24   C     C_R   0.955713 0.498234 0.163610 0.140386
C25   C     C_R   0.662624 0.152592 0.462311 -0.092767
C26   C     C_R   0.345982 0.837967 0.540211 -0.127986
C27   C     C_R   0.337564 0.152774 0.537683 -0.131078
C28   C     C_R   0.654723 0.838540 0.459713 -0.136700
C29   C     C_R   0.154613 0.661597 0.460267 -0.109850
C30   C     C_R   0.838038 0.346747 0.537876 -0.114993
C31   C     C_R   0.845474 0.661621 0.539965 -0.136096
C32   C     C_R   0.162396 0.347168 0.462134 -0.131531
C33   C     C_R   0.236592 0.771967 0.660533 -0.080764
C34   C     C_R   0.784655 0.202713 0.353447 -0.194768
C35   C     C_R   0.765793 0.774372 0.339882 -0.075320
C36   C     C_R   0.215259 0.202576 0.645859 -0.082464
C37   C     C_R   0.716913 0.295344 0.647679 -0.088147
C38   C     C_R   0.265480 0.725947 0.340494 -0.184597
C39   C     C_R   0.284640 0.297186 0.353731 -0.083078
C40   C     C_R   0.734866 0.726337 0.659535 -0.070269
C41   C     C_R   0.295217 0.822401 0.652220 -0.111431
C42   C     C_R   0.728122 0.149913 0.365161 -0.134525
C43   C     C_R   0.706264 0.823818 0.348005 -0.109755
C44   C     C_R   0.271580 0.149571 0.633880 -0.148427
C45   C     C_R   0.772842 0.348761 0.635616 -0.147772
C46   C     C_R   0.205352 0.677224 0.348320 -0.102081
C47   C     C_R   0.228257 0.350209 0.365652 -0.145179
C48   C     C_R   0.794016 0.676603 0.651594 -0.102812
C49   C     C_R   0.345180 0.794593 0.442853 0.116684
C50   C     C_R   0.653521 0.207855 0.546375 0.143304
C51   C     C_R   0.655635 0.795149 0.556915 0.111287
C52   C     C_R   0.347256 0.208617 0.454592 0.136898
C53   C     C_R   0.847622 0.291322 0.453938 0.133539
C54   C     C_R   0.156528 0.703912 0.558315 0.122053
C55   C     C_R   0.152660 0.291288 0.545156 0.125401
C56   C     C_R   0.844752 0.704995 0.442584 0.114734
C57   C     C_R   0.278902 0.754143 0.445426 0.065666
C58   C     C_R   0.717658 0.250169 0.549756 0.055174
C59   C     C_R   0.722154 0.755183 0.554615 0.033890
C60   C     C_R   0.283316 0.251209 0.450943 0.036205
C61   C     C_R   0.783848 0.248307 0.451004 0.063647
C62   C     C_R   0.223318 0.743552 0.555702 0.056227
C63   C     C_R   0.216572 0.248652 0.548736 0.028851
C64   C     C_R   0.778350 0.745185 0.444718 0.039566
Cu1   Cu    Cu3+1 0.507800 1.000000 0.383250 1.003653
Cu2   Cu    Cu3+1 0.492200 1.000000 0.616750 1.000196
Cu3   Cu    Cu3+1 0.007800 0.500000 0.383250 1.004086
Cu4   Cu    Cu3+1 0.992200 0.500000 0.616750 1.005409
H1    H     H_    0.639830 0.999018 0.165943 0.181478
H2    H     H_    0.360184 0.998185 0.834007 0.177910
H3    H     H_    0.139797 0.502963 0.165976 0.180304
H4    H     H_    0.860212 0.502843 0.834037 0.177151
H5    H     H_    0.341538 0.998664 0.047485 0.186864
H6    H     H_    0.658455 0.999675 0.952477 0.187874
H7    H     H_    0.841581 0.502084 0.047598 0.181080
H8    H     H_    0.158439 0.502063 0.952390 0.181135
N1    N     N_R   0.519530 1.000000 0.207810 -0.231079
N2    N     N_R   0.480470 1.000000 0.792190 -0.231102
N3    N     N_R   0.019530 0.500000 0.207810 -0.230522
N4    N     N_R   0.980470 0.500000 0.792190 -0.228752
O1    O     O_R   0.430030 0.075530 0.417420 -0.563426
O2    O     O_R   0.569970 0.924470 0.582580 -0.560261
O3    O     O_R   0.569970 0.075530 0.582580 -0.565437
O4    O     O_R   0.430030 0.924470 0.417420 -0.560618
O5    O     O_R   0.930030 0.575530 0.417420 -0.557643
O6    O     O_R   0.069970 0.424470 0.582580 -0.566285
O7    O     O_R   0.069970 0.575530 0.582580 -0.558290
O8    O     O_R   0.930030 0.424470 0.417420 -0.564779
O9    O     O_R   0.416860 0.075510 0.614610 -0.590560
O10   O     O_R   0.583140 0.924490 0.385390 -0.576558
O11   O     O_R   0.583140 0.075510 0.385390 -0.586924
O12   O     O_R   0.416860 0.924490 0.614610 -0.580779
O13   O     O_R   0.916860 0.575510 0.614610 -0.580164
O14   O     O_R   0.083140 0.424490 0.385390 -0.586595
O15   O     O_R   0.083140 0.575510 0.385390 -0.579146
O16   O     O_R   0.916860 0.424490 0.614610 -0.588260
C65   C     C_2   0.377743 0.004783 0.243859 0.884124
O17   O     O_2   0.342094 0.950036 0.278673 -0.555256
O18   O     O_R   0.341742 0.071282 0.267564 -0.725899
H9    H     H_    0.287590 0.067498 0.320394 0.345680
C66   C     C_2   0.622133 0.007643 0.756268 0.883554
O19   O     O_2   0.652412 0.066444 0.737556 -0.560624
O20   O     O_R   0.664133 0.946171 0.713722 -0.721086
H10   H     H_    0.717426 0.957370 0.662561 0.346998
C67   C     C_2   0.878104 0.489226 0.243313 0.879809
O21   O     O_2   0.849317 0.429639 0.257464 -0.556577
O22   O     O_R   0.834771 0.548954 0.291477 -0.728485
H11   H     H_    0.781860 0.535775 0.341904 0.349644
C68   C     C_2   0.121904 0.490027 0.756537 0.882127
O23   O     O_2   0.159183 0.542487 0.713792 -0.558679
O24   O     O_R   0.155435 0.422190 0.740824 -0.718007
H12   H     H_    0.209501 0.422916 0.687117 0.343385
C69   C     C_3   0.573231 0.226970 0.619777 -0.753674
H13   H     H_    0.559379 0.199087 0.706242 0.268588
H14   H     H_    0.566764 0.285715 0.632053 0.235017
H15   H     H_    0.529389 0.211578 0.574703 0.196852
C70   C     C_3   0.419879 0.781888 0.348636 -0.706415
H16   H     H_    0.423896 0.725577 0.317749 0.218882
H17   H     H_    0.425529 0.818941 0.273025 0.274971
H18   H     H_    0.469875 0.789641 0.385001 0.220687
C71   C     C_3   0.427817 0.227682 0.382369 -0.738795
H19   H     H_    0.441855 0.200492 0.295249 0.270083
H20   H     H_    0.434662 0.286482 0.371661 0.232661
H21   H     H_    0.471318 0.211415 0.427520 0.195510
C72   C     C_3   0.580833 0.781824 0.650675 -0.681146
H22   H     H_    0.577684 0.725816 0.682928 0.240230
H23   H     H_    0.574092 0.819538 0.725746 0.273215
H24   H     H_    0.531064 0.788179 0.613352 0.215511
C73   C     C_3   0.082237 0.716947 0.653414 -0.697060
H25   H     H_    0.075863 0.678579 0.727455 0.265571
H26   H     H_    0.079524 0.772666 0.686993 0.239612
H27   H     H_    0.032020 0.711338 0.616926 0.218139
C74   C     C_3   0.927980 0.273132 0.379793 -0.743643
H28   H     H_    0.935613 0.214369 0.369986 0.217243
H29   H     H_    0.940389 0.299716 0.292299 0.278920
H30   H     H_    0.972195 0.290560 0.422777 0.199546
C75   C     C_3   0.919673 0.718041 0.348969 -0.681955
H31   H     H_    0.926179 0.680452 0.273774 0.268730
H32   H     H_    0.923265 0.774136 0.317053 0.237127
H33   H     H_    0.969381 0.711236 0.386300 0.217350
C76   C     C_3   0.072081 0.272251 0.617375 -0.729962
H34   H     H_    0.065189 0.213449 0.627939 0.234525
H35   H     H_    0.058104 0.299346 0.704583 0.278044
H36   H     H_    0.028562 0.288603 0.572302 0.195241
C77   C     C_2   0.738058 0.092064 0.275508 0.852075
O25   O     O_2   0.739423 0.029683 0.305993 -0.575688
O26   O     O_R   0.746889 0.109042 0.156667 -0.713818
H37   H     H_    0.756879 0.065382 0.103538 0.352461
C78   C     C_2   0.307722 0.851561 0.762992 0.928999
O27   O     O_2   0.262369 0.894408 0.822150 -0.527064
O28   O     O_R   0.370241 0.827833 0.800917 -0.738558
H38   H     H_    0.371430 0.849245 0.879681 0.349496
C79   C     C_2   0.261073 0.091033 0.722335 0.923356
O29   O     O_2   0.259567 0.028914 0.690487 -0.565788
O30   O     O_R   0.252325 0.107073 0.841525 -0.726268
H39   H     H_    0.242067 0.063049 0.893719 0.350024
C80   C     C_2   0.693592 0.852596 0.237084 0.924058
O31   O     O_2   0.738841 0.895327 0.177508 -0.528864
O32   O     O_R   0.631077 0.828527 0.199418 -0.754087
H40   H     H_    0.629755 0.849689 0.120582 0.335803
C81   C     C_2   0.190949 0.650401 0.237306 0.903832
O33   O     O_2   0.235587 0.608490 0.174437 -0.575715
O34   O     O_R   0.126963 0.674828 0.203987 -0.734596
H41   H     H_    0.123921 0.654351 0.125476 0.329209
C82   C     C_2   0.762759 0.406395 0.725615 0.919542
O35   O     O_2   0.758967 0.468700 0.696162 -0.568484
O36   O     O_R   0.757042 0.389262 0.843549 -0.711838
H42   H     H_    0.746527 0.432631 0.897305 0.349814
C83   C     C_2   0.806449 0.647825 0.762605 0.916753
O37   O     O_2   0.760983 0.605280 0.822215 -0.531835
O38   O     O_R   0.869056 0.671654 0.800244 -0.745045
H43   H     H_    0.870332 0.650419 0.879025 0.323987
C84   C     C_2   0.238382 0.408391 0.276598 0.915517
O39   O     O_2   0.240610 0.470640 0.307485 -0.575063
O40   O     O_R   0.245817 0.391839 0.157919 -0.715188
H44   H     H_    0.255964 0.435600 0.105111 0.348944
C85   C     C_2   0.662822 0.283108 0.765876 0.910986
O41   O     O_2   0.619082 0.330506 0.814424 -0.551044
O42   O     O_R   0.662229 0.216801 0.820985 -0.692393
H45   H     H_    0.622853 0.214349 0.900593 0.347159
C86   C     C_2   0.306472 0.754428 0.221848 0.902339
O43   O     O_2   0.294033 0.815551 0.195724 -0.485613
O44   O     O_R   0.358421 0.712405 0.139294 -0.694675
H46   H     H_    0.367328 0.664008 0.172025 0.332089
C87   C     C_2   0.339832 0.286269 0.236094 0.909527
O45   O     O_2   0.383772 0.334145 0.190225 -0.552878
O46   O     O_R   0.341098 0.220745 0.178268 -0.699706
H47   H     H_    0.381162 0.219202 0.099262 0.348581
C88   C     C_2   0.693685 0.754314 0.778177 0.857305
O47   O     O_2   0.702328 0.816642 0.803120 -0.544052
O48   O     O_R   0.646041 0.709289 0.861167 -0.703247
H48   H     H_    0.621576 0.734665 0.938391 0.352691
C89   C     C_2   0.196661 0.742553 0.778795 0.864288
O49   O     O_2   0.157777 0.781525 0.855351 -0.529483
O50   O     O_R   0.204200 0.670062 0.801911 -0.698778
H49   H     H_    0.174391 0.656052 0.884893 0.334631
C90   C     C_2   0.839479 0.213611 0.235183 0.956816
O51   O     O_2   0.836658 0.268883 0.181246 -0.470069
O52   O     O_R   0.893920 0.161765 0.184128 -0.700122
H50   H     H_    0.893664 0.119584 0.238353 0.304050
C91   C     C_2   0.807512 0.746835 0.221157 0.860505
O53   O     O_2   0.848205 0.786735 0.148263 -0.530315
O54   O     O_R   0.799312 0.675218 0.193157 -0.711432
H51   H     H_    0.830600 0.662443 0.110377 0.335489
C92   C     C_2   0.159676 0.212527 0.763307 0.907187
O55   O     O_2   0.159011 0.268770 0.816723 -0.520235
O56   O     O_R   0.108744 0.157652 0.812736 -0.725996
H52   H     H_    0.073935 0.171024 0.892880 0.367712

loop_
_geom_bond_atom_site_label_1
_geom_bond_atom_site_label_2
_ccdc_geom_bond_type
Cu4   N4    S    
C6    C32   S    
O38   H43   S    
C82   O35   D    
C7    C29   S    
Cu4   O6    S    
C83   O37   D    
C14   C18   A    
C30   C45   A    
O34   H41   S    
C34   C42   A    
C15   N4    A    
O54   H51   S    
Cu4   O7    S    
C81   O33   D    
C2    O2    A    
C78   O27   D    
C57   C62   A    
C84   O39   D    
C10   C22   A    
C15   C19   A    
C15   H4    S    
C67   O22   S    
C59   C64   A    
C66   O19   D    
C38   C86   S    
C60   C63   A    
C55   C76   S    
C44   C79   S    
C73   H25   S    
C68   O24   S    
Cu3   O14   S    
C28   C51   A    
C87   O46   S    
C41   C78   S    
C13   H2    S    
C10   C17   A    
C1    O1    A    
C65   O17   D    
C49   C57   A    
C20   H8    S    
C3    O11   A    
C91   O53   D    
C14   N1    A    
C11   C23   A    
C88   O48   S    
C25   C50   A    
C71   H21   S    
C8    O16   A    
C52   C60   A    
C81   O34   S    
Cu2   O3    S    
C53   C61   A    
C27   C44   A    
C80   O31   D    
C7    O7    A    
C40   C88   S    
O26   H37   S    
C33   C62   A    
C85   O42   S    
C46   C81   S    
C55   C63   A    
C21   N2    A    
C74   H30   S    
O28   H38   S    
C56   C64   A    
C35   C64   A    
C31   C56   A    
C79   O30   S    
C36   C63   A    
C35   C43   A    
C9    C10   A    
C32   C55   A    
C37   C58   A    
C16   C20   A    
C73   H27   S    
C5    O5    A    
C5    O13   A    
C58   C61   A    
C84   O40   S    
C33   C89   S    
O52   H50   S    
C66   O20   S    
C40   C59   A    
Cu1   O11   S    
C70   H18   S    
C17   H5    S    
C91   O54   S    
C78   O28   S    
C88   O47   D    
C16   H3    S    
Cu2   N2    S    
C65   O18   S    
C50   C69   S    
C77   O25   D    
Cu2   O9    S    
C86   O44   S    
Cu1   O10   S    
C23   C68   S    
C75   H33   S    
C49   C70   S    
C11   C20   A    
Cu3   O5    S    
Cu1   N1    S    
C77   O26   S    
Cu3   Cu4   S    
C51   C72   S    
C3    C25   S    
Cu3   N3    S    
C33   C41   A    
C26   C49   A    
O36   H42   S    
C35   C91   S    
Cu1   O4    S    
Cu2   O12   S    
C54   C62   A    
C89   O50   S    
C86   O43   D    
C34   C61   A    
O56   H52   S    
C69   H14   S    
C8    O8    A    
C76   H35   S    
C50   C58   A    
C80   O32   S    
O44   H46   S    
Cu2   O2    S    
C38   C57   A    
C75   H32   S    
C52   C71   S    
C18   H6    S    
C24   N3    A    
Cu1   O1    S    
O32   H40   S    
C4    O4    A    
O22   H11   S    
Cu3   O8    S    
C53   C74   S    
Cu4   O16   S    
C30   C53   A    
C90   O52   S    
C71   H19   S    
C47   C84   S    
C85   O41   D    
Cu3   O15   S    
Cu1   Cu2   S    
C31   C48   A    
C4    O12   A    
C3    O3    A    
C72   H22   S    
C23   N4    A    
C32   C47   A    
C76   H36   S    
C51   C59   A    
C37   C45   A    
O20   H10   S    
C71   H20   S    
C7    O15   A    
C27   C52   A    
C39   C47   A    
C69   H13   S    
C67   O21   D    
O48   H48   S    
C40   C48   A    
C54   C73   S    
C92   O55   D    
C13   N2    A    
C1    O9    A    
C2    O10   A    
O24   H12   S    
C22   C65   S    
C22   N1    A    
C43   C80   S    
C25   C42   A    
C4    C26   S    
C11   C12   A    
C24   C67   S    
O42   H45   S    
C37   C85   S    
C75   H31   S    
C12   C24   A    
C28   C43   A    
Cu4   O13   S    
C6    O6    A    
O18   H9    S    
C13   C17   A    
C29   C46   A    
C16   N3    A    
C8    C30   S    
C69   H15   S    
C70   H17   S    
C21   C66   S    
O46   H47   S    
C1    C27   S    
O40   H44   S    
C76   H34   S    
C56   C75   S    
C42   C77   S    
C34   C90   S    
C9    C21   A    
C87   O45   D    
C74   H28   S    
C72   H24   S    
C39   C60   A    
C12   C19   A    
C19   H7    S    
C14   H1    S    
C36   C92   S    
C90   O51   D    
C38   C46   A    
C36   C44   A    
O50   H49   S    
C39   C87   S    
C9    C18   A    
C82   O36   S    
C89   O49   D    
C29   C54   A    
C6    O14   A    
C68   O23   D    
O30   H39   S    
C72   H23   S    
C74   H29   S    
C2    C28   S    
C48   C83   S    
C73   H26   S    
C79   O29   D    
C70   H16   S    
C92   O56   S    
C45   C82   S    
C26   C41   A    
C5    C31   S    
C83   O38   S    
