data_mof_unit_36865.cif
_audit_creation_date              2012-10-26T19:13:49-0400
_audit_creation_method            fapswitch 2.2
_symmetry_space_group_name_H-M    P1
_symmetry_Int_Tables_number       1
_space_group_crystal_system       triclinic
_cell_length_a                    15.123367
_cell_length_b                    14.160261
_cell_length_c                    10.575095
_cell_angle_alpha                 89.999915
_cell_angle_beta                  94.391335
_cell_angle_gamma                 89.999903
_cell_volume                      2258.01702728

loop_
_atom_site_label
_atom_site_type_symbol
_atom_type_description
_atom_site_fract_x
_atom_site_fract_y
_atom_site_fract_z
_atom_type_partial_charge
C1    C     C_R   0.330371 0.500087 0.501533 0.526032
C2    C     C_R   0.568278 0.794074 0.564917 0.141083
C3    C     C_R   0.499999 0.053125 0.500001 -0.006145
C4    C     C_R   0.499999 0.945945 0.500002 -0.006462
C5    C     C_R   0.500844 0.500058 0.259938 0.535583
C6    C     C_R   0.499156 0.500058 0.740062 0.535581
C7    C     C_3   0.542417 0.578156 0.045635 -0.119341
C8    C     C_3   0.457532 0.422943 0.954504 -0.120025
C9    C     C_3   0.583776 0.500566 0.965953 -0.135619
C10   C     C_3   0.416225 0.500567 0.034047 -0.135618
C11   C     C_3   0.457585 0.578156 0.954364 -0.119339
C12   C     C_R   0.669629 0.500087 0.498467 0.526029
C13   C     C_3   0.542468 0.422943 0.045496 -0.120025
C14   C     C_3   0.498981 0.500428 0.877155 0.047091
C15   C     C_3   0.501020 0.500428 0.122845 0.047089
C16   C     C_R   0.097557 0.581755 0.543085 -0.124666
C17   C     C_R   0.907214 0.421611 0.538251 -0.122819
C18   C     C_R   0.902442 0.581753 0.456907 -0.124666
C19   C     C_R   0.092786 0.421610 0.461756 -0.122819
C20   C     C_R   0.189654 0.580814 0.544843 -0.138224
C21   C     C_R   0.815403 0.420497 0.535229 -0.136548
C22   C     C_R   0.810345 0.580812 0.455149 -0.138223
C23   C     C_R   0.531321 0.104660 0.604959 -0.138882
C24   C     C_R   0.184597 0.420495 0.464778 -0.136547
C25   C     C_R   0.233738 0.500482 0.503936 0.012903
C26   C     C_R   0.766262 0.500481 0.496064 0.012905
C27   C     C_R   0.048533 0.502230 0.500785 0.033454
C28   C     C_R   0.951467 0.502230 0.499215 0.033454
C29   C     C_3   0.569728 0.243486 0.735213 -0.198873
C30   C     C_3   0.661657 0.288908 0.731498 -0.270247
C31   C     C_3   0.717573 0.279298 0.857437 -0.485922
C32   C     C_3   0.346803 0.754268 0.366810 -0.203149
C33   C     C_3   0.359133 0.704880 0.239761 -0.259448
C34   C     C_R   0.433607 0.894400 0.434149 -0.138473
C35   C     C_3   0.289085 0.734447 0.135353 -0.487232
C36   C     C_3   0.430271 0.243487 0.264787 -0.198873
C37   C     C_3   0.338343 0.288909 0.268503 -0.270245
C38   C     C_3   0.282426 0.279298 0.142565 -0.485923
C39   C     C_3   0.653201 0.754268 0.633179 -0.203150
C40   C     C_3   0.640879 0.704868 0.760223 -0.259441
C41   C     C_3   0.710939 0.734416 0.864627 -0.487230
C42   C     C_R   0.468678 0.104660 0.395043 -0.138882
C43   C     C_R   0.566392 0.894400 0.565854 -0.138476
C44   C     C_R   0.532100 0.205123 0.606736 0.141537
C45   C     C_R   0.431722 0.794074 0.435083 0.141085
C46   C     C_R   0.467899 0.205123 0.393264 0.141536
Cu1   Cu    Cu3+1 0.500000 0.596430 0.500000 0.903400
Cu2   Cu    Cu3+1 0.500000 0.403570 0.500000 0.909235
H1    H     H_    0.423140 0.641665 0.913548 0.110132
H2    H     H_    0.056386 0.359611 0.427721 0.101425
H3    H     H_    0.226195 0.642247 0.580245 0.110837
H4    H     H_    0.783327 0.357247 0.564693 0.112362
H5    H     H_    0.773804 0.642243 0.419741 0.110835
H6    H     H_    0.216673 0.357244 0.435320 0.112364
H7    H     H_    0.554467 0.064953 0.688496 0.088455
H8    H     H_    0.380249 0.933674 0.384411 0.089297
H9    H     H_    0.445531 0.064953 0.311505 0.088454
H10   H     H_    0.619749 0.933673 0.615592 0.089296
H11   H     H_    0.731374 0.203740 0.879224 0.148149
H12   H     H_    0.577959 0.359920 0.085663 0.098447
H13   H     H_    0.682650 0.311180 0.935371 0.151032
H14   H     H_    0.781772 0.316445 0.851213 0.140788
H15   H     H_    0.697834 0.253790 0.657063 0.153036
H16   H     H_    0.655203 0.365127 0.711524 0.201160
H17   H     H_    0.521458 0.284785 0.784204 0.157809
H18   H     H_    0.578381 0.184794 0.804951 0.091767
H19   H     H_    0.221537 0.719397 0.164776 0.151129
H20   H     H_    0.295097 0.811008 0.114745 0.148000
H21   H     H_    0.298661 0.694199 0.047377 0.139097
H22   H     H_    0.425478 0.721076 0.206650 0.180130
H23   H     H_    0.576864 0.641665 0.086449 0.110131
H24   H     H_    0.351637 0.627682 0.252437 0.184520
H25   H     H_    0.307604 0.713034 0.429707 0.152980
H26   H     H_    0.298482 0.812556 0.346420 0.094549
H27   H     H_    0.268622 0.203740 0.120783 0.148149
H28   H     H_    0.317350 0.311174 0.064629 0.151031
H29   H     H_    0.218228 0.316449 0.148788 0.140789
H30   H     H_    0.302167 0.253794 0.342940 0.153037
H31   H     H_    0.344798 0.365129 0.288475 0.201161
H32   H     H_    0.478542 0.284784 0.215796 0.157808
H33   H     H_    0.421617 0.184795 0.195050 0.091768
H34   H     H_    0.422041 0.359920 0.914338 0.098447
H35   H     H_    0.778483 0.719360 0.835189 0.151131
H36   H     H_    0.704937 0.810977 0.885251 0.147998
H37   H     H_    0.701366 0.694160 0.952600 0.139095
H38   H     H_    0.574538 0.721067 0.793350 0.180125
H39   H     H_    0.648368 0.627670 0.747530 0.184532
H40   H     H_    0.692399 0.713042 0.570271 0.152977
H41   H     H_    0.701519 0.812558 0.653576 0.094550
H42   H     H_    0.652194 0.500478 0.934662 0.095478
H43   H     H_    0.347807 0.500480 0.065338 0.095479
H44   H     H_    0.064787 0.643947 0.576511 0.099843
H45   H     H_    0.943615 0.359615 0.572292 0.101425
H46   H     H_    0.935212 0.643944 0.423476 0.099843
N1    N     N_R   0.500000 0.258690 0.500000 -0.200476
N2    N     N_R   0.500000 0.741310 0.500000 -0.203176
O1    O     O_R   0.371460 0.581430 0.500010 -0.517304
O2    O     O_R   0.628540 0.418570 0.499990 -0.508854
O3    O     O_R   0.628540 0.581430 0.499990 -0.517307
O4    O     O_R   0.371460 0.418570 0.500010 -0.508855
O5    O     O_R   0.499980 0.581420 0.316850 -0.512733
O6    O     O_R   0.500020 0.418580 0.683150 -0.517935
O7    O     O_R   0.500020 0.581420 0.683150 -0.512736
O8    O     O_R   0.499980 0.418580 0.316850 -0.517934

loop_
_geom_bond_atom_site_label_1
_geom_bond_atom_site_label_2
_ccdc_geom_bond_type
C21   C26   A    
C3    C42   A    
C34   H8    S    
C8    C13   S    
Cu1   O5    S    
Cu2   N1    S    
C30   H16   S    
C32   C45   S    
C31   H13   S    
C3    C23   A    
C13   H12   S    
C38   H28   S    
C7    C11   S    
C37   H31   S    
C29   C30   S    
C8    H34   S    
C40   H39   S    
C36   C37   S    
C20   H3    S    
C10   C15   S    
C7    H23   S    
C30   C31   S    
C11   C14   S    
C20   C25   A    
C24   H6    S    
Cu2   O8    S    
Cu1   O3    S    
C42   H9    S    
C42   C46   A    
C40   H38   S    
C9    C13   S    
C12   O3    A    
C33   H24   S    
C2    C39   S    
C46   N1    A    
Cu1   N2    S    
C36   C46   S    
C19   C27   A    
C36   H33   S    
C12   O2    A    
C43   H10   S    
C16   C27   A    
C7    C15   S    
C5    O8    A    
C30   H15   S    
C1    C25   S    
C31   H14   S    
C39   H40   S    
C1    O4    A    
C22   H5    S    
C4    C34   A    
C38   H27   S    
Cu2   O4    S    
C5    O5    A    
Cu1   O7    S    
C18   C28   A    
C24   C25   A    
C36   H32   S    
C1    O1    A    
C32   H25   S    
C41   H36   S    
C17   C21   A    
C23   C44   A    
C12   C26   S    
C9    C14   S    
C37   C38   S    
C11   H1    S    
C6    C14   S    
Cu1   Cu2   S    
C35   H19   S    
C2    C43   A    
C16   C20   A    
Cu2   O6    S    
C34   C45   A    
C6    O7    A    
C33   H22   S    
C29   H17   S    
C40   C41   S    
C38   H29   S    
C10   H43   S    
C16   H44   S    
C13   C15   S    
C29   C44   S    
C18   H46   S    
C17   H45   S    
C3    C4    S    
C39   C40   S    
Cu2   O2    S    
C31   H11   S    
C7    C9    S    
C8    C14   S    
C18   C22   A    
C17   C28   A    
C9    H42   S    
C23   H7    S    
C4    C43   A    
C41   H37   S    
C37   H30   S    
Cu1   O1    S    
C32   C33   S    
C2    N2    A    
C19   C24   A    
C44   N1    A    
C32   H26   S    
C19   H2    S    
C35   H20   S    
C33   C35   S    
C6    O6    A    
C5    C15   S    
C10   C11   S    
C29   H18   S    
C35   H21   S    
C8    C10   S    
C22   C26   A    
C27   C28   S    
C45   N2    A    
C39   H41   S    
C21   H4    S    
C41   H35   S    
