data_mof_unit_27708.cif
_audit_creation_date              2012-12-10T18:52:17-0500
_audit_creation_method            fapswitch 2.2
_symmetry_space_group_name_H-M    P1
_symmetry_Int_Tables_number       1
_space_group_crystal_system       triclinic
_cell_length_a                    15.723754
_cell_length_b                    10.628019
_cell_length_c                    9.919138
_cell_angle_alpha                 88.674136
_cell_angle_beta                  88.90423
_cell_angle_gamma                 91.280975
_cell_volume                      1656.43265763

loop_
_atom_site_label
_atom_site_type_symbol
_atom_type_description
_atom_site_fract_x
_atom_site_fract_y
_atom_site_fract_z
_atom_type_partial_charge
C1    C     C_R   0.500855 0.260533 0.501110 0.872928
C2    C     C_R   0.452243 0.414309 0.077360 -0.106315
C3    C     C_R   0.338047 0.499799 0.501098 0.899620
C4    C     C_R   0.661953 0.500201 0.498902 0.899619
C5    C     C_3   0.968842 0.389555 0.552571 -0.208155
C6    C     C_3   0.031158 0.610444 0.447429 -0.208155
C7    C     C_3   0.028496 0.403803 0.426121 -0.213054
C8    C     C_3   0.971504 0.596197 0.573879 -0.213054
C9    C     C_1   0.249128 0.499857 0.503330 -0.168460
C10   C     C_1   0.750872 0.500143 0.496670 -0.168463
C11   C     C_3   0.024622 0.485956 0.626334 0.055638
C12   C     C_R   0.499145 0.739467 0.498890 0.872926
C13   C     C_3   0.975378 0.514043 0.373666 0.055637
C14   C     C_3   0.082957 0.499976 0.501938 0.141465
C15   C     C_3   0.917043 0.500023 0.498062 0.141466
C16   C     C_1   0.173837 0.499920 0.503489 -0.051410
C17   C     C_1   0.826163 0.500079 0.496511 -0.051410
C18   C     C_R   0.440492 0.066750 0.425425 -0.265843
C19   C     C_R   0.559507 0.933250 0.574575 -0.265825
C20   C     C_1   0.946603 0.529489 0.234543 0.161855
C21   C     C_1   0.053397 0.470510 0.765457 0.161854
C22   C     C_1   0.372448 0.874531 0.348216 0.141537
C23   C     C_R   0.438430 0.937499 0.422759 0.012967
C24   C     C_1   0.627547 0.125469 0.651794 0.141553
C25   C     C_3   0.603694 0.687647 0.126691 -0.398536
C26   C     C_3   0.565132 0.818292 0.107931 -0.362374
C27   C     C_3   0.619452 0.919974 0.173209 -0.841072
C28   C     C_3   0.396300 0.312360 0.873308 -0.398545
C29   C     C_3   0.434846 0.181706 0.892085 -0.362394
C30   C     C_3   0.380523 0.080036 0.826792 -0.841068
C31   C     C_R   0.561568 0.062500 0.577244 0.012967
C32   C     C_R   0.498746 0.871992 0.497346 -0.068895
C33   C     C_R   0.501254 0.128008 0.502655 -0.068913
C34   C     C_R   0.548173 0.587219 0.065668 0.165221
C35   C     C_R   0.451827 0.412781 0.934331 0.165229
C36   C     C_R   0.547757 0.585690 0.922640 -0.106318
H1    H     H_    0.053521 0.326079 0.365039 0.149739
H2    H     H_    0.683408 0.926621 0.123723 0.260187
H3    H     H_    0.588371 0.012342 0.161850 0.255016
H4    H     H_    0.560034 0.842354 0.998763 0.212827
H5    H     H_    0.500119 0.817969 0.153490 0.251916
H6    H     H_    0.614794 0.668611 0.233711 0.260813
H7    H     H_    0.667642 0.687481 0.076739 0.179113
H8    H     H_    0.316551 0.073439 0.876228 0.260190
H9    H     H_    0.373310 0.101656 0.717645 0.264522
H10   H     H_    0.411573 0.987650 0.838203 0.255011
H11   H     H_    0.499863 0.182011 0.846547 0.251911
H12   H     H_    0.946479 0.673921 0.634961 0.149739
H13   H     H_    0.439926 0.157647 0.001256 0.212828
H14   H     H_    0.332350 0.312545 0.923251 0.179113
H15   H     H_    0.385208 0.331390 0.766285 0.260825
H16   H     H_    0.941651 0.300009 0.596378 0.153102
H17   H     H_    0.058349 0.699990 0.403622 0.153103
H18   H     H_    0.394174 0.119971 0.369321 0.146873
H19   H     H_    0.605827 0.880029 0.630678 0.146868
H20   H     H_    0.586053 0.653446 0.863519 0.140456
H21   H     H_    0.413946 0.346556 0.136481 0.140454
H22   H     H_    0.626706 0.898334 0.282342 0.264517
N1    N     N_R   0.499980 0.499970 0.857200 -0.104152
N2    N     N_R   0.500020 0.500030 0.142800 -0.104151
N3    N     N_1   0.923852 0.541672 0.124860 -0.194759
N4    N     N_1   0.076148 0.458328 0.875140 -0.194760
N5    N     N_1   0.319685 0.824044 0.288601 -0.201742
N6    N     N_1   0.680307 0.175955 0.711414 -0.201741
O1    O     O_R   0.499990 0.316750 0.614620 -0.627199
O2    O     O_R   0.500010 0.683250 0.385380 -0.627201
O3    O     O_R   0.500000 0.316780 0.385290 -0.621103
O4    O     O_R   0.500000 0.683220 0.614710 -0.621104
O5    O     O_R   0.376780 0.499970 0.614640 -0.634906
O6    O     O_R   0.623220 0.500030 0.385360 -0.634903
O7    O     O_R   0.376780 0.500000 0.385310 -0.603380
O8    O     O_R   0.623220 0.500000 0.614690 -0.603378
Zn1   Zn    Zn3+2 0.500000 0.499980 0.653120 0.945569
Zn2   Zn    Zn3+2 0.500000 0.500020 0.346880 0.945567

loop_
_geom_bond_atom_site_label_1
_geom_bond_atom_site_label_2
_ccdc_geom_bond_type
C2    C35   A    
C30   H9    S    
C36   N1    A    
C19   C31   A    
C25   H7    S    
C4    O6    A    
C2    H21   S    
C1    C33   S    
C29   H13   S    
C12   O4    A    
C26   C27   S    
C29   H11   S    
C3    C9    S    
C28   C29   S    
C3    O5    A    
C9    C16   T    
C5    C11   S    
C28   H15   S    
C2    N2    A    
C10   C17   T    
O2    Zn2   S    
O1    Zn1   S    
C35   N1    A    
C20   N3    T    
C1    O3    A    
C22   N5    T    
C28   H14   S    
C7    C14   S    
C28   C35   S    
C27   H3    S    
O6    Zn2   S    
C1    O1    A    
C31   C33   A    
C5    H16   S    
O5    Zn1   S    
N1    Zn1   S    
C25   C34   S    
C24   N6    T    
C12   C32   S    
C34   N2    A    
C30   H8    S    
C19   C32   A    
C18   C23   A    
C5    C7    S    
C6    C8    S    
O4    Zn1   S    
C12   O2    A    
C11   C21   S    
C3    O7    A    
C8    H12   S    
C29   C30   S    
C36   H20   S    
C6    C14   S    
C7    H1    S    
O3    Zn2   S    
C21   N4    T    
C8    C15   S    
C13   C15   S    
C14   C16   S    
C6    H17   S    
C4    C10   S    
C4    O8    A    
C19   H19   S    
C15   C17   S    
C13   C20   S    
C30   H10   S    
O8    Zn1   S    
C27   H22   S    
C25   H6    S    
O7    Zn2   S    
C23   C32   A    
C25   C26   S    
C24   C31   S    
C6    C13   S    
C26   H4    S    
C8    C11   S    
N2    Zn2   S    
C11   C14   S    
C34   C36   A    
C18   C33   A    
C5    C15   S    
C18   H18   S    
C7    C13   S    
C22   C23   S    
C27   H2    S    
C26   H5    S    
