data_mof_unit_23993.cif
_audit_creation_date              2012-12-11T15:52:35-0500
_audit_creation_method            fapswitch 2.2
_symmetry_space_group_name_H-M    P1
_symmetry_Int_Tables_number       1
_space_group_crystal_system       triclinic
_cell_length_a                    6.930702
_cell_length_b                    14.504732
_cell_length_c                    16.024375
_cell_angle_alpha                 90.375191
_cell_angle_beta                  90.07779
_cell_angle_gamma                 90.073022
_cell_volume                      1610.8606215

loop_
_atom_site_label
_atom_site_type_symbol
_atom_type_description
_atom_site_fract_x
_atom_site_fract_y
_atom_site_fract_z
_atom_type_partial_charge
O1    O     O_R   0.494400 0.415640 0.412830 -0.534347
O2    O     O_R   0.823920 0.405510 0.586560 -0.542063
O3    O     O_R   0.994250 0.584360 0.587170 -0.539158
C1    C     C_R   0.654827 0.382884 0.615117 0.687202
O4    O     O_R   0.824110 0.404610 0.413450 -0.542916
O5    O     O_R   0.994440 0.583460 0.412820 -0.541946
C2    C     C_R   0.655181 0.384065 0.382977 0.686099
O6    O     O_R   0.494210 0.416540 0.587180 -0.538663
O7    O     O_3   0.660810 0.558680 0.500000 -0.369469
V1    V     V_3+5 0.935650 0.489110 0.500000 1.374304
O8    O     O_R   0.324150 0.594490 0.413440 -0.545782
C3    C     C_R   0.155115 0.616558 0.384289 0.677183
O9    O     O_R   0.323970 0.595390 0.586550 -0.543401
C4    C     C_R   0.155219 0.617906 0.615362 0.665945
V2    V     V_3+5 0.435660 0.510890 0.500000 1.377955
O10   O     O_3   0.160630 0.441320 0.500000 -0.368040
C5    C     C_3   0.040194 0.647094 0.762465 -0.329438
H1    H     H_    0.892809 0.623499 0.744672 0.139685
H2    H     H_    0.120561 0.585659 0.784904 0.128809
C6    C     C_3   0.024545 0.719222 0.834042 -0.359774
H3    H     H_    0.093061 0.691286 0.891404 0.131298
H4    H     H_    0.869634 0.731284 0.848684 0.139105
H5    H     H_    0.881798 0.755176 0.638796 0.125387
H6    H     H_    0.864209 0.858607 0.745669 0.115910
C7    C     C_3   0.030815 0.775252 0.657559 -0.330024
C8    C     C_3   0.349056 0.720085 0.713679 -0.324687
C9    C     C_3   0.144428 0.688492 0.685615 0.099042
H7    H     H_    0.425249 0.753401 0.660683 0.134938
H8    H     H_    0.436476 0.659405 0.732750 0.136729
C10   C     C_3   0.123085 0.811433 0.809474 0.089126
C11   C     C_3   0.019229 0.848827 0.729429 -0.030202
C12   C     C_3   0.337124 0.788710 0.787427 -0.311177
H9    H     H_    0.410282 0.758226 0.842639 0.139404
H10   H     H_    0.418114 0.852472 0.771608 0.130263
H11   H     H_    0.100965 0.803941 0.600938 0.124765
C13   C     C_R   0.953311 0.773637 0.215875 -0.164943
H12   H     H_    0.812432 0.792565 0.192320 0.115712
C14   C     C_R   0.964374 0.710429 0.281433 -0.158691
H13   H     H_    0.831473 0.682437 0.306156 0.116989
C15   C     C_R   0.144080 0.683902 0.314616 -0.041313
C16   C     C_R   0.312481 0.721762 0.279876 -0.166327
H14   H     H_    0.453353 0.702665 0.303327 0.114960
C17   C     C_R   0.301422 0.784987 0.214328 -0.156743
H15   H     H_    0.434346 0.812850 0.189518 0.118182
C18   C     C_R   0.121649 0.812037 0.181525 -0.048999
C19   C     C_R   0.812255 0.278448 0.719763 -0.163861
H16   H     H_    0.953187 0.301206 0.699275 0.114970
C20   C     C_R   0.801301 0.213708 0.783942 -0.151203
H17   H     H_    0.934339 0.188431 0.810852 0.117938
C21   C     C_R   0.621445 0.182376 0.813103 -0.044330
C22   C     C_R   0.452793 0.216994 0.775908 -0.165480
H18   H     H_    0.311883 0.194071 0.796293 0.113114
C23   C     C_R   0.463754 0.281696 0.711675 -0.157635
H19   H     H_    0.330727 0.306739 0.684572 0.119037
C24   C     C_R   0.643677 0.313471 0.682873 -0.044590
C25   C     C_R   0.736950 0.232027 0.318536 -0.184761
H20   H     H_    0.816132 0.215254 0.374756 0.118634
C26   C     C_R   0.727457 0.166682 0.253800 -0.151633
H21   H     H_    0.799805 0.101082 0.261207 0.111185
C27   C     C_R   0.622070 0.184788 0.180974 -0.071534
C28   C     C_R   0.533450 0.271026 0.172348 -0.160107
H22   H     H_    0.460821 0.286652 0.114257 0.104051
C29   C     C_R   0.545445 0.338723 0.236017 0.148741
C30   C     C_R   0.644024 0.317764 0.311632 -0.087747
O11   O     O_R   0.771300 0.080930 0.910090 -0.540023
O12   O     O_R   0.441270 0.092800 0.083770 -0.537352
O13   O     O_R   0.271080 0.913920 0.084380 -0.539438
C31   C     C_R   0.610462 0.115143 0.112805 0.696240
O14   O     O_R   0.441580 0.091910 0.910670 -0.545200
O15   O     O_R   0.271390 0.913020 0.910040 -0.541808
C32   C     C_R   0.610546 0.113912 0.881619 0.677891
O16   O     O_R   0.770990 0.081830 0.084440 -0.534732
O17   O     O_3   0.604750 0.938760 0.997250 -0.371277
V3    V     V_3+5 0.329850 0.008280 0.997210 1.391622
O18   O     O_R   0.941680 0.901940 0.910610 -0.545059
C33   C     C_R   0.110918 0.879568 0.881793 0.648714
O19   O     O_R   0.941370 0.902830 0.083720 -0.543675
C34   C     C_R   0.110461 0.880468 0.112650 0.686654
V4    V     V_3+5 0.829860 0.986420 0.997150 1.387289
O20   O     O_3   0.104830 0.056030 0.997180 -0.364229
C35   C     C_3   0.098932 0.943698 0.700699 -0.368567
C36   C     C_3   0.958660 0.993124 0.641768 -0.321110
C37   C     C_3   0.045272 0.083204 0.610163 -0.747319
H23   H     H_    0.086005 0.128689 0.663345 0.224632
H24   H     H_    0.175511 0.068941 0.571898 0.222840
H25   H     H_    0.937811 0.119684 0.570967 0.215518
H26   H     H_    0.923636 0.948401 0.587265 0.193028
H27   H     H_    0.822402 0.008776 0.675560 0.190215
H28   H     H_    0.123387 0.989728 0.755366 0.163756
H29   H     H_    0.240363 0.934311 0.669097 0.182412
C38   C     C_3   0.469039 0.434684 0.217593 -0.372106
C39   C     C_3   0.253052 0.436612 0.195901 -0.350877
C40   C     C_3   0.127175 0.396054 0.264399 -0.627888
H30   H     H_    0.158593 0.430043 0.325013 0.241027
H31   H     H_    0.973426 0.407651 0.248399 0.188611
H32   H     H_    0.152050 0.320737 0.270014 0.222001
H33   H     H_    0.209611 0.509525 0.186130 0.183878
H34   H     H_    0.225350 0.398971 0.136509 0.187218
H35   H     H_    0.496196 0.483967 0.269448 0.164019
H36   H     H_    0.550208 0.462136 0.163368 0.137420

loop_
_geom_bond_atom_site_label_1
_geom_bond_atom_site_label_2
_ccdc_geom_bond_type
C7    C11   S    
O12   C31   A    
C8    C12   S    
C40   H30   S    
O11   V4    S    
C16   H14   S    
C23   C24   A    
C1    O6    A    
C35   C36   S    
C39   H34   S    
C6    C10   S    
O19   C34   A    
C8    C9    S    
C13   H12   S    
O16   V4    S    
O5    C3    A    
C10   C11   S    
C26   C27   A    
V2    O10   S    
O12   V3    S    
C5    C6    S    
C25   H20   S    
O14   C32   A    
O17   V3    S    
C28   C29   A    
O8    V2    S    
C19   C24   A    
O15   V3    S    
C25   C30   A    
C18   C34   S    
O1    V2    S    
C38   H36   S    
C10   C12   S    
O7    V1    S    
C35   H28   S    
C20   C21   A    
C40   H31   S    
V3    O20   S    
O9    C4    A    
C16   C17   A    
O13   C34   A    
C39   H33   S    
C21   C22   A    
O19   V4    S    
C19   C20   A    
C22   H18   S    
C5    C9    S    
C13   C18   A    
C38   C39   S    
O4    C2    A    
C26   H21   S    
O11   C32   A    
C21   C32   S    
V4    O20   S    
C27   C28   A    
C22   C23   A    
C12   H10   S    
C3    C15   S    
O2    C1    A    
O18   C33   A    
C10   C33   S    
C37   H23   S    
C31   O16   A    
C5    H1    S    
O17   V4    S    
O14   V3    S    
O13   V3    S    
C17   C18   A    
O3    C4    A    
C7    H11   S    
C35   H29   S    
C20   H17   S    
C37   H24   S    
C6    H4    S    
C40   H32   S    
O9    V2    S    
C17   H15   S    
O15   C33   A    
C4    C9    S    
C7    C9    S    
O2    V1    S    
C19   H16   S    
C15   C16   A    
O1    C2    A    
O5    V1    S    
O8    C3    A    
C23   H19   S    
O6    V2    S    
C8    H7    S    
C11   C35   S    
C12   H9    S    
C13   C14   A    
O7    V2    S    
H6    C11   S    
O4    V1    S    
C1    C24   S    
O3    V1    S    
V1    O10   S    
C14   C15   A    
C14   H13   S    
C36   H27   S    
C39   C40   S    
C5    H2    S    
C25   C26   A    
H5    C7    S    
C28   H22   S    
C2    C30   S    
C29   C30   A    
C37   H25   S    
C6    H3    S    
C27   C31   S    
C8    H8    S    
C36   C37   S    
C29   C38   S    
C38   H35   S    
O18   V4    S    
C36   H26   S    
