data_mof_unit_16544.cif
_audit_creation_date              2013-03-05T15:46:20-0500
_audit_creation_method            fapswitch 2.2
_symmetry_space_group_name_H-M    P1
_symmetry_Int_Tables_number       1
_space_group_crystal_system       triclinic
_cell_length_a                    10.123312
_cell_length_b                    10.666071
_cell_length_c                    10.826562
_cell_angle_alpha                 91.423287
_cell_angle_beta                  94.523699
_cell_angle_gamma                 84.348701
_cell_volume                      1159.53093317

loop_
_atom_site_label
_atom_site_type_symbol
_atom_site_description
_atom_site_fract_x
_atom_site_fract_y
_atom_site_fract_z
_atom_type_partial_charge
O1    O     O_R   0.568950 0.489660 0.307530 -0.602741
O2    O     O_R   0.348880 0.522640 0.340350 -0.571535
C1    C     C_R   0.445678 0.516633 0.268997 0.961527
O3    O     O_R   0.610060 0.300270 0.483590 -0.619050
O4    O     O_R   0.389990 0.333260 0.516410 -0.568668
C2    C     C_R   0.493491 0.261462 0.488771 0.916627
Zn1   Zn    Zn3+2 0.646940 0.477980 0.478090 1.056312
Zn2   Zn    Zn3+2 0.353060 0.522020 0.521910 1.114895
O5    O     O_R   0.651120 0.477360 0.659650 -0.610715
O6    O     O_R   0.431050 0.510340 0.692470 -0.560841
O7    O     O_R   0.610010 0.666740 0.483590 -0.575829
O8    O     O_R   0.389940 0.699730 0.516410 -0.595161
C3    C     C_R   0.554384 0.497912 0.732707 0.961982
C4    C     C_R   0.504787 0.739993 0.498116 0.890589
H1    H     H_    0.417840 0.132638 0.664123 0.192990
C5    C     C_R   0.526854 0.105927 0.255351 0.264134
C6    C     C_R   0.593776 0.033765 0.165740 -0.216256
H2    H     H_    0.595379 0.068795 0.072904 0.234780
C7    C     C_R   0.661781 0.917866 0.194253 0.210742
C8    C     C_R   0.655056 0.866462 0.311656 0.240904
C9    C     C_R   0.568719 0.929861 0.396823 -0.126188
C10   C     C_R   0.524704 0.057148 0.376366 -0.054053
C11   C     C_R   0.480919 0.129685 0.478845 -0.049469
C12   C     C_R   0.449381 0.074561 0.586029 -0.213168
C13   C     C_R   0.464860 0.945703 0.596359 0.300804
C14   C     C_R   0.520361 0.872652 0.500089 -0.133949
H3    H     H_    0.618034 0.552454 0.107608 0.216479
C15   C     C_2   0.415667 0.543874 0.140569 -0.179142
C16   C     C_2   0.514801 0.558717 0.069894 -0.230608
H4    H     H_    0.679804 0.478228 0.905987 0.164372
C17   C     C_2   0.581534 0.512374 0.865428 -0.380006
C18   C     C_2   0.487126 0.564491 0.937632 0.405286
H5    H     H_    0.312462 0.547608 0.103711 0.225852
H6    H     H_    0.897444 0.568639 0.589374 0.177015
N1    N     N_2   0.157290 0.551390 0.551110 -0.218726
C19   C     C_2   0.072759 0.484980 0.492470 0.318957
H7    H     H_    0.873440 0.389166 0.378197 0.234363
N2    N     N_2   0.842740 0.448550 0.448960 -0.159371
C20   C     C_2   0.929979 0.504547 0.515934 -0.075801
H8    H     H_    0.121735 0.617634 0.614430 0.199954
N3    N     N_R   0.116738 0.392262 0.403353 0.238889
O9    O     O_R   0.126591 0.274006 0.432698 -0.336415
O10   O     O_R   0.105629 0.421769 0.286889 -0.308593
N4    N     N_R   0.446368 0.218169 0.215904 0.191041
O11   O     O_R   0.472272 0.273480 0.116036 -0.405508
O12   O     O_R   0.328994 0.242922 0.256333 -0.298947
Br1   Br    Br    0.768127 0.837431 0.070095 -0.310312
N5    N     N_R   0.759182 0.772832 0.353595 0.246059
O13   O     O_R   0.832565 0.792990 0.454976 -0.363978
O14   O     O_R   0.786691 0.671247 0.287816 -0.354974
N6    N     N_R   0.434890 0.890752 0.709395 0.225791
O15   O     O_R   0.516365 0.800976 0.759633 -0.381978
O16   O     O_R   0.340333 0.944605 0.772961 -0.291446
N7    N     N_R   0.355512 0.614175 0.890626 0.238069
O17   O     O_R   0.315512 0.730637 0.917026 -0.276170
O18   O     O_R   0.265704 0.536363 0.863445 -0.358812

loop_
_geom_bond_atom_site_label_1
_geom_bond_atom_site_label_2
_geom_bond_distance
_ccdc_geom_bond_type
O4    Zn2   2.011496 S    
N6    O16   1.302243 A    
C9    C14   1.428639 A    
C13   N6    1.436130 S    
H7    N2    1.029275 S    
H3    C16   1.087946 S    
N3    O9    1.300761 A    
C5    N4    1.434539 S    
C17   C18   1.350976 D    
N1    C19   1.283907 D    
Zn2   N1    2.024205 S    
Zn2   O8    1.970842 S    
C8    C9    1.432180 A    
N5    O14   1.300859 A    
C6    H2    1.082824 S    
H1    C12   1.085429 S    
C9    C10   1.403937 A    
C4    C14   1.438502 S    
Zn1   O7    2.011497 S    
N3    O10   1.300749 A    
C19   N3    1.428548 S    
C8    N5    1.433295 S    
O3    Zn1   1.970842 S    
O4    C2    1.286028 A    
C2    C11   1.424387 S    
C18   N7    1.443054 S    
N5    O13   1.301515 A    
C6    C7    1.383917 A    
Zn1   N2    2.024363 S    
N4    O12   1.299098 A    
C15   H5    1.085918 S    
N1    H8    1.031271 S    
C16   C18   1.438903 S    
O2    C1    1.290616 A    
H4    C17   1.087567 S    
O7    C4    1.275251 A    
N7    O18   1.302393 A    
O3    C2    1.294154 A    
C1    C15   1.430418 S    
C11   C12   1.386912 A    
N6    O15   1.300995 A    
N2    C20   1.282112 D    
C12   C13   1.374233 A    
Zn2   O6    1.952125 S    
C7    Br1   1.921201 S    
Zn1   O5    1.962947 S    
O5    C3    1.305355 A    
N7    O17   1.300100 A    
C15   C16   1.332715 D    
C5    C10   1.424189 A    
O1    Zn1   1.952125 S    
C13   C14   1.405326 A    
C10   C11   1.411883 A    
H6    C20   1.085339 S    
C3    C17   1.448831 S    
C19   C20   1.480932 S    
O2    Zn2   1.962947 S    
N4    O11   1.301052 A    
C7    C8    1.405874 A    
O8    C4    1.309298 A    
C5    C6    1.398755 A    
O1    C1    1.291218 A    
O6    C3    1.284796 A    
