data_mof_unit_44182.cif
_audit_creation_date              2013-03-05T15:51:10-0500
_audit_creation_method            fapswitch 2.2
_symmetry_space_group_name_H-M    P1
_symmetry_Int_Tables_number       1
_space_group_crystal_system       triclinic
_cell_length_a                    16.940954
_cell_length_b                    16.922063
_cell_length_c                    19.600457
_cell_angle_alpha                 118.215404
_cell_angle_beta                  62.6573
_cell_angle_gamma                 100.824058
_cell_volume                      4395.03089779

loop_
_atom_site_label
_atom_site_type_symbol
_atom_site_description
_atom_site_fract_x
_atom_site_fract_y
_atom_site_fract_z
_atom_type_partial_charge
C1    C     C_R   0.046479 0.755577 0.005224 0.285158
N1    N     N_R   0.034930 0.670790 0.995440 -0.089225
C2    C     C_R   0.752090 0.450320 0.171869 -0.122343
H1    H     H_    0.700026 0.414369 0.153648 0.090256
N2    N     N_R   0.835850 0.454880 0.118930 -0.038737
C3    C     C_R   0.804229 0.556828 0.958365 -0.106514
H2    H     H_    0.815905 0.600359 0.928995 0.127842
N3    N     N_R   0.867000 0.509260 0.948460 -0.045556
C4    C     C_R   0.968161 0.672429 0.249225 -0.117596
H3    H     H_    0.937096 0.653272 0.300457 0.091745
N4    N     N_R   0.003780 0.616410 0.165900 -0.045989
C5    C     C_R   0.738211 0.475038 0.030170 -0.121557
H4    H     H_    0.689984 0.439303 0.062955 0.089184
N5    N     N_R   0.825670 0.461520 0.995440 -0.042646
C6    C     C_R   0.029959 0.751610 0.175002 -0.047396
H5    H     H_    0.052929 0.807183 0.160257 0.171144
N6    N     N_R   0.045120 0.664150 0.118920 -0.039649
C7    C     C_R   0.829904 0.521381 0.248620 -0.129142
H6    H     H_    0.848133 0.549438 0.301210 0.106218
N7    N     N_R   0.884940 0.497570 0.165910 -0.042297
C8    C     C_R   0.965244 0.688658 0.932006 -0.151299
H7    H     H_    0.935798 0.672867 0.888788 0.161099
N8    N     N_R   0.985840 0.628110 0.948460 -0.072428
C9    C     C_R   0.998877 0.771391 0.970352 -0.001897
C10   C     C_R   0.745479 0.497314 0.253875 0.041575
C11   C     C_R   0.722580 0.539677 0.013068 0.066403
C12   C     C_R   0.978920 0.758388 0.256870 0.004771
C13   C     C_R   0.249633 0.569246 0.012056 -0.055436
H8    H     H_    0.290289 0.613824 0.985800 0.177172
N9    N     N_R   0.174330 0.538480 0.004560 -0.053797
C14   C     C_R   0.925200 0.261250 0.833188 -0.132641
H9    H     H_    0.878794 0.217519 0.857756 0.096921
N10   N     N_R   0.954880 0.335850 0.881080 -0.041913
C15   C     C_R   0.160293 0.504806 0.758386 -0.126925
H10   H     H_    0.133215 0.486893 0.712808 0.094017
N11   N     N_R   0.115060 0.502430 0.834090 -0.046489
C16   C     C_R   0.062464 0.309275 0.040919 -0.119677
H11   H     H_    0.108340 0.322981 0.069046 0.099619
N12   N     N_R   0.014160 0.371890 0.051540 -0.045801
C17   C     C_R   0.982387 0.240564 0.966632 -0.108229
H12   H     H_    0.953327 0.190141 0.925923 0.110243
N13   N     N_R   0.965070 0.329210 0.004560 -0.046314
C18   C     C_R   0.239154 0.572242 0.834937 -0.098346
H13   H     H_    0.283039 0.617908 0.860883 0.151609
N14   N     N_R   0.164150 0.545120 0.881070 -0.045783
C19   C     C_R   0.181720 0.495534 0.090862 -0.145153
H14   H     H_    0.157381 0.476700 0.142475 0.096788
N15   N     N_R   0.133000 0.490740 0.051540 -0.049305
C20   C     C_R   0.994216 0.339102 0.758008 -0.117725
H15   H     H_    0.009675 0.368597 0.715127 0.093035
N16   N     N_R   0.996220 0.383590 0.834100 -0.040729
Ni1   Ni    Ni4+2 0.103690 0.603690 0.000000 0.302445
Ni2   Ni    Ni4+2 0.896310 0.396310 0.000000 0.217873
Ni3   Ni    Ni4+2 0.991110 0.505800 0.892250 0.210154
Ni4   Ni    Ni4+2 0.008890 0.494200 0.107750 0.216996
C21   C     C_R   0.254444 0.547006 0.069635 0.076733
C22   C     C_R   0.948720 0.261876 0.755493 0.042050
C23   C     C_R   0.238463 0.548906 0.757621 0.053326
C24   C     C_R   0.044675 0.224882 0.987108 0.067064
C25   C     C_R   0.873349 0.917634 0.490518 -0.149305
H16   H     H_    0.859424 0.917176 0.550070 0.129869
C26   C     C_R   0.907568 0.839429 0.415446 -0.152519
H17   H     H_    0.916140 0.780655 0.420022 0.119906
C27   C     C_R   0.936543 0.839592 0.336039 0.135139
C28   C     C_R   0.923123 0.917183 0.333253 -0.132195
H18   H     H_    0.941637 0.918090 0.272922 0.137283
C29   C     C_R   0.888725 0.995805 0.408745 -0.159681
H19   H     H_    0.884466 0.056749 0.405217 0.129456
C30   C     C_R   0.868326 0.997557 0.487421 0.101070
C31   C     C_R   0.937069 0.140374 0.543949 -0.144954
H20   H     H_    0.978955 0.132788 0.479502 0.127530
C32   C     C_R   0.961228 0.200739 0.608688 -0.159681
H21   H     H_    0.019399 0.239654 0.592594 0.117365
C33   C     C_R   0.915726 0.204874 0.690824 0.132567
C34   C     C_R   0.840217 0.153851 0.709377 -0.153014
H22   H     H_    0.801952 0.158140 0.773000 0.118938
C35   C     C_R   0.815924 0.093148 0.644257 -0.166646
H23   H     H_    0.761465 0.049498 0.658038 0.128507
C36   C     C_R   0.867646 0.082362 0.560083 0.109402
C37   C     C_R   0.508977 0.509162 0.408647 -0.134628
H24   H     H_    0.453877 0.464580 0.415476 0.128403
C38   C     C_R   0.588140 0.477386 0.335866 -0.165576
H25   H     H_    0.592197 0.410065 0.285975 0.123060
C39   C     C_R   0.662656 0.530447 0.330103 0.142954
C40   C     C_R   0.655800 0.618359 0.394187 -0.119760
H26   H     H_    0.712329 0.661262 0.388679 0.115088
C41   C     C_R   0.575949 0.650754 0.466714 -0.089587
H27   H     H_    0.572360 0.716546 0.518503 0.126559
C42   C     C_R   0.503971 0.594248 0.475758 0.132942
C43   C     C_R   0.454149 0.614012 0.623022 0.369257
C44   C     C_R   0.387630 0.599346 0.690598 -0.243020
H28   H     H_    0.405699 0.594968 0.735033 0.162742
C45   C     C_R   0.301947 0.579607 0.694831 0.087149
C46   C     C_R   0.279714 0.585482 0.636818 -0.145084
H29   H     H_    0.213081 0.573476 0.640725 0.119618
C47   C     C_R   0.345218 0.602022 0.569883 -0.200882
H30   H     H_    0.328949 0.599750 0.521595 0.140984
C48   C     C_R   0.433268 0.611434 0.560042 -0.072291
C49   C     C_R   0.635761 0.582180 0.048712 0.099808
C50   C     C_R   0.319678 0.576298 0.106223 -0.003167
C51   C     C_R   0.404213 0.529965 0.153127 -0.204464
C52   C     C_R   0.326988 0.528445 0.145345 -0.193178
C53   C     C_R   0.384205 0.639617 0.089874 0.253549
C54   C     C_R   0.466787 0.633089 0.088096 -0.020619
C55   C     C_R   0.476619 0.574612 0.116876 0.160460
C56   C     C_R   0.560255 0.553690 0.101116 -0.222095
C57   C     C_R   0.626294 0.648242 0.028838 -0.115685
C58   C     C_R   0.541945 0.676492 0.051675 -0.093463
H31   H     H_    0.565397 0.507887 0.122991 0.111745
H32   H     H_    0.683490 0.675617 0.992831 0.191567
H33   H     H_    0.410757 0.487326 0.177799 0.132856
H34   H     H_    0.537848 0.726347 0.033785 0.205322
H35   H     H_    0.276917 0.483031 0.163033 0.133600
C59   C     C_R   0.972860 0.195649 0.157909 0.073564
C60   C     C_R   0.976685 0.860926 0.985382 -0.115019
C61   C     C_R   0.864009 0.982763 0.073300 0.634734
C62   C     C_R   0.886775 0.890514 0.025383 0.211296
C63   C     C_R   0.042899 0.924645 0.982887 -0.204684
C64   C     C_R   0.020266 0.016129 0.036570 0.099141
C65   C     C_R   0.929812 0.045461 0.083500 -0.129090
C66   C     C_R   0.906998 0.136125 0.142597 -0.113365
C67   C     C_R   0.062073 0.166353 0.112269 -0.178276
C68   C     C_R   0.086126 0.077515 0.050201 -0.070230
H36   H     H_    0.838332 0.160525 0.179338 0.177514
H37   H     H_    0.112634 0.212961 0.124584 0.119871
H38   H     H_    0.155654 0.055949 0.015675 0.135677
H39   H     H_    0.112236 0.902278 0.948339 0.182520
N17   N     N_R   0.116729 0.808753 0.024467 0.211672
O1    O     O_R   0.188817 0.768924 0.002993 -0.391541
O2    O     O_R   0.102265 0.893580 0.077961 -0.429100
N18   N     N_R   0.543764 0.619683 0.614021 0.225663
O3    O     O_R   0.602981 0.557383 0.549082 -0.390094
O4    O     O_R   0.560892 0.674795 0.679047 -0.371932
N19   N     N_R   0.365782 0.708379 0.075275 0.223456
O5    O     O_R   0.414700 0.714144 0.003725 -0.398270
O6    O     O_R   0.292987 0.757911 0.129070 -0.358325
F1    F     F_    0.777126 0.010429 0.114361 -0.648159
N20   N     N_R   0.817547 0.827744 0.021972 0.251276
O7    O     O_R   0.752226 0.830693 0.092660 -0.353250
O8    O     O_R   0.809869 0.781850 0.950312 -0.431158

loop_
_geom_bond_atom_site_label_1
_geom_bond_atom_site_label_2
_geom_bond_distance
_ccdc_geom_bond_type
N15   Ni4   1.869552 S    
C41   H27   1.083384 S    
C45   C46   1.399665 A    
C3    H2    1.074599 S    
C62   N20   1.430092 S    
C1    N17   1.434415 S    
C18   H13   1.080943 S    
N17   O1    1.300605 A    
C20   N16   1.329484 A    
C13   C21   1.385490 A    
N2    N7    1.382109 A    
C35   H23   1.083295 S    
C26   H17   1.081156 S    
N9    N15   1.374593 A    
C13   H8    1.074528 S    
C23   C45   1.456051 S    
C15   H10   1.080996 S    
N13   Ni2   1.828264 S    
C6    H5    1.065623 S    
C20   C22   1.378390 A    
C61   C62   1.405255 A    
C25   C26   1.384120 A    
C1    N1    1.342561 A    
C37   C42   1.401106 A    
C20   H15   1.081428 S    
C63   C64   1.401003 A    
C66   H36   1.082576 S    
C26   C27   1.401820 A    
C18   C23   1.378887 A    
C59   C66   1.396156 A    
N12   Ni4   1.824405 S    
C28   C29   1.391667 A    
C47   C48   1.401107 A    
C10   C39   1.446699 S    
C57   C58   1.391925 A    
C14   N10   1.342488 A    
C31   H20   1.083109 S    
C17   N13   1.341415 A    
C4    H3    1.071772 S    
C7    N7    1.339682 A    
C11   C49   1.465227 S    
C4    N4    1.332552 A    
C35   C36   1.403713 A    
C17   C24   1.392801 A    
C8    H7    1.077916 S    
N10   Ni2   1.861735 S    
C7    C10   1.381180 A    
N7    Ni4   1.869929 S    
N6    Ni1   1.861734 S    
C54   C55   1.414649 A    
N12   N13   1.382094 A    
C40   C41   1.387948 A    
C51   C55   1.392547 A    
C19   N15   1.334891 A    
C33   C34   1.403144 A    
C29   H19   1.083289 S    
C51   C52   1.379286 A    
C2    C10   1.374028 A    
C39   C40   1.402956 A    
C32   H21   1.082333 S    
C32   C33   1.401659 A    
N20   O7    1.301394 A    
N3    Ni3   1.869556 S    
C44   H28   1.082649 S    
C7    H6    1.076040 S    
C68   H38   1.083613 S    
C3    N3    1.341846 A    
N14   Ni1   1.862440 S    
C60   C62   1.415502 A    
C40   H26   1.083451 S    
C50   C53   1.417287 A    
C61   C65   1.402948 A    
C5    C11   1.384185 A    
C25   H16   1.083102 S    
C29   C30   1.403363 A    
C22   C33   1.463472 S    
C34   H22   1.081694 S    
C16   H11   1.080146 S    
C44   C45   1.399615 A    
C34   C35   1.392006 A    
C6    C12   1.387216 A    
C14   H9    1.080844 S    
C60   C63   1.403026 A    
C47   H30   1.083742 S    
N1    N8    1.382095 A    
C50   C52   1.403956 A    
N11   N14   1.382111 A    
C46   C47   1.387142 A    
C18   N14   1.326922 A    
C16   C24   1.395994 A    
N1    Ni1   1.828268 S    
C9    C60   1.487899 S    
C43   N18   1.435415 S    
C37   C38   1.382313 A    
C17   H12   1.079997 S    
C5    N5    1.328346 A    
C28   H18   1.082385 S    
C38   C39   1.397055 A    
C8    N8    1.351165 A    
C57   H32   1.078839 S    
C30   C36   1.465089 S    
C51   H33   1.084441 S    
C63   H39   1.084204 S    
C21   C50   1.472237 S    
N18   O3    1.301279 A    
C2    N2    1.333478 A    
C54   C58   1.407054 A    
N4    Ni4   1.825149 S    
C65   C66   1.405689 A    
C4    C12   1.375105 A    
N8    Ni3   1.824406 S    
C61   F1    1.359295 S    
N2    Ni2   1.862438 S    
C6    N6    1.345286 A    
C49   C56   1.397622 A    
N9    Ni1   1.829008 S    
C19   H14   1.080438 S    
N4    N6    1.374604 A    
N3    N5    1.374589 A    
C31   C36   1.401845 A    
C53   N19   1.437523 S    
C37   H24   1.083786 S    
N18   O4    1.300980 A    
N17   O2    1.301089 A    
N19   O6    1.301231 A    
C64   C65   1.414140 A    
N19   O5    1.301713 A    
N20   O8    1.300500 A    
C64   C68   1.404071 A    
N10   N16   1.374604 A    
C49   C57   1.401295 A    
C55   C56   1.382474 A    
C42   C48   1.451614 S    
N16   Ni3   1.825149 S    
C27   C28   1.403569 A    
C14   C22   1.390754 A    
C67   H37   1.081747 S    
C41   C42   1.398726 A    
C16   N12   1.340260 A    
C52   H35   1.080401 S    
C43   C44   1.385816 A    
C3    C11   1.388604 A    
C25   C30   1.402018 A    
C13   N9    1.330580 A    
C15   N11   1.338240 A    
C46   H29   1.081917 S    
N11   Ni3   1.869926 S    
C12   C27   1.463716 S    
C59   C67   1.396542 A    
C58   H34   1.078694 S    
N5    Ni2   1.829013 S    
C5    H4    1.070375 S    
C1    C9    1.396233 A    
C38   H25   1.083078 S    
C8    C9    1.395856 A    
C19   C21   1.385061 A    
C53   C54   1.407230 A    
C15   C23   1.389963 A    
C31   C32   1.384020 A    
C67   C68   1.396910 A    
C43   C48   1.412549 A    
C2    H1    1.076098 S    
C56   H31   1.079856 S    
