data_mof_unit_16577.cif
_audit_creation_date              2013-03-05T16:00:38-0500
_audit_creation_method            fapswitch 2.2
_symmetry_space_group_name_H-M    P1
_symmetry_Int_Tables_number       1
_space_group_crystal_system       triclinic
_cell_length_a                    10.709169
_cell_length_b                    14.642027
_cell_length_c                    14.661171
_cell_angle_alpha                 64.581842
_cell_angle_beta                  103.783381
_cell_angle_gamma                 103.180644
_cell_volume                      1995.76652153

loop_
_atom_site_label
_atom_site_type_symbol
_atom_site_description
_atom_site_fract_x
_atom_site_fract_y
_atom_site_fract_z
_atom_type_partial_charge
O1    O     O_R   0.455060 0.022100 0.338110 -0.594848
O2    O     O_R   0.512640 0.160150 0.379180 -0.540210
C1    C     C_R   0.478675 0.120141 0.311342 0.824876
O3    O     O_R   0.288900 0.930980 0.479450 -0.597949
O4    O     O_R   0.346480 0.069030 0.520520 -0.595065
C2    C     C_R   0.259774 0.001216 0.498099 0.790915
Cu1   Cu    Cu3+1 0.465900 0.918260 0.475680 0.915527
Cu2   Cu    Cu3+1 0.534100 0.081740 0.524320 0.983236
O5    O     O_R   0.487360 0.839850 0.620820 -0.588732
O6    O     O_R   0.544940 0.977900 0.661890 -0.586660
O7    O     O_R   0.653520 0.930970 0.479480 -0.597882
O8    O     O_R   0.711100 0.069020 0.520550 -0.541533
C3    C     C_R   0.521312 0.879758 0.688249 0.785994
C4    C     C_R   0.739820 0.001266 0.497820 0.765252
C5    C     C_3   0.033019 0.922943 0.456397 -0.392187
H1    H     H_    0.057429 0.845045 0.505288 0.187883
H2    H     H_    0.048161 0.940907 0.377561 0.173202
C6    C     C_3   0.890114 0.923614 0.455382 -0.440558
H3    H     H_    0.837380 0.945053 0.375453 0.176631
H4    H     H_    0.845054 0.845040 0.500194 0.194925
H5    H     H_    0.136185 0.899927 0.658479 0.158048
C7    C     C_3   0.101004 0.974259 0.607431 -0.377373
C8    C     C_3   0.084066 0.109007 0.426776 -0.416920
C9    C     C_3   0.122023 0.001858 0.497119 0.069714
H6    H     H_    0.148058 0.167657 0.452653 0.209911
H7    H     H_    0.099868 0.129594 0.347496 0.154360
C10   C     C_3   0.878249 0.001021 0.498661 0.006553
C11   C     C_3   0.955809 0.970103 0.610487 -0.045650
C12   C     C_3   0.939522 0.109210 0.426203 0.192717
H8    H     H_    0.887413 0.123313 0.346854 0.096700
H9    H     H_    0.160933 0.032144 0.636306 0.177252
H10   H     H_    0.948630 0.027018 0.639623 0.201855
C13   C     C_R   0.456634 0.186932 0.201541 -0.116423
C14   C     C_R   0.517586 0.811540 0.795849 -0.066675
C15   C     C_R   0.380115 0.209100 0.023220 0.108791
C16   C     C_R   0.409776 0.145681 0.127492 -0.195795
C17   C     C_R   0.475282 0.292269 0.171515 -0.139227
C18   C     C_R   0.430284 0.357336 0.071325 0.083015
C19   C     C_R   0.390446 0.316456 0.995260 0.091668
C20   C     C_R   0.430057 0.463052 0.044576 -0.071510
C21   C     C_R   0.423792 0.530979 0.939692 -0.001032
C22   C     C_R   0.371465 0.489240 0.863716 0.102139
C23   C     C_R   0.358341 0.383356 0.893266 -0.206518
C24   C     C_R   0.432345 0.503672 0.118060 0.342775
C25   C     C_R   0.450320 0.608920 0.090076 -0.287466
C26   C     C_R   0.469159 0.675899 0.991540 0.087827
C27   C     C_R   0.462580 0.637305 0.916815 0.074730
C28   C     C_R   0.494021 0.781556 0.966619 -0.174780
C29   C     C_R   0.514046 0.849297 0.868072 -0.192330
C30   C     C_R   0.502370 0.706015 0.823803 -0.229688
H11   H     H_    0.320485 0.353396 0.834822 0.146577
H12   H     H_    0.526434 0.678506 0.773823 0.149370
H13   H     H_    0.526055 0.930690 0.848412 0.161203
H14   H     H_    0.450155 0.638445 0.146432 0.176644
H15   H     H_    0.397377 0.063732 0.152270 0.150445
H16   H     H_    0.526234 0.322713 0.227615 0.202713
H17   H     H_    0.495215 0.811740 0.022671 0.138127
N1    N     N_R   0.585360 0.204570 0.560800 -0.214653
N2    N     N_R   0.414550 0.795430 0.439160 -0.177299
C31   C     C_R   0.742498 0.297533 0.647713 0.265903
C32   C     C_R   0.700779 0.213224 0.621198 0.036912
C33   C     C_R   0.505981 0.277522 0.523990 0.072944
C34   C     C_R   0.538251 0.363441 0.551217 -0.080056
C35   C     C_R   0.657220 0.370685 0.618183 -0.108545
C36   C     C_R   0.458721 0.443506 0.511508 0.090883
C37   C     C_R   0.504590 0.533218 0.532044 -0.000584
C38   C     C_R   0.614644 0.531801 0.607358 -0.309702
C39   C     C_R   0.686478 0.450267 0.653884 0.380840
C40   C     C_R   0.334606 0.436488 0.452533 -0.107730
C41   C     C_R   0.263543 0.518884 0.403823 0.090666
C42   C     C_R   0.316777 0.612770 0.413577 0.126286
C43   C     C_R   0.435984 0.619870 0.479900 -0.027281
C44   C     C_R   0.252662 0.699756 0.359562 -0.326082
C45   C     C_R   0.302967 0.789785 0.373788 0.061431
C46   C     C_R   0.482297 0.714721 0.490299 0.016874
H18   H     H_    0.571264 0.726388 0.539262 0.122627
H19   H     H_    0.250385 0.854662 0.334910 0.124141
H20   H     H_    0.763598 0.155938 0.645556 0.176380
H21   H     H_    0.419449 0.267658 0.472032 0.161318
H22   H     H_    0.642254 0.590592 0.636946 0.161872
H23   H     H_    0.289582 0.366346 0.443851 0.148608
H24   H     H_    0.162384 0.699314 0.307540 0.148994
N3    N     N_R   0.925195 0.193258 0.450813 0.126253
O9    O     O_R   0.848096 0.258843 0.388051 -0.380426
O10   O     O_R   0.993139 0.206683 0.531586 -0.402585
C47   C     C_3   0.335259 0.164293 0.941701 -0.394645
C48   C     C_3   0.330756 0.048185 0.979041 -0.356606
C49   C     C_3   0.288061 0.014336 0.889765 -0.844737
H25   H     H_    0.189497 0.033466 0.849888 0.265741
H26   H     H_    0.357542 0.052345 0.834360 0.255072
H27   H     H_    0.285161 0.930365 0.918895 0.236906
H28   H     H_    0.428715 0.026638 0.017858 0.221877
H29   H     H_    0.260353 0.007137 0.033525 0.219432
H30   H     H_    0.236010 0.182835 0.903073 0.230660
H31   H     H_    0.402186 0.202295 0.884200 0.207810
C50   C     C_3   0.305757 0.548934 0.755166 -0.406178
C51   C     C_3   0.194448 0.598726 0.755436 -0.278206
C52   C     C_3   0.125695 0.652509 0.646955 -0.784091
H32   H     H_    0.195089 0.713842 0.600520 0.248622
H33   H     H_    0.084713 0.597445 0.610148 0.283788
H34   H     H_    0.045009 0.686764 0.649646 0.243177
H35   H     H_    0.123067 0.539054 0.801296 0.276336
H36   H     H_    0.231265 0.655783 0.790090 0.212735
H37   H     H_    0.374182 0.604851 0.705068 0.190686
H38   H     H_    0.262317 0.496719 0.715133 0.218196
N4    N     N_R   0.402494 0.440718 0.218579 0.092201
O11   O     O_R   0.296296 0.375455 0.231339 -0.400630
O12   O     O_R   0.476977 0.454570 0.297026 -0.414133
N5    N     N_R   0.780525 0.445379 0.743551 0.158268
O13   O     O_R   0.849608 0.528671 0.749685 -0.396476
O14   O     O_R   0.779449 0.361445 0.825869 -0.332233
C53   C     C_3   0.131075 0.503893 0.341303 -0.396615
C54   C     C_3   0.020811 0.495897 0.396265 -0.322271
C55   C     C_3   0.891691 0.509832 0.323445 -0.725063
H39   H     H_    0.895793 0.589301 0.264470 0.223051
H40   H     H_    0.869622 0.456120 0.284692 0.288035
H41   H     H_    0.812296 0.495143 0.367010 0.265312
H42   H     H_    0.011158 0.419681 0.460526 0.292476
H43   H     H_    0.042244 0.554447 0.429231 0.217984
H44   H     H_    0.124993 0.566858 0.263997 0.197752
H45   H     H_    0.117354 0.432833 0.327727 0.241036
N6    N     N_R   0.875487 0.312478 0.694330 0.167559
O15   O     O_R   0.930505 0.234486 0.762253 -0.360030
O16   O     O_R   0.948046 0.399620 0.655095 -0.368354
C56   C     C_3   0.900306 0.864113 0.687046 -0.419070
C57   C     C_3   0.953364 0.849014 0.798884 -0.388849
C58   C     C_3   0.899243 0.744058 0.872445 -0.772254
H46   H     H_    0.791664 0.735616 0.861838 0.256557
H47   H     H_    0.927586 0.682846 0.859213 0.277741
H48   H     H_    0.938895 0.735318 0.952511 0.237011
H49   H     H_    0.061041 0.855983 0.813207 0.225490
H50   H     H_    0.925628 0.908673 0.815007 0.228362
H51   H     H_    0.792862 0.856553 0.676683 0.194793
H52   H     H_    0.923960 0.801855 0.672714 0.223216

loop_
_geom_bond_atom_site_label_1
_geom_bond_atom_site_label_2
_geom_bond_distance
_ccdc_geom_bond_type
C56   H52   1.111037 S    
N1    C33   1.362165 A    
C5    C6    1.529153 S    
C48   C49   1.528483 S    
C34   C36   1.439383 A    
C20   C21   1.423612 A    
C57   C58   1.526304 S    
N2    C46   1.362431 A    
C10   C12   1.575436 S    
C21   C22   1.434937 A    
C15   C16   1.408802 A    
C50   H38   1.112806 S    
C53   H45   1.112617 S    
C55   H39   1.111127 S    
C28   H17   1.083975 S    
C25   C26   1.386335 A    
C11   C56   1.556750 S    
Cu1   O7    1.964656 S    
C17   C18   1.402963 A    
C22   C50   1.531226 S    
C8    C12   1.546636 S    
C12   N3    1.470318 S    
N5    O14   1.301521 A    
C18   C19   1.419088 A    
C15   C47   1.531482 S    
C29   H13   1.082964 S    
N4    O11   1.301486 A    
C1    C13   1.475247 S    
C5    H1    1.108115 S    
C13   C16   1.400126 A    
C5    H2    1.113681 S    
C6    H3    1.113739 S    
C44   C45   1.389239 A    
C8    H7    1.113651 S    
O5    C3    1.295650 A    
C47   H30   1.112161 S    
Cu2   N1    2.014330 S    
C54   H43   1.110996 S    
C17   H16   1.078378 S    
C37   C43   1.434863 A    
C45   H19   1.081925 S    
C30   H12   1.075308 S    
C8    C9    1.546716 S    
C41   C42   1.416943 A    
C4    C10   1.480382 S    
C51   H35   1.111676 S    
N1    C32   1.353269 A    
C37   C38   1.407159 A    
C7    C11   1.552806 S    
C48   H28   1.111872 S    
C43   C46   1.424652 A    
Cu1   N2    2.014677 S    
C53   C54   1.538428 S    
C51   C52   1.524171 S    
C27   C30   1.398920 A    
C26   C28   1.403922 A    
C14   C30   1.398303 A    
C7    H9    1.113531 S    
C6    C10   1.557167 S    
C38   C39   1.397145 A    
C33   H21   1.075609 S    
C11   H10   1.110539 S    
C40   H23   1.077320 S    
O3    C2    1.287627 A    
C42   C44   1.412316 A    
C47   C48   1.538977 S    
C19   C23   1.401778 A    
O3    Cu1   1.962272 S    
C13   C17   1.389626 A    
C54   H42   1.111265 S    
C31   C32   1.397238 A    
O1    C1    1.294922 A    
C15   C19   1.428402 A    
C46   H18   1.075820 S    
C58   H47   1.111063 S    
C12   H8    1.115541 S    
N3    O9    1.300626 A    
C49   H27   1.110494 S    
C57   H50   1.111846 S    
C32   H20   1.081386 S    
Cu2   O8    1.962273 S    
C2    C9    1.473969 S    
C50   C51   1.534109 S    
C33   C34   1.424258 A    
C21   C27   1.425469 A    
C31   N6    1.437292 S    
N2    C45   1.352992 A    
C51   H36   1.109162 S    
C41   C53   1.520515 S    
C5    C9    1.555271 S    
N3    O10   1.301717 A    
C49   H26   1.110989 S    
C25   H14   1.085016 S    
C36   C37   1.425546 A    
C52   H33   1.110461 S    
C50   H37   1.101545 S    
C56   C57   1.537026 S    
C7    C9    1.549377 S    
C22   C23   1.401472 A    
N6    O16   1.301331 A    
C58   H46   1.110375 S    
C35   C39   1.417338 A    
C44   H24   1.080040 S    
C24   C25   1.392766 A    
C53   H44   1.110862 S    
C54   C55   1.526995 S    
C56   H51   1.110108 S    
Cu1   O5    1.920693 S    
C26   C27   1.414594 A    
C28   C29   1.392018 A    
C14   C29   1.399812 A    
O1    Cu1   1.931224 S    
O2    Cu2   1.920693 S    
C38   H22   1.077025 S    
O8    C4    1.289038 A    
O6    C3    1.297061 A    
O4    Cu2   1.964656 S    
C55   H40   1.109947 S    
C24   N4    1.430972 S    
C52   H34   1.109339 S    
C31   C35   1.424190 A    
O2    C1    1.302021 A    
C58   H48   1.110385 S    
C3    C14   1.465285 S    
C16   H15   1.079588 S    
N5    O13   1.301438 A    
C18   C20   1.424751 A    
C23   H11   1.080293 S    
O4    C2    1.292454 A    
N4    O12   1.299808 A    
C57   H49   1.110661 S    
C36   C40   1.411105 A    
C48   H29   1.111730 S    
O7    C4    1.292754 A    
C6    H4    1.112264 S    
C39   N5    1.438374 S    
C8    H6    1.112862 S    
C40   C41   1.401705 A    
C55   H41   1.111125 S    
Cu1   Cu2   2.681706 S    
C47   H31   1.112376 S    
C34   C35   1.424823 A    
C20   C24   1.430353 A    
C42   C43   1.421542 A    
C49   H25   1.111135 S    
Cu2   O6    1.931224 S    
C52   H32   1.110911 S    
C10   C11   1.571072 S    
N6    O15   1.301519 A    
H5    C7    1.113564 S    
