data_mof_unit_30119.cif
_audit_creation_date              2013-03-05T16:12:50-0500
_audit_creation_method            fapswitch 2.2
_symmetry_space_group_name_H-M    P1
_symmetry_Int_Tables_number       1
_space_group_crystal_system       triclinic
_cell_length_a                    8.433129
_cell_length_b                    16.479912
_cell_length_c                    18.791932
_cell_angle_alpha                 111.522272
_cell_angle_beta                  90.984345
_cell_angle_gamma                 84.163025
_cell_volume                      2416.38490876

loop_
_atom_site_label
_atom_site_type_symbol
_atom_site_description
_atom_site_fract_x
_atom_site_fract_y
_atom_site_fract_z
_atom_type_partial_charge
P1    P     P_3+3 0.582960 0.413890 0.320860 0.453724
O1    O     O_2   0.402610 0.439360 0.314250 -0.372994
O2    O     O_3   0.648560 0.446300 0.404730 -0.382641
O3    O     O_3   0.108870 0.604000 0.387500 -0.319837
O4    O     O_2   0.254387 0.533080 0.253969 -0.390626
O5    O     O_3   0.561532 0.302210 0.304329 -0.631780
O6    O     O_3   0.128341 0.688542 0.281328 -0.498345
H1    H     H_    0.950884 0.768652 0.355248 0.030713
C1    C     C_3   0.003345 0.818060 0.267044 -0.390334
H2    H     H_    0.093815 0.858812 0.302539 0.221374
P2    P     P_3+3 0.071690 0.707860 0.593450 0.459181
P3    P     P_3+3 0.499267 0.766981 0.456212 0.503341
O7    O     O_2   0.241370 0.719440 0.573960 -0.381182
O8    O     O_3   0.507090 0.652150 0.432150 -0.352175
O9    O     O_2   0.358445 0.805381 0.513640 -0.358559
O10   O     O_3   0.059537 0.734398 0.693127 -0.670774
O11   O     O_3   0.425180 0.792500 0.378327 -0.478227
C2    C     C_3   0.544300 0.773792 0.321525 0.788614
H3    H     H_    0.663746 0.785814 0.346395 -0.048492
C3    C     C_3   0.505128 0.834730 0.277406 -1.039364
H4    H     H_    0.393778 0.819130 0.245035 0.278664
H5    H     H_    0.486680 0.903777 0.317684 0.237630
C4    C     C_3   0.720979 0.743709 0.724897 0.439175
H6    H     H_    0.808260 0.712158 0.753618 0.138001
H7    H     H_    0.775416 0.746068 0.673474 0.065254
C5    C     C_3   0.681655 0.839978 0.775159 -1.053568
H8    H     H_    0.613571 0.847643 0.827478 0.275510
H9    H     H_    0.793918 0.871322 0.792349 0.256310
H10   H     H_    0.610187 0.874556 0.742633 0.254413
Ba1   Ba    Ba6+2 0.333520 0.539550 0.472180 1.556391
C6    C     C_3   0.660251 0.229894 0.251748 1.450408
C7    C     C_3   0.699390 0.243909 0.176939 -0.531806
H11   H     H_    0.593830 0.277315 0.161187 0.162658
H12   H     H_    0.798673 0.285127 0.185640 0.156815
C8    C     C_3   0.205429 0.750743 0.730525 1.101075
H13   H     H_    0.300133 0.698818 0.699329 0.041682
C9    C     C_3   0.249550 0.841671 0.738459 -0.939519
H14   H     H_    0.302484 0.841723 0.685001 0.227571
H15   H     H_    0.338522 0.863568 0.783889 0.242178
H16   H     H_    0.142295 0.890169 0.755091 0.228729
P4    P     P_3+3 0.606720 0.586180 0.679160 0.423027
O12   O     O_2   0.787080 0.560670 0.685800 -0.388792
O13   O     O_3   0.541120 0.553770 0.595290 -0.431318
O14   O     O_3   0.080800 0.396070 0.612520 -0.404512
O15   O     O_3   0.580095 0.701991 0.705823 -0.606901
P5    P     P_3+3 0.693870 0.235030 0.547602 0.485405
O16   O     O_3   0.164600 0.390590 0.443970 -0.391685
O17   O     O_3   0.682580 0.347920 0.567870 -0.383938
O18   O     O_2   0.832446 0.191451 0.489082 -0.358746
O19   O     O_3   0.752371 0.210751 0.628476 -0.538518
Ba2   Ba    Ba6+2 0.856270 0.460520 0.527840 1.566459
P6    P     P_3+3 0.098955 0.589089 0.290113 0.461470
C10   C     C_3   0.983538 0.741914 0.293254 0.412087
H17   H     H_    0.886040 0.705659 0.260329 0.023086
H18   H     H_    0.888316 0.859317 0.274657 0.146659
O20   O     O_3   0.025080 0.609480 0.556050 -0.364578
C11   C     C_3   0.143011 0.283224 0.267107 0.304201
H19   H     H_    0.015943 0.297690 0.257862 0.084178
H20   H     H_    0.199124 0.342590 0.300007 0.096831
C12   C     C_3   0.229677 0.245298 0.188073 0.149830
H21   H     H_    0.355070 0.258547 0.198020 0.177701
P7    P     P_3+3 0.130536 0.278383 0.406213 0.452909
O21   O     O_2   0.948320 0.280590 0.426090 -0.300127
O22   O     O_3   0.156515 0.224942 0.305963 -0.600701
H22   H     H_    0.604022 0.828065 0.236717 0.225845
C13   C     C_3   0.672625 0.270135 0.695693 0.758148
H23   H     H_    0.693582 0.338834 0.704800 0.115945
C14   C     C_3   0.739744 0.249715 0.764236 -0.964984
H24   H     H_    0.869179 0.255344 0.768803 0.292556
H25   H     H_    0.681553 0.296620 0.818336 0.220955
H26   H     H_    0.719413 0.181932 0.758203 0.258000
P8    P     P_3+3 0.099037 0.405926 0.707344 0.469457
C15   C     C_3   0.109018 0.237466 0.634975 0.505342
H27   H     H_    0.224811 0.241752 0.611116 0.033302
O23   O     O_2   0.945908 0.462009 0.749104 -0.384112
O24   O     O_3   0.078876 0.301458 0.708214 -0.486057
H28   H     H_    0.016481 0.245317 0.595347 0.167232
H29   H     H_    0.200955 0.140331 0.680972 0.248801
C16   C     C_3   0.110350 0.147326 0.639699 -0.947343
H30   H     H_    0.136322 0.096237 0.582280 0.241300
H31   H     H_    0.994119 0.137744 0.660101 0.292843
C17   C     C_R   0.532122 0.449900 0.037228 0.083749
C18   C     C_R   0.440619 0.423364 0.084753 -0.210857
C19   C     C_R   0.366101 0.387707 0.923058 0.085045
C20   C     C_R   0.481942 0.442817 0.962507 -0.062375
C21   C     C_R   0.279284 0.405816 0.865456 0.556012
C22   C     C_R   0.343344 0.453986 0.825550 -0.230038
C23   C     C_R   0.480200 0.498002 0.856474 -0.080931
C24   C     C_R   0.545779 0.494541 0.926669 -0.002390
C25   C     C_R   0.282836 0.456166 0.754382 0.241857
C26   C     C_R   0.369322 0.494144 0.713265 -0.505064
C27   C     C_R   0.498757 0.542167 0.744203 0.235460
C28   C     C_R   0.544666 0.550771 0.820836 -0.003294
C29   C     C_R   0.670268 0.490606 0.067908 0.052142
C30   C     C_R   0.728847 0.489698 0.139901 0.037731
C31   C     C_R   0.640740 0.454271 0.183578 -0.055769
C32   C     C_R   0.496096 0.422689 0.154311 -0.090330
H32   H     H_    0.330393 0.489350 0.656819 0.186261
H33   H     H_    0.423233 0.394996 0.183601 0.166293
C33   C     C_R   0.642114 0.614107 0.867125 0.318097
C34   C     C_R   0.720018 0.603047 0.930048 -0.236600
C35   C     C_R   0.675256 0.542684 0.960753 0.014310
C36   C     C_R   0.745626 0.535177 0.028504 0.053592
C37   C     C_R   0.888505 0.570896 0.058524 -0.258697
C38   C     C_R   0.871294 0.527289 0.169068 -0.053655
C39   C     C_R   0.952186 0.564376 0.125627 -0.164175
C40   C     C_R   0.927589 0.527538 0.240917 0.113252
C41   C     C_R   0.847778 0.483585 0.279630 -0.130720
C42   C     C_R   0.698217 0.452677 0.255144 0.109786
H34   H     H_    0.065536 0.589633 0.143258 0.176562
H35   H     H_    0.322224 0.404598 0.069570 0.160374
H36   H     H_    0.797236 0.651954 0.961731 0.136187
H37   H     H_    0.957465 0.601132 0.029044 0.126563
C43   C     C_2   0.402781 0.240253 0.483796 -0.504731
C44   C     C_R   0.807571 0.754765 0.515790 0.241678
C45   C     C_2   0.217375 0.128234 0.435826 -0.257487
C46   C     C_2   0.249492 0.210957 0.450669 0.258737
C47   C     C_2   0.509304 0.188327 0.505720 0.290441
C48   C     C_3   0.461317 0.102971 0.509143 -0.196800
C49   C     C_3   0.337639 0.061767 0.449374 -0.029842
C50   C     C_2   0.595407 0.033675 0.508659 0.586070
C51   C     C_2   0.573080 0.973664 0.540462 0.135823
C52   C     C_R   0.839516 0.933052 0.579463 0.150437
C53   C     C_R   0.701957 0.905030 0.538534 -0.081339
C54   C     C_R   0.957615 0.873339 0.590180 -0.407669
C55   C     C_R   0.939449 0.783932 0.560799 0.231466
C56   C     C_R   0.684696 0.813981 0.505120 -0.023711
H38   H     H_    0.111029 0.104907 0.405175 0.158022
H39   H     H_    0.059136 0.897484 0.624464 0.184004
H40   H     H_    0.431595 0.304095 0.486661 0.192014
O25   O     O_3   0.570789 0.155770 0.231021 -0.683091
C57   C     C_3   0.520473 0.139892 0.295751 -0.250018
H41   H     H_    0.618838 0.136680 0.334755 0.154801
H42   H     H_    0.467658 0.076574 0.276317 0.155859
H43   H     H_    0.429213 0.191802 0.328534 0.199776
O26   O     O_3   0.803207 0.216429 0.289262 -0.642574
C58   C     C_3   0.880857 0.129404 0.259662 -0.193345
H44   H     H_    0.807141 0.076307 0.227527 0.140999
H45   H     H_    0.930950 0.112815 0.308057 0.169014
H46   H     H_    0.980301 0.125697 0.221498 0.167052
C59   C     C_3   0.738000 0.160083 0.106429 -0.859578
H47   H     H_    0.841272 0.118256 0.115050 0.242440
H48   H     H_    0.633559 0.121535 0.091145 0.277966
H49   H     H_    0.766812 0.178214 0.057092 0.251962
O27   O     O_3   0.189616 0.752153 0.805952 -0.652002
C60   C     C_3   0.135808 0.674290 0.807436 -0.234245
H50   H     H_    0.123750 0.622336 0.750192 0.138508
H51   H     H_    0.018092 0.690468 0.837349 0.160687
H52   H     H_    0.219577 0.647490 0.841360 0.151119
C61   C     C_3   0.230091 0.145966 0.145746 -0.762732
H53   H     H_    0.318679 0.123384 0.097623 0.234262
H54   H     H_    0.264344 0.109425 0.183745 0.253822
H55   H     H_    0.112447 0.129088 0.120950 0.221874
C62   C     C_3   0.161675 0.293394 0.136337 -1.111506
H56   H     H_    0.039420 0.276506 0.118433 0.282941
H57   H     H_    0.156065 0.365466 0.166792 0.256039
H58   H     H_    0.238440 0.274355 0.084212 0.277533
C63   C     C_3   0.052326 0.786843 0.182613 -0.870241
H59   H     H_    0.165778 0.743161 0.170636 0.274250
H60   H     H_    0.957270 0.751416 0.146397 0.250273
H61   H     H_    0.069577 0.844421 0.167354 0.243376
C64   C     C_3   0.494421 0.260750 0.692545 -1.017409
H62   H     H_    0.437606 0.300677 0.661172 0.207921
H63   H     H_    0.473392 0.191211 0.663629 0.250842
H64   H     H_    0.438672 0.283519 0.750147 0.255626
C65   C     C_3   0.548158 0.678599 0.266414 -0.837328
H65   H     H_    0.593948 0.633904 0.295636 0.225644
H66   H     H_    0.427514 0.662933 0.244925 0.293536
H67   H     H_    0.627488 0.667336 0.216542 0.190669
O28   O     O_3   0.140048 0.367468 0.844287 -0.570744
C66   C     C_3   0.018487 0.418947 0.896384 -0.103172
H68   H     H_    0.008499 0.488183 0.899891 0.117721
H69   H     H_    0.037799 0.415529 0.953897 0.115446
H70   H     H_    0.903313 0.392956 0.875925 0.169322
C67   C     C_3   0.614420 0.707446 0.873080 -1.007643
H71   H     H_    0.523641 0.716527 0.832987 0.288880
H72   H     H_    0.563632 0.748527 0.930777 0.250767
H73   H     H_    0.728998 0.732115 0.868032 0.240061
C68   C     C_3   0.925737 0.467313 0.346671 -0.637991
H74   H     H_    0.900898 0.404514 0.350002 0.209874
H75   H     H_    0.055744 0.460817 0.341543 0.225168
H76   H     H_    0.887139 0.520873 0.400620 0.283012
C69   C     C_3   0.348660 0.300682 0.930966 -0.918605
H77   H     H_    0.448263 0.281193 0.962630 0.242884
H78   H     H_    0.233041 0.302517 0.959053 0.247862
H79   H     H_    0.352655 0.247981 0.873290 0.263099
O29   O     O_3   0.795519 0.666867 0.484548 -0.666366
C70   C     C_3   0.701875 0.644944 0.534505 0.105996
H80   H     H_    0.599307 0.693962 0.562947 0.104104
H81   H     H_    0.769862 0.631326 0.578669 0.132852
H82   H     H_    0.656630 0.583139 0.500277 0.226843
O30   O     O_3   0.745344 0.035174 0.480590 -0.582955
C71   C     C_3   0.749031 0.992748 0.400869 -0.249710
H83   H     H_    0.650497 0.019485 0.373328 0.114399
H84   H     H_    0.745567 0.921577 0.386126 0.118687
H85   H     H_    0.862852 0.002907 0.378220 0.169702
C72   C     C_3   0.428295 0.983501 0.589721 -0.964421
H86   H     H_    0.319611 0.974386 0.554819 0.280535
H87   H     H_    0.439685 0.935584 0.618850 0.265236
H88   H     H_    0.418812 0.048914 0.635739 0.228503

loop_
_geom_bond_atom_site_label_1
_geom_bond_atom_site_label_2
_geom_bond_distance
_ccdc_geom_bond_type
C13   C14   1.531987 S    
Ba1   Ba2   4.604229 S    
C34   C35   1.403586 A    
C4    O15   1.408326 S    
C24   C35   1.418184 A    
C72   H88   1.103243 S    
C35   C36   1.436341 A    
P4    O13   1.577288 S    
P4    O12   1.551663 D    
C30   C31   1.423872 A    
P8    O24   1.753116 S    
C50   O30   1.384362 S    
C37   C39   1.398023 A    
O27   C60   1.413628 S    
C2    C65   1.527526 S    
C52   C53   1.402939 A    
C67   H72   1.111645 S    
P3    C56   1.888014 S    
C10   H17   1.107719 S    
C45   C46   1.342810 D    
C34   H36   1.081429 S    
C38   C40   1.422215 A    
P5    O18   1.544283 D    
P5    C47   1.841611 S    
C5    H8    1.107148 S    
P7    O21   1.581312 D    
C44   C55   1.400513 A    
O3    P6    1.756575 S    
C70   H82   1.089337 S    
C17   C29   1.411298 A    
P1    Ba1   3.434862 S    
C8    C9    1.534184 S    
C19   C21   1.400775 A    
O6    P6    1.748564 S    
Ba2   O20   2.839713 S    
C9    H16   1.110843 S    
C69   H78   1.109134 S    
O10   C8    1.406752 S    
C39   H34   1.079636 S    
C52   C54   1.392854 A    
O28   C66   1.406164 S    
C60   H52   1.108222 S    
P2    O7    1.530676 D    
C44   C56   1.413169 A    
C41   C42   1.414472 A    
C13   C64   1.524272 S    
C2    C3    1.529392 S    
C70   H81   1.077952 S    
P1    O1    1.551359 D    
C8    O27   1.417426 S    
C4    C5    1.524265 S    
C72   H87   1.110118 S    
C15   H28   1.100219 S    
C47   C48   1.526322 S    
C33   C34   1.403599 A    
P7    C46   1.834283 S    
C6    O25   1.428759 S    
C30   C38   1.416646 A    
C63   H61   1.110365 S    
P1    C42   1.903996 S    
O17   Ba2   2.787409 S    
C8    H13   1.105792 S    
P6    C40   1.880492 S    
C57   H41   1.107614 S    
C71   H84   1.105243 S    
C61   H55   1.106311 S    
P3    O11   1.753887 S    
P7    O22   1.769257 S    
C4    H6    1.103556 S    
O4    P6    1.534914 D    
O14   P8    1.734527 S    
C5    H10   1.111128 S    
C1    H18   1.105886 S    
C1    H2    1.111796 S    
C64   H63   1.105059 S    
C44   O29   1.362797 S    
O12   Ba2   2.853892 S    
C68   H76   1.099622 S    
C13   H23   1.113456 S    
C58   H44   1.107629 S    
C12   H21   1.100481 S    
C51   C72   1.504139 S    
C63   H60   1.109752 S    
C43   H40   1.085761 S    
C29   C30   1.436993 A    
O8    Ba1   2.786803 S    
P8    O23   1.548408 D    
C32   H33   1.068534 S    
C67   H73   1.104194 S    
C60   H51   1.108117 S    
C48   C50   1.520849 S    
C15   H27   1.100847 S    
C15   C16   1.519220 S    
C66   H70   1.107078 S    
P5    O17   1.749450 S    
C60   H50   1.113000 S    
P1    O5    1.778403 S    
C37   H37   1.079797 S    
O7    Ba1   2.910828 S    
C65   H66   1.108001 S    
Ba2   O21   2.911015 S    
C19   C20   1.410788 A    
P2    Ba1   3.471556 S    
C62   H58   1.109944 S    
C59   H49   1.110717 S    
C26   C27   1.404321 A    
C16   H31   1.105225 S    
O2    Ba2   2.832280 S    
C21   C22   1.422085 A    
C14   H24   1.104067 S    
C11   C12   1.547221 S    
O16   Ba2   2.961711 S    
Ba1   O20   2.962498 S    
C45   C49   1.504346 S    
C41   C68   1.508258 S    
C70   H80   1.115070 S    
P1    O2    1.577288 S    
C7    H12   1.103913 S    
C63   H59   1.110269 S    
O2    Ba1   2.980391 S    
C69   H77   1.109472 S    
C9    H14   1.106609 S    
C64   H64   1.103238 S    
P8    C25   1.883166 S    
P2    O10   1.762612 S    
Ba1   O16   2.840257 S    
C6    C7    1.551857 S    
C28   C33   1.416050 A    
P3    O9    1.538028 D    
C40   C41   1.417589 A    
C71   H85   1.108841 S    
C31   C32   1.399054 A    
P2    C55   1.856971 S    
C33   C67   1.494898 S    
O11   C2    1.405684 S    
C50   C51   1.358719 D    
C12   C61   1.534910 S    
C3    H4    1.110244 S    
C58   H45   1.107248 S    
C66   H68   1.113005 S    
C62   H56   1.109656 S    
C7    C59   1.533094 S    
C43   C47   1.341133 D    
C65   H67   1.108603 S    
C53   C56   1.420171 A    
O14   Ba2   2.823686 S    
C57   H42   1.109013 S    
C3    H5    1.108157 S    
C29   C36   1.414887 A    
C71   H83   1.109302 S    
C45   H38   1.083400 S    
C65   H65   1.106726 S    
C15   O24   1.401258 S    
C18   H35   1.078057 S    
Ba1   O13   2.831713 S    
C69   H79   1.111214 S    
C3    H22   1.110812 S    
C1    C10   1.531081 S    
O6    C10   1.400475 S    
C51   C53   1.477535 S    
O25   C57   1.414911 S    
C11   O22   1.399317 S    
C64   H62   1.104947 S    
C31   C42   1.430097 A    
C23   C28   1.426987 A    
C20   C24   1.413152 A    
C21   O28   1.373604 S    
C62   H57   1.109614 S    
C19   C69   1.516756 S    
P3    O8    1.771391 S    
C6    O26   1.425040 S    
H1    C10   1.112147 S    
C48   C49   1.534494 S    
O19   C13   1.412024 S    
C14   H26   1.111504 S    
C68   H74   1.100435 S    
C66   H69   1.111102 S    
C17   C20   1.426085 A    
C38   C39   1.405462 A    
P5    O19   1.758830 S    
C5    H9    1.110842 S    
O1    Ba1   2.853400 S    
C7    H11   1.092704 S    
C59   H48   1.110417 S    
O29   C70   1.402807 S    
C9    H15   1.108616 S    
C67   H71   1.102595 S    
C59   H47   1.102198 S    
O30   C71   1.401000 S    
O16   P7    1.773048 S    
H29   C16   1.107255 S    
O13   Ba2   2.981177 S    
C25   C26   1.409859 A    
C54   C55   1.394758 A    
C1    C63   1.527421 S    
C57   H43   1.095144 S    
C58   H46   1.095189 S    
C27   C28   1.444319 A    
O5    C6    1.432531 S    
C61   H54   1.108603 S    
C4    H7    1.092023 S    
C26   H32   1.082126 S    
C72   H86   1.108085 S    
C12   C62   1.534976 S    
C43   C46   1.473260 S    
C11   H20   1.097098 S    
C16   H30   1.106875 S    
C54   H39   1.081032 S    
P4    C27   1.916264 S    
C23   C24   1.439739 A    
C22   C23   1.426124 A    
C14   H25   1.111420 S    
C17   C18   1.401127 A    
C18   C32   1.384254 A    
C22   C25   1.434688 A    
C36   C37   1.412026 A    
C2    H3    1.108519 S    
P4    O15   1.777391 S    
C61   H53   1.110928 S    
O26   C58   1.425200 S    
C11   H19   1.098789 S    
P4    Ba2   3.435388 S    
O3    Ba1   2.824314 S    
P2    O20   1.600347 S    
C68   H75   1.093138 S    
