data_mof_unit_16930.cif
_audit_creation_date              2012-12-10T16:38:42-0500
_audit_creation_method            fapswitch 2.2
_symmetry_space_group_name_H-M    P1
_symmetry_Int_Tables_number       1
_space_group_crystal_system       triclinic
_cell_length_a                    10.911408
_cell_length_b                    10.806859
_cell_length_c                    17.871952
_cell_angle_alpha                 98.200952
_cell_angle_beta                  72.943253
_cell_angle_gamma                 98.598983
_cell_volume                      1981.17370508

loop_
_atom_site_label
_atom_site_type_symbol
_atom_type_description
_atom_site_fract_x
_atom_site_fract_y
_atom_site_fract_z
_atom_type_partial_charge
Br1   Br    Br    0.921493 0.362638 0.604637 -0.490308
C1    C     C_R   0.158370 0.480301 0.516922 0.581234
C2    C     C_R   0.600006 0.395473 0.920032 0.255349
C3    C     C_R   0.676720 0.354383 0.959200 -0.099691
C4    C     C_R   0.842861 0.521209 0.483185 0.524562
C5    C     C_R   0.654512 0.382164 0.039890 -0.010918
C6    C     C_R   0.552607 0.453256 0.083334 0.014342
C7    C     C_R   0.729263 0.333566 0.078263 -0.127968
C8    C     C_R   0.701332 0.351813 0.159846 -0.122232
C9    C     C_R   0.517051 0.456516 0.165909 -0.100100
C10   C     C_2   0.979948 0.532364 0.479131 0.234295
C11   C     C_2   0.022717 0.470119 0.525493 0.146170
C12   C     C_R   0.296881 0.645096 0.841996 -0.112583
C13   C     C_2   0.542644 0.966714 0.476331 -0.123685
C14   C     C_2   0.454476 0.036168 0.524149 -0.117956
C15   C     C_R   0.467517 0.168449 0.517899 0.493416
C16   C     C_R   0.530472 0.832991 0.482645 0.497751
C17   C     C_R   0.565490 0.435143 0.288252 0.495491
C18   C     C_R   0.436348 0.563414 0.712167 0.503077
C19   C     C_R   0.405165 0.586151 0.798226 -0.042147
C20   C     C_R   0.593517 0.410996 0.203432 0.023198
C21   C     C_R   0.269662 0.667590 0.924080 0.266226
C22   C     C_3   0.070856 0.730921 0.452761 0.008991
C23   C     C_R   0.482377 0.543832 0.836789 -0.123051
C24   C     C_3   0.186458 0.804645 0.399942 -0.259299
C25   C     C_3   0.193034 0.945220 0.427390 -0.461842
C26   C     C_3   0.175207 0.852841 0.952841 0.005735
C27   C     C_3   0.256316 0.937349 0.001432 -0.277672
C28   C     C_3   0.253058 0.076242 0.995614 -0.482394
C29   C     C_3   0.497572 0.762492 0.151853 0.000683
C30   C     C_3   0.486898 0.831713 0.233876 -0.252398
C31   C     C_3   0.596048 0.938270 0.232836 -0.472530
C32   C     C_3   0.516550 0.238810 0.843998 -0.005751
C33   C     C_3   0.533959 0.175401 0.760049 -0.230609
C34   C     C_R   0.446607 0.546766 0.919119 -0.033554
C35   C     C_3   0.434907 0.060314 0.757063 -0.489451
C36   C     C_R   0.344154 0.617483 0.962668 0.000932
C37   C     C_R   0.512423 0.485822 0.959348 -0.013757
C38   C     C_R   0.487909 0.514398 0.042753 -0.015503
C39   C     C_R   0.401984 0.605647 0.081921 0.231763
C40   C     C_R   0.323197 0.644952 0.043601 -0.085192
H1    H     H_    0.252064 0.706488 0.077192 0.172109
H2    H     H_    0.081132 0.746075 0.513844 0.132913
H3    H     H_    0.980918 0.767562 0.452489 0.156058
H4    H     H_    0.276785 0.769451 0.400640 0.169831
H5    H     H_    0.178745 0.789636 0.338574 0.190837
H6    H     H_    0.106198 0.983559 0.423817 0.163399
H7    H     H_    0.280028 0.995439 0.389191 0.165444
H8    H     H_    0.199122 0.962315 0.489020 0.161449
H9    H     H_    0.076819 0.883014 0.970935 0.160728
H10   H     H_    0.215626 0.866799 0.889356 0.114627
H11   H     H_    0.218246 0.919363 0.064230 0.172103
H12   H     H_    0.809192 0.281614 0.045149 0.109546
H13   H     H_    0.357930 0.915497 0.979705 0.146810
H14   H     H_    0.282397 0.095152 0.933079 0.135706
H15   H     H_    0.320445 0.134947 0.025965 0.151463
H16   H     H_    0.154183 0.102892 0.023878 0.154007
H17   H     H_    0.491348 0.830929 0.112236 0.125701
H18   H     H_    0.592958 0.725090 0.129399 0.149341
H19   H     H_    0.393322 0.871896 0.255833 0.164133
H20   H     H_    0.489788 0.764293 0.274763 0.178777
H21   H     H_    0.690869 0.900362 0.212674 0.157066
H22   H     H_    0.584259 0.987132 0.293148 0.150956
H23   H     H_    0.624141 0.009031 0.432608 0.104497
H24   H     H_    0.593923 0.007708 0.193082 0.147371
H25   H     H_    0.418435 0.270437 0.866084 0.137849
H26   H     H_    0.525717 0.168606 0.881601 0.128914
H27   H     H_    0.523370 0.243668 0.721990 0.214937
H28   H     H_    0.632531 0.145690 0.736689 0.198590
H29   H     H_    0.443833 0.990496 0.794643 0.144911
H30   H     H_    0.451731 0.015352 0.695608 0.165854
H31   H     H_    0.335641 0.088455 0.777580 0.142835
H32   H     H_    0.371708 0.996177 0.567943 0.112743
H33   H     H_    0.429619 0.491983 0.202842 0.183381
H34   H     H_    0.761395 0.317010 0.189054 0.112129
H35   H     H_    0.748451 0.292504 0.926645 0.133832
H36   H     H_    0.234011 0.674540 0.812570 0.142605
H37   H     H_    0.572628 0.513138 0.801006 0.217212
O1    O     O_3   0.500000 0.500000 0.500000 -0.447929
O2    O     O_R   0.470800 0.371790 0.332500 -0.541467
O3    O     O_R   0.380610 0.619380 0.674980 -0.547053
O4    O     O_R   0.632640 0.524780 0.317540 -0.535336
O5    O     O_R   0.515950 0.484050 0.674980 -0.536775
O6    O     O_3   0.068146 0.602347 0.423378 -0.577075
O7    O     O_3   0.161899 0.725556 0.967859 -0.575346
O8    O     O_3   0.396153 0.663279 0.156858 -0.592313
O9    O     O_3   0.611911 0.342745 0.843489 -0.569258
O10   O     O_R   0.535460 0.243030 0.556410 -0.527994
O11   O     O_R   0.437420 0.784080 0.535340 -0.549833
O12   O     O_R   0.223560 0.397520 0.472140 -0.518309
O13   O     O_R   0.803560 0.575360 0.436110 -0.531225
O14   O     O_R   0.209690 0.568800 0.556400 -0.546002
O15   O     O_R   0.763190 0.458310 0.535350 -0.511727
O16   O     O_R   0.414000 0.207090 0.472140 -0.545505
O17   O     O_R   0.613120 0.765800 0.436110 -0.541718
Zn1   Zn    Zn3+2 0.577310 0.422690 0.565550 0.963862
Zn2   Zn    Zn3+2 0.403760 0.371330 0.445150 0.951593
Zn3   Zn    Zn3+2 0.634990 0.589920 0.423760 0.941345
Zn4   Zn    Zn3+2 0.383940 0.616050 0.565540 0.934779

loop_
_geom_bond_atom_site_label_1
_geom_bond_atom_site_label_2
_ccdc_geom_bond_type
C6    C9    A    
O10   Zn1   S    
O2    Zn2   S    
C17   C20   S    
C27   H11   S    
C40   H1    S    
C30   H20   S    
O1    Zn3   S    
C18   C19   S    
C1    C11   S    
O17   Zn3   S    
O11   Zn4   S    
O1    Zn4   S    
C27   C28   S    
C34   C36   A    
C4    C10   S    
C37   C38   A    
C14   C15   S    
C22   H2    S    
C1    O12   A    
C21   O7    S    
C39   O8    S    
C26   O7    S    
C19   C23   A    
C2    C37   A    
C26   H10   S    
C7    C8    A    
C16   O17   A    
C29   O8    S    
O12   Zn2   S    
C26   H9    S    
C25   H7    S    
O4    Zn3   S    
C13   C16   S    
Br1   C11   S    
C18   O5    A    
C35   H29   S    
C32   H25   S    
C9    C20   A    
C12   H36   S    
C23   C34   A    
C22   O6    S    
C2    O9    S    
C34   C37   A    
C16   O11   A    
C3    C5    A    
C25   H8    S    
C33   H27   S    
C38   C39   A    
C27   H13   S    
C5    C7    A    
C28   H14   S    
O16   Zn2   S    
C24   C25   S    
C21   C36   A    
C22   H3    S    
C30   H19   S    
C30   C31   S    
C13   H23   S    
C29   H18   S    
C32   C33   S    
C1    O14   A    
C33   H28   S    
C4    O13   A    
C25   H6    S    
C23   H37   S    
C39   C40   A    
C14   H32   S    
C28   H16   S    
O15   Zn1   S    
C2    C3    A    
C24   H4    S    
C32   H26   S    
C12   C19   A    
O1    Zn2   S    
C31   H22   S    
C7    H12   S    
C4    O15   A    
C10   C11   D    
C35   H30   S    
C5    C6    A    
C28   H15   S    
C10   O6    S    
O3    Zn4   S    
C15   O16   A    
C32   O9    S    
C31   H21   S    
O1    Zn1   S    
C9    H33   S    
C8    C20   A    
C29   C30   S    
O5    Zn1   S    
C29   H17   S    
C17   O4    A    
C12   C21   A    
C33   C35   S    
C22   C24   S    
O13   Zn3   S    
C36   C40   A    
C3    H35   S    
C17   O2    A    
C26   C27   S    
C15   O10   A    
C6    C38   A    
C13   C14   D    
C8    H34   S    
C18   O3    A    
C24   H5    S    
C35   H31   S    
O14   Zn4   S    
C31   H24   S    
