data_mof_unit_47715.cif
_audit_creation_date              2012-12-11T15:46:47-0500
_audit_creation_method            fapswitch 2.2
_symmetry_space_group_name_H-M    P1
_symmetry_Int_Tables_number       1
_space_group_crystal_system       triclinic
_cell_length_a                    11.53558
_cell_length_b                    11.506341
_cell_length_c                    19.551114
_cell_angle_alpha                 90.404475
_cell_angle_beta                  89.818596
_cell_angle_gamma                 60.189417
_cell_volume                      2251.54646249

loop_
_atom_site_label
_atom_site_type_symbol
_atom_type_description
_atom_site_fract_x
_atom_site_fract_y
_atom_site_fract_z
_atom_type_partial_charge
C1    C     C_R   0.640290 0.117425 0.599252 0.546030
C2    C     C_1   0.640824 0.703602 0.667934 0.004663
C3    C     C_1   0.064470 0.233935 0.851030 0.001242
C4    C     C_1   0.134903 0.189567 0.721847 -0.029582
C5    C     C_1   0.095480 0.212596 0.791367 -0.030800
C6    C     C_1   0.175996 0.170227 0.663710 0.000318
C7    C     C_1   0.679335 0.191024 0.860716 0.003450
C8    C     C_1   0.658641 0.167449 0.728981 -0.030634
C9    C     C_1   0.666256 0.180816 0.800289 -0.030735
C10   C     C_1   0.652734 0.150029 0.668599 0.003845
C11   C     C_R   0.672651 0.645912 0.197645 0.014360
C12   C     C_R   0.612232 0.745941 0.598627 0.545396
C13   C     C_R   0.568450 0.645900 0.233097 0.015766
C14   C     C_R   0.562489 0.648738 0.302519 0.018706
C15   C     C_R   0.775934 0.640261 0.306512 -0.161050
C16   C     C_R   0.783013 0.631937 0.235031 -0.158915
C17   C     C_3   0.421667 0.728011 0.223324 -0.258955
C18   C     C_3   0.411552 0.729208 0.300779 -0.103859
C19   C     C_R   0.658203 0.663308 0.339822 0.012101
C20   C     C_R   0.124584 0.206121 0.195867 -0.004331
C21   C     C_R   0.135403 0.302913 0.233316 0.063135
C22   C     C_R   0.162924 0.286281 0.301748 -0.001097
C23   C     C_R   0.238501 0.146369 0.597576 0.548248
C24   C     C_R   0.145551 0.086015 0.301415 -0.176415
C25   C     C_R   0.121287 0.101008 0.231043 -0.165250
C26   C     C_3   0.226049 0.357856 0.220175 0.008039
C27   C     C_3   0.258579 0.338633 0.295819 -0.239284
C28   C     C_R   0.176521 0.173654 0.336210 0.009195
C29   C     C_R   0.666269 0.186691 0.192376 0.012410
C30   C     C_R   0.724482 0.056403 0.217830 0.016264
C31   C     C_R   0.721141 0.035616 0.286744 0.035626
C32   C     C_R   0.588495 0.272847 0.307426 -0.175394
C33   C     C_R   0.590688 0.295109 0.237274 -0.167944
C34   C     C_R   0.645235 0.112305 0.402587 0.540941
C35   C     C_3   0.863496 0.939392 0.210783 -0.270383
C36   C     C_3   0.859817 0.919826 0.286914 -0.273248
C37   C     C_R   0.661167 0.142483 0.332853 0.018160
C38   C     C_R   0.025410 0.263000 0.921664 0.555655
C39   C     C_R   0.684229 0.604431 0.929482 0.540114
C40   C     C_R   0.708781 0.206629 0.930077 0.539223
C41   C     C_R   0.080647 0.236907 0.125941 0.553655
C42   C     C_R   0.684252 0.609506 0.126475 0.547541
C43   C     C_R   0.707709 0.211298 0.126709 0.551348
C44   C     C_R   0.618443 0.734798 0.404019 0.541898
C45   C     C_R   0.243235 0.141449 0.401729 0.543924
C46   C     C_1   0.671260 0.646130 0.860052 0.002264
C47   C     C_1   0.654783 0.683218 0.728334 -0.031062
C48   C     C_1   0.664105 0.666179 0.799590 -0.032017
Cr1   Cr    Cr6+3 0.404720 0.198220 0.499960 1.020917
Cr2   Cr    Cr6+3 0.698290 0.897110 0.500380 1.025123
Cr3   Cr    Cr6+3 0.396970 0.904720 0.499610 1.017598
Cr4   Cr    Cr6+3 0.926290 0.152010 0.028150 1.018704
Cr5   Cr    Cr6+3 0.921440 0.451830 0.027490 1.031112
Cr6   Cr    Cr6+3 0.626370 0.446880 0.028730 1.012415
H1    H     H_    0.856602 0.639679 0.334901 0.119708
H2    H     H_    0.311190 0.292567 0.185501 0.136337
H3    H     H_    0.362998 0.259159 0.305338 0.144671
H4    H     H_    0.225249 0.432246 0.325940 0.134021
H5    H     H_    0.533906 0.356505 0.342120 0.118637
H6    H     H_    0.544007 0.397129 0.219336 0.135088
H7    H     H_    0.939976 0.966645 0.196621 0.154254
H8    H     H_    0.866468 0.856348 0.179969 0.136423
H9    H     H_    0.863803 0.824753 0.300177 0.140283
H10   H     H_    0.928616 0.942560 0.316268 0.138579
H11   H     H_    0.872341 0.617514 0.209269 0.151964
H12   H     H_    0.380087 0.672345 0.196160 0.139281
H13   H     H_    0.391845 0.828212 0.201860 0.123666
H14   H     H_    0.369837 0.831578 0.322599 0.180030
H15   H     H_    0.147928 0.002649 0.327361 0.119036
H16   H     H_    0.103124 0.029238 0.204176 0.128008
O1    O     O_R   0.267750 0.231960 0.575440 -0.503991
O2    O     O_R   0.685950 0.784660 0.430010 -0.502822
O3    O     O_R   0.502510 0.767000 0.423980 -0.531874
O4    O     O_R   0.288320 0.026340 0.429250 -0.511877
O5    O     O_3   0.499990 0.000020 0.499980 -0.250436
O6    O     O_R   0.821590 0.119350 0.952850 -0.511589
O7    O     O_R   0.037230 0.162540 0.957390 -0.489005
O8    O     O_R   0.056530 0.344750 0.951370 -0.502649
O9    O     O_R   0.798000 0.560370 0.957490 -0.510475
O10   O     O_R   0.596230 0.579400 0.952760 -0.502548
O11   O     O_R   0.639160 0.321170 0.958690 -0.495734
O12   O     O_R   0.527290 0.186640 0.570530 -0.493934
O13   O     O_R   0.821370 0.124220 0.104400 -0.521582
O14   O     O_R   0.037020 0.167050 0.097880 -0.506854
O15   O     O_R   0.056310 0.349620 0.102920 -0.486635
O16   O     O_R   0.797790 0.564880 0.097980 -0.500500
O17   O     O_R   0.596000 0.584270 0.104310 -0.519711
O18   O     O_R   0.638950 0.325690 0.099180 -0.508146
O19   O     O_3   0.824700 0.350240 0.028120 -0.272603
O20   O     O_R   0.728110 0.003450 0.576380 -0.504796
O21   O     O_R   0.682980 0.789190 0.570500 -0.494069
O22   O     O_R   0.499300 0.771880 0.575540 -0.505556
O23   O     O_R   0.285350 0.030870 0.569740 -0.492072
O24   O     O_R   0.270960 0.227070 0.423890 -0.520010
O25   O     O_R   0.530270 0.182120 0.430040 -0.510945
O26   O     O_R   0.731320 0.998570 0.424830 -0.514730
C49   C     C_3   0.347657 0.649126 0.328846 -0.269336
C50   C     C_3   0.195897 0.731824 0.329737 -0.458561
H17   H     H_    0.162158 0.812461 0.368967 0.149045
H18   H     H_    0.158550 0.775378 0.278542 0.148220
H19   H     H_    0.153111 0.667380 0.343376 0.130407
H20   H     H_    0.377420 0.558202 0.297166 0.143047
H21   H     H_    0.382639 0.616798 0.381879 0.168703
N1    N     N_2   0.151006 0.497425 0.200080 -0.498840
H22   H     H_    0.096670 0.565887 0.238133 0.240770
C51   C     C_3   0.220018 0.540196 0.153908 -0.292436
H23   H     H_    0.158153 0.649490 0.144843 0.126446
H24   H     H_    0.238255 0.486459 0.104157 0.170215
H25   H     H_    0.316937 0.518346 0.176034 0.129045

loop_
_geom_bond_atom_site_label_1
_geom_bond_atom_site_label_2
_ccdc_geom_bond_type
C21   C26   S    
C1    O20   A    
C34   C37   S    
C43   O13   A    
C14   C18   S    
C12   O21   A    
C35   C36   S    
Cr3   O4    S    
Cr1   O1    S    
C2    C12   S    
N1    C51   S    
C20   C41   S    
C15   C19   A    
C26   C27   S    
C30   C35   S    
C43   O18   A    
Cr5   O9    S    
Cr3   O5    S    
Cr6   O17   S    
C51   H23   S    
C18   H14   S    
C15   C16   A    
C29   C33   A    
C11   C42   S    
Cr4   O14   S    
Cr2   O2    S    
C26   N1    S    
Cr2   O20   S    
C3    C38   S    
C8    C9    S    
C7    C40   S    
Cr1   O5    S    
Cr5   O16   S    
C42   O16   A    
C18   C49   S    
Cr1   O24   S    
C36   H9    S    
C24   C28   A    
C49   H20   S    
C22   C28   A    
C13   C14   A    
C29   C43   S    
Cr4   O19   S    
C45   O24   A    
C14   C19   A    
N1    H22   S    
C24   H15   S    
C49   C50   S    
Cr6   O10   S    
C46   C48   T    
C28   C45   S    
C17   H13   S    
C23   O1    A    
C24   C25   A    
Cr6   O19   S    
C4    C6    T    
C27   H3    S    
C38   O8    A    
Cr4   O6    S    
C1    O12   A    
C41   O14   A    
Cr1   O25   S    
C23   O23   A    
C31   C37   A    
C45   O4    A    
C15   H1    S    
Cr1   O12   S    
Cr4   O13   S    
C29   C30   A    
Cr3   O22   S    
C11   C16   A    
C47   C48   S    
C17   C18   S    
C17   H12   S    
C35   H7    S    
C32   C37   A    
C34   O25   A    
C49   H21   S    
Cr3   O23   S    
C39   C46   S    
C33   H6    S    
C50   H18   S    
C22   C27   S    
Cr5   O19   S    
Cr4   O7    S    
C19   C44   S    
C7    C9    T    
C40   O11   A    
C12   O22   A    
C1    C10   S    
Cr3   O3    S    
C34   O26   A    
C4    C5    S    
C3    C5    T    
C27   H4    S    
C26   H2    S    
C42   O17   A    
C38   O7    A    
C2    C47   T    
C50   H19   S    
C41   O15   A    
C13   C17   S    
C32   C33   A    
Cr5   O8    S    
C36   H10   S    
Cr2   O5    S    
C39   O10   A    
Cr6   O18   S    
C11   C13   A    
Cr2   O26   S    
C30   C31   A    
C51   H24   S    
C6    C23   S    
C16   H11   S    
C44   O2    A    
C35   H8    S    
C44   O3    A    
C40   O6    A    
Cr2   O21   S    
C20   C21   A    
C8    C10   T    
C50   H17   S    
C20   C25   A    
C31   C36   S    
Cr5   O15   S    
C25   H16   S    
C32   H5    S    
C21   C22   A    
Cr6   O11   S    
C39   O9    A    
C51   H25   S    
