data_mof_unit_21337.cif
_audit_creation_date              2012-10-26T21:33:19-0400
_audit_creation_method            fapswitch 2.2
_symmetry_space_group_name_H-M    P1
_symmetry_Int_Tables_number       1
_space_group_crystal_system       triclinic
_cell_length_a                    28.193077
_cell_length_b                    18.395521
_cell_length_c                    17.043703
_cell_angle_alpha                 90.134918
_cell_angle_beta                  61.126858
_cell_angle_gamma                 90.450988
_cell_volume                      7740.25654577

loop_
_atom_site_label
_atom_site_type_symbol
_atom_type_description
_atom_site_fract_x
_atom_site_fract_y
_atom_site_fract_z
_atom_type_partial_charge
C1    C     C_R   0.701292 0.266991 0.676401 0.983413
C2    C     C_R   0.093865 0.502575 0.519842 -0.015567
C3    C     C_R   0.188067 0.224880 0.907708 0.052887
C4    C     C_R   0.074135 0.100207 0.934312 0.978311
C5    C     C_R   0.925830 0.899837 0.065722 0.978032
C6    C     C_R   0.926011 0.100201 0.065641 0.978006
C7    C     C_R   0.073910 0.899702 0.934434 0.978051
C8    C     C_R   0.574187 0.600142 0.934262 0.978064
C9    C     C_R   0.425845 0.399817 0.065707 0.978336
C10   C     C_R   0.426081 0.600287 0.065574 0.978067
C11   C     C_R   0.573991 0.399802 0.934356 0.978026
C12   C     C_R   0.518305 0.116224 0.592692 -0.241161
C13   C     C_R   0.406136 0.997425 0.480157 -0.015567
C14   C     C_R   0.481699 0.883779 0.407295 -0.241197
C15   C     C_R   0.422265 0.110880 0.576832 -0.229048
C16   C     C_R   0.577738 0.889121 0.423157 -0.229078
C17   C     C_R   0.018301 0.616220 0.592707 -0.241207
C18   C     C_R   0.981696 0.383778 0.407305 -0.241170
C19   C     C_R   0.922261 0.610878 0.576845 -0.229066
C20   C     C_R   0.077736 0.389121 0.423164 -0.229035
C21   C     C_R   0.478911 0.171318 0.629644 0.626102
C22   C     C_R   0.521094 0.828687 0.370338 0.626138
C23   C     C_R   0.431745 0.168316 0.622461 0.635960
C24   C     C_R   0.593866 0.002576 0.519836 -0.015520
C25   C     C_R   0.568260 0.831688 0.377523 0.636200
C26   C     C_R   0.978904 0.671311 0.629666 0.626158
C27   C     C_R   0.021091 0.328685 0.370349 0.626125
C28   C     C_R   0.931739 0.668310 0.622481 0.636196
C29   C     C_R   0.068257 0.331687 0.377533 0.635957
C30   C     C_R   0.461951 0.056503 0.536419 -0.055919
C31   C     C_R   0.538052 0.943499 0.463570 -0.055942
C32   C     C_R   0.509432 0.058575 0.545416 -0.055006
C33   C     C_R   0.490572 0.941427 0.454572 -0.055030
C34   C     C_R   0.961947 0.556500 0.536431 -0.055945
C35   C     C_R   0.125767 0.393386 0.429694 0.450043
C36   C     C_R   0.038049 0.443498 0.463579 -0.055923
C37   C     C_R   0.009428 0.558572 0.545429 -0.055028
C38   C     C_R   0.990569 0.441426 0.454582 -0.055004
C39   C     C_R   0.952855 0.498252 0.490628 0.112081
C40   C     C_R   0.047142 0.501747 0.509381 0.112041
C41   C     C_R   0.452858 0.998253 0.490618 0.112042
C42   C     C_R   0.547145 0.001748 0.509371 0.112080
C43   C     C_R   0.894267 0.437309 0.440586 -0.029947
C44   C     C_R   0.105731 0.562691 0.559419 -0.030021
C45   C     C_R   0.130048 0.443773 0.488777 -0.043357
C46   C     C_R   0.874232 0.606616 0.570309 0.450136
C47   C     C_R   0.869951 0.556228 0.511226 -0.043431
C48   C     C_R   0.394269 0.937309 0.440580 -0.030018
C49   C     C_R   0.605733 0.062691 0.559413 -0.029946
C50   C     C_R   0.630049 0.943772 0.488775 -0.043432
C51   C     C_R   0.369952 0.056227 0.511221 -0.043357
C52   C     C_R   0.842849 0.435779 0.443113 -0.066271
C53   C     C_R   0.157151 0.564222 0.556889 -0.066284
C54   C     C_R   0.170154 0.439536 0.516758 -0.082436
C55   C     C_R   0.829846 0.560464 0.483242 -0.082476
C56   C     C_R   0.342849 0.935778 0.443110 -0.066275
C57   C     C_R   0.933938 0.382932 0.398533 0.439404
C58   C     C_R   0.657151 0.064222 0.556886 -0.066270
C59   C     C_R   0.670154 0.939536 0.516758 -0.082476
C60   C     C_R   0.329846 0.060464 0.483240 -0.082441
C61   C     C_R   0.816414 0.499798 0.450736 -0.238050
C62   C     C_R   0.183586 0.500202 0.549264 -0.238035
C63   C     C_R   0.316414 0.999798 0.450735 -0.238012
C64   C     C_R   0.683586 0.000202 0.549264 -0.238039
C65   C     C_R   0.066060 0.617067 0.601474 0.439465
C66   C     C_R   0.625768 0.893383 0.429692 0.450121
C67   C     C_R   0.374234 0.106615 0.570304 0.450029
C68   C     C_R   0.433940 0.882932 0.398527 0.439473
C69   C     C_R   0.298677 0.732940 0.323607 0.983495
C70   C     C_R   0.566062 0.117069 0.601464 0.439406
C71   C     C_R   0.720277 0.262018 0.954351 -0.200899
C72   C     C_R   0.279801 0.737929 0.045512 -0.201211
C73   C     C_R   0.279105 0.259721 0.047155 -0.215478
C74   C     C_R   0.720920 0.740282 0.952804 -0.215443
C75   C     C_R   0.220194 0.762098 0.954509 -0.201200
C76   C     C_R   0.779728 0.237980 0.045641 -0.200894
C77   C     C_R   0.779133 0.759655 0.047136 -0.215474
C78   C     C_R   0.220831 0.240337 0.952920 -0.215509
C79   C     C_R   0.708044 0.201839 0.011953 0.316173
C80   C     C_R   0.299309 0.265589 0.323349 0.997542
C81   C     C_R   0.291440 0.798755 0.989037 0.316240
C82   C     C_R   0.293882 0.204573 0.982335 0.310723
C83   C     C_R   0.705960 0.795203 0.017936 0.310542
C84   C     C_R   0.208555 0.701271 0.010982 0.316246
C85   C     C_R   0.791960 0.298160 0.988040 0.316177
C86   C     C_R   0.794091 0.704730 0.982009 0.310592
C87   C     C_R   0.206055 0.295485 0.017739 0.310776
C88   C     C_R   0.737725 0.190050 0.057156 0.617480
C89   C     C_R   0.261684 0.810607 0.943975 0.617258
C90   C     C_R   0.264734 0.195032 0.935747 0.654582
C91   C     C_R   0.700683 0.734430 0.676651 0.997491
C92   C     C_R   0.735079 0.804741 0.064569 0.654749
C93   C     C_R   0.238309 0.689421 0.056047 0.617252
C94   C     C_R   0.762280 0.309948 0.942836 0.617488
C95   C     C_R   0.764972 0.695193 0.935374 0.654831
C96   C     C_R   0.235201 0.305025 0.064330 0.654670
C97   C     C_R   0.643146 0.323346 0.948934 0.320609
C98   C     C_R   0.357075 0.676948 0.050847 0.321178
C99   C     C_R   0.356209 0.322679 0.051892 0.315875
C100  C     C_R   0.643895 0.677170 0.948000 0.315756
C101  C     C_R   0.142903 0.823030 0.949177 0.321154
C102  C     C_R   0.201329 0.767075 0.676392 0.983512
C103  C     C_R   0.856863 0.176664 0.051058 0.320590
C104  C     C_R   0.856177 0.822727 0.051931 0.315711
C105  C     C_R   0.143711 0.177430 0.948184 0.315829
C106  C     C_R   0.615982 0.344858 0.900588 -0.322124
C107  C     C_R   0.384133 0.655293 0.099305 -0.322012
C108  C     C_R   0.383968 0.344193 0.099467 -0.310049
C109  C     C_R   0.616086 0.655732 0.900479 -0.310057
C110  C     C_R   0.115855 0.844694 0.900708 -0.321968
C111  C     C_R   0.884023 0.155147 0.099407 -0.322108
C112  C     C_R   0.883949 0.844222 0.099490 -0.310007
C113  C     C_R   0.798706 0.233006 0.323600 0.983416
C114  C     C_R   0.115993 0.155859 0.900566 -0.310011
C115  C     C_R   0.631847 0.317815 0.815851 0.532343
C116  C     C_R   0.368161 0.682190 0.184138 0.532341
C117  C     C_R   0.368874 0.316335 0.183589 0.503208
C118  C     C_R   0.631133 0.683656 0.816402 0.503201
C119  C     C_R   0.131839 0.817810 0.815865 0.532355
C120  C     C_R   0.868154 0.182186 0.184149 0.532360
C121  C     C_R   0.868873 0.816342 0.183596 0.503199
C122  C     C_R   0.131118 0.183669 0.816412 0.503210
C123  C     C_R   0.678260 0.276778 0.773026 -0.304503
C124  C     C_R   0.799314 0.765577 0.323349 0.997511
C125  C     C_R   0.321690 0.723118 0.226988 -0.304580
C126  C     C_R   0.322661 0.274288 0.226552 -0.305011
C127  C     C_R   0.677329 0.725732 0.773447 -0.305061
C128  C     C_R   0.178323 0.776908 0.773007 -0.304651
C129  C     C_R   0.821738 0.223217 0.226974 -0.304528
C130  C     C_R   0.822673 0.774270 0.226550 -0.305086
C131  C     C_R   0.177336 0.225707 0.773451 -0.305053
C132  C     C_R   0.705297 0.252781 0.820905 0.323359
C133  C     C_R   0.294616 0.747023 0.179121 0.322776
C134  C     C_R   0.295690 0.248939 0.178820 0.371640
C135  C     C_R   0.200694 0.234402 0.676651 0.997564
C136  C     C_R   0.704297 0.751093 0.821177 0.371734
C137  C     C_R   0.205409 0.753029 0.820868 0.322796
C138  C     C_R   0.794698 0.247209 0.179097 0.323365
C139  C     C_R   0.795716 0.748896 0.178809 0.371732
C140  C     C_R   0.204298 0.251067 0.821196 0.371641
C141  C     C_R   0.690715 0.129768 0.537517 0.897061
C142  C     C_R   0.309286 0.870232 0.462481 0.897033
C143  C     C_R   0.303125 0.127328 0.482899 0.909084
C144  C     C_R   0.696874 0.872672 0.517102 0.909054
C145  C     C_R   0.190714 0.629768 0.537519 0.897054
C146  C     C_R   0.906133 0.497424 0.480164 -0.015520
C147  C     C_R   0.809285 0.370232 0.462482 0.897064
C148  C     C_R   0.803125 0.627328 0.482898 0.909057
C149  C     C_R   0.196875 0.372672 0.517100 0.909087
C150  C     C_R   0.688114 0.277733 0.908215 0.065032
C151  C     C_R   0.311958 0.722292 0.091675 0.065047
C152  C     C_R   0.311879 0.275185 0.092348 0.052924
C153  C     C_R   0.688162 0.724769 0.907598 0.052946
C154  C     C_R   0.188042 0.777727 0.908334 0.065064
C155  C     C_R   0.811889 0.222267 0.091780 0.065042
C156  C     C_R   0.811886 0.775167 0.092352 0.052910
Cl1   Cl    Cl    0.185792 0.354753 0.344048 -0.448338
Cl2   Cl    Cl    0.343261 0.860617 0.973651 -0.355274
Cl3   Cl    Cl    0.349012 0.147192 0.958100 -0.341582
Cl4   Cl    Cl    0.650632 0.852297 0.042504 -0.342057
Cl5   Cl    Cl    0.156740 0.639402 0.026355 -0.355281
Cl6   Cl    Cl    0.844424 0.359290 0.971448 -0.356140
Cl7   Cl    Cl    0.849411 0.647626 0.957452 -0.342015
Cl8   Cl    Cl    0.150932 0.352876 0.041961 -0.341557
Cl9   Cl    Cl    0.622417 0.350993 0.060931 -0.440107
Cl10  Cl    Cl    0.378197 0.649919 0.938518 -0.440197
Cl11  Cl    Cl    0.375097 0.353172 0.941478 -0.396910
Cl12  Cl    Cl    0.814208 0.645263 0.655941 -0.448062
Cl13  Cl    Cl    0.625180 0.646407 0.058249 -0.397205
Cl14  Cl    Cl    0.121742 0.850001 0.061538 -0.440297
Cl15  Cl    Cl    0.877604 0.149036 0.939050 -0.440179
Cl16  Cl    Cl    0.874977 0.853362 0.941600 -0.397121
Cl17  Cl    Cl    0.124732 0.147075 0.058684 -0.396842
Cl18  Cl    Cl    0.759971 0.190478 0.776124 -0.451761
Cl19  Cl    Cl    0.239659 0.808887 0.224098 -0.452143
Cl20  Cl    Cl    0.242609 0.183211 0.222809 -0.383683
Cl21  Cl    Cl    0.757306 0.816920 0.777239 -0.383902
Cl22  Cl    Cl    0.260415 0.691241 0.775863 -0.452151
Cl23  Cl    Cl    0.928482 0.324632 0.319971 -0.412728
Cl24  Cl    Cl    0.740012 0.309493 0.223885 -0.451757
Cl25  Cl    Cl    0.742680 0.683104 0.222768 -0.383848
Cl26  Cl    Cl    0.257415 0.316741 0.777181 -0.383611
Cl27  Cl    Cl    0.071519 0.675369 0.680032 -0.412614
Cl28  Cl    Cl    0.685792 0.854739 0.344058 -0.448008
Cl29  Cl    Cl    0.314209 0.145245 0.655952 -0.448276
Cl30  Cl    Cl    0.428481 0.824630 0.319969 -0.412649
Cl31  Cl    Cl    0.571518 0.175369 0.680027 -0.412756
Cl32  Cl    Cl    0.655578 0.140712 0.028550 -0.356150
F1    F     F_    0.102876 0.274923 0.344049 -0.518432
F2    F     F_    0.227060 0.630301 0.109977 -0.559006
F3    F     F_    0.221281 0.359195 0.125683 -0.534512
F4    F     F_    0.779062 0.641227 0.873735 -0.534571
F5    F     F_    0.272933 0.869726 0.890045 -0.559009
F6    F     F_    0.725917 0.131536 0.112147 -0.559479
F7    F     F_    0.720987 0.858706 0.126210 -0.534585
F8    F     F_    0.278656 0.140864 0.874390 -0.534526
F9    F     F_    0.603105 0.334265 0.773097 -0.562853
F10   F     F_    0.396871 0.665707 0.226937 -0.562897
F11   F     F_    0.397970 0.333125 0.225903 -0.594941
F12   F     F_    0.897119 0.725073 0.655969 -0.518330
F13   F     F_    0.602018 0.666892 0.774112 -0.594920
F14   F     F_    0.103127 0.834285 0.773065 -0.562878
F15   F     F_    0.896895 0.165735 0.226903 -0.562836
F16   F     F_    0.897966 0.833142 0.225912 -0.594917
F17   F     F_    0.102046 0.166837 0.774067 -0.594941
F18   F     F_    0.014012 0.269301 0.329677 -0.514456
F19   F     F_    0.985982 0.730693 0.670344 -0.514463
F20   F     F_    0.602879 0.774924 0.344038 -0.518312
F21   F     F_    0.397126 0.225080 0.655942 -0.518409
F22   F     F_    0.514016 0.769304 0.329663 -0.514493
F23   F     F_    0.485991 0.230704 0.670313 -0.514490
F24   F     F_    0.774087 0.368463 0.887845 -0.559465
H1    H     H_    0.781950 0.500672 0.438792 0.207623
H2    H     H_    0.218051 0.499328 0.561206 0.207608
H3    H     H_    0.281949 0.000672 0.438793 0.207617
H4    H     H_    0.718050 0.999328 0.561208 0.207627
O1    O     O_R   0.746490 0.236330 0.638080 -0.589102
O2    O     O_R   0.325830 0.813840 0.483730 -0.595298
O3    O     O_R   0.325830 0.186160 0.483730 -0.599980
O4    O     O_R   0.674170 0.813840 0.516270 -0.600029
O5    O     O_R   0.174170 0.686160 0.516270 -0.595301
O6    O     O_R   0.825830 0.313840 0.483730 -0.595252
O7    O     O_R   0.825830 0.686160 0.483730 -0.600028
O8    O     O_R   0.174170 0.313840 0.516270 -0.599979
O9    O     O_R   0.739960 0.127620 0.525000 -0.629483
O10   O     O_R   0.260040 0.872380 0.475000 -0.629504
O11   O     O_R   0.260040 0.127620 0.475000 -0.634121
O12   O     O_R   0.253510 0.763670 0.361920 -0.589066
O13   O     O_R   0.739960 0.872380 0.525000 -0.634104
O14   O     O_R   0.239960 0.627620 0.525000 -0.629507
O15   O     O_R   0.760040 0.372380 0.475000 -0.629485
O16   O     O_R   0.760040 0.627620 0.475000 -0.634110
O17   O     O_R   0.239960 0.372380 0.525000 -0.634129
O18   O     O_R   0.680700 0.294870 0.629350 -0.532490
O19   O     O_R   0.319300 0.705130 0.370650 -0.532437
O20   O     O_R   0.319300 0.294870 0.370650 -0.561028
O21   O     O_R   0.680700 0.705130 0.629350 -0.561056
O22   O     O_R   0.180700 0.794870 0.629350 -0.532433
O23   O     O_R   0.253510 0.236330 0.361920 -0.555457
O24   O     O_R   0.819300 0.205130 0.370650 -0.532487
O25   O     O_R   0.819300 0.794870 0.370650 -0.561036
O26   O     O_R   0.180700 0.205130 0.629350 -0.561005
O27   O     O_R   0.062020 0.072840 0.007170 -0.572120
O28   O     O_R   0.937980 0.927160 0.992830 -0.572128
O29   O     O_R   0.937980 0.072840 0.992830 -0.575141
O30   O     O_R   0.062020 0.927160 0.007170 -0.575140
O31   O     O_R   0.562020 0.572840 0.007170 -0.572105
O32   O     O_R   0.437980 0.427160 0.992830 -0.572102
O33   O     O_R   0.437980 0.572840 0.992830 -0.575114
O34   O     O_R   0.746490 0.763670 0.638080 -0.555424
O35   O     O_R   0.562020 0.427160 0.007170 -0.575112
O36   O     O_R   0.947860 0.073950 0.109290 -0.554110
O37   O     O_R   0.052140 0.926050 0.890710 -0.554069
O38   O     O_R   0.052140 0.073950 0.890710 -0.559077
O39   O     O_R   0.947860 0.926050 0.109290 -0.559146
O40   O     O_R   0.447860 0.573950 0.109290 -0.554093
O41   O     O_R   0.552140 0.426050 0.890710 -0.554136
O42   O     O_R   0.552140 0.573950 0.890710 -0.559166
O43   O     O_R   0.447860 0.426050 0.109290 -0.559099
O44   O     O_R   0.246490 0.736330 0.638080 -0.589051
O45   O     O_R   0.753510 0.263670 0.361920 -0.589098
O46   O     O_R   0.753510 0.736330 0.361920 -0.555422
O47   O     O_R   0.246490 0.263670 0.638080 -0.555457
O48   O     O_R   0.674170 0.186160 0.516270 -0.595250
Zn1   Zn    Zn3+2 0.792340 0.208750 0.507670 1.172507
Zn2   Zn    Zn3+2 0.494040 0.500000 0.919480 1.239716
Zn3   Zn    Zn3+2 0.005960 0.000000 0.080520 1.239708
Zn4   Zn    Zn3+2 0.994040 0.000000 0.919480 1.239722
Zn5   Zn    Zn3+2 0.207660 0.791250 0.492330 1.172449
Zn6   Zn    Zn3+2 0.207660 0.208750 0.492330 1.177393
Zn7   Zn    Zn3+2 0.792340 0.791250 0.507670 1.177351
Zn8   Zn    Zn3+2 0.292340 0.708750 0.507670 1.172454
Zn9   Zn    Zn3+2 0.707660 0.291250 0.492330 1.172506
Zn10  Zn    Zn3+2 0.707660 0.708750 0.492330 1.177341
Zn11  Zn    Zn3+2 0.292340 0.291250 0.507670 1.177378
Zn12  Zn    Zn3+2 0.505960 0.500000 0.080520 1.239732

loop_
_geom_bond_atom_site_label_1
_geom_bond_atom_site_label_2
_ccdc_geom_bond_type
C100  C153  A    
C138  C155  A    
C145  O14   A    
C77   C92   A    
C94   F24   S    
C136  C153  A    
C31   C42   A    
C123  C132  A    
C27   C29   A    
C34   C37   A    
C24   C42   A    
C6    C111  S    
C80   O20   A    
C6    O29   A    
C26   F19   S    
C133  C151  A    
O10   Zn5   S    
C4    O38   A    
C74   C83   A    
C92   F7    S    
C138  Cl24  S    
C53   C145  S    
C14   C33   A    
C13   C41   A    
C86   Cl7   S    
C44   C65   A    
C19   C46   A    
C71   C94   A    
C93   F2    S    
C3    C105  A    
C16   C31   A    
C135  O47   A    
C83   C92   A    
C115  F9    S    
C7    O30   A    
O38   Zn4   S    
C59   C64   A    
C28   F12   S    
O18   Zn9   S    
C134  Cl20  S    
C20   C29   A    
C60   C63   A    
C10   O40   A    
C17   C26   A    
O26   Zn6   S    
C96   F3    S    
C4    C114  S    
C148  O7    A    
O27   Zn3   S    
C43   C52   A    
C144  O4    A    
C37   C40   A    
C102  C128  S    
C52   C61   A    
C77   C156  S    
C38   C39   A    
C75   C84   A    
C71   C150  S    
C145  O5    A    
O17   Zn11  S    
C22   F22   S    
C134  C152  A    
C16   C25   A    
O29   Zn4   S    
C132  C150  A    
O15   Zn9   S    
C103  C111  A    
C85   C94   A    
C9    O32   A    
C142  O2    A    
C124  O25   A    
C12   C70   A    
C131  C140  A    
C18   C57   A    
O12   Zn5   S    
C13   C51   A    
C20   C35   A    
C147  O15   A    
C44   C53   A    
C113  O24   A    
C76   C85   A    
C137  Cl22  S    
O21   Zn10  S    
C8    O31   A    
C2    C44   A    
C22   C25   A    
C135  O26   A    
C69   O19   A    
C97   C150  A    
C31   C33   A    
C1    C123  S    
C9    O43   A    
C148  O16   A    
C149  O8    A    
C26   C28   A    
C25   F20   S    
C140  Cl26  S    
C117  C126  A    
C76   C88   A    
C4    O27   A    
C72   C81   A    
C117  F11   S    
C104  Cl16  S    
C56   C142  S    
C119  C128  A    
C15   C23   A    
C87   Cl8   S    
C47   C146  A    
C68   Cl30  S    
C100  C109  A    
C2    C45   A    
C105  Cl17  S    
C12   C32   A    
C103  Cl15  S    
C85   Cl6   S    
C62   H2    S    
C122  F17   S    
C10   C107  S    
C119  F14   S    
C61   H1    S    
O34   Zn7   S    
C130  C139  A    
C74   C95   A    
C84   Cl5   S    
O9    Zn1   S    
C79   C88   A    
C109  C118  A    
C142  O10   A    
C54   C149  S    
C99   Cl11  S    
C98   C151  A    
O37   Zn4   S    
C141  O9    A    
O46   Zn10  S    
C102  O22   A    
O19   Zn8   S    
C115  C123  A    
C79   Cl32  S    
C83   Cl4   S    
O4    Zn10  S    
C120  C129  A    
C88   F6    S    
C105  C114  A    
C36   C40   A    
C127  C136  A    
C104  C112  A    
O6    Zn1   S    
C43   C57   A    
C132  Cl18  S    
C23   F21   S    
C58   C64   A    
C101  C110  A    
C18   C38   A    
C143  O3    A    
C136  Cl21  S    
C11   O35   A    
C71   C79   A    
C34   C39   A    
C74   C153  S    
C111  C120  A    
C9    C108  S    
O20   Zn11  S    
C20   C36   A    
O33   Zn2   S    
O44   Zn8   S    
O22   Zn5   S    
C128  C137  A    
C35   Cl1   S    
O7    Zn7   S    
C99   C108  A    
O16   Zn10  S    
C116  F10   S    
C53   C62   A    
C144  O13   A    
O36   Zn3   S    
C18   C27   A    
C124  O46   A    
C1    O18   A    
C72   C151  S    
C15   C67   A    
C87   C96   A    
C91   O21   A    
C11   C106  S    
O3    Zn11  S    
C12   C21   A    
C56   C63   A    
C124  C130  S    
C101  Cl14  S    
C30   C41   A    
C121  C130  A    
C113  O45   A    
O35   Zn12  S    
C19   C28   A    
C133  Cl19  S    
C24   C50   A    
C126  C134  A    
C98   Cl10  S    
C147  O6    A    
C91   C127  S    
C70   Cl31  S    
C72   C93   A    
C95   F4    S    
C90   F8    S    
C103  C155  A    
C39   C146  A    
C59   C144  S    
C52   C147  S    
O47   Zn11  S    
C116  C125  A    
C21   C23   A    
C73   C152  S    
O43   Zn12  S    
C129  C138  A    
O1    Zn1   S    
C29   F1    S    
C104  C156  A    
C118  F13   S    
C16   C66   A    
C118  C127  A    
C50   C59   A    
O30   Zn3   S    
C35   C45   A    
C69   O12   A    
C11   O41   A    
C122  C131  A    
C73   C96   A    
O5    Zn5   S    
C80   O23   A    
C15   C30   A    
C47   C55   A    
C65   Cl27  S    
C125  C133  A    
C24   C49   A    
C48   C56   A    
C66   Cl28  S    
C46   C47   A    
C32   C42   A    
C81   Cl2   S    
O23   Zn6   S    
C100  Cl13  S    
O45   Zn9   S    
C17   C65   A    
C108  C117  A    
C64   H4    S    
O41   Zn2   S    
C2    C40   A    
C121  F16   S    
C143  O11   A    
C48   C68   A    
C19   C34   A    
C139  Cl25  S    
C110  C119  A    
C77   C86   A    
C13   C48   A    
C57   Cl23  S    
C50   C66   A    
C51   C60   A    
C5    C112  S    
C17   C37   A    
C54   C62   A    
C99   C152  A    
C76   C155  S    
C131  C135  S    
O48   Zn9   S    
C82   C90   A    
C49   C58   A    
C6    O36   A    
C106  C115  A    
C49   C70   A    
C10   O33   A    
C33   C41   A    
C27   F18   S    
C36   C38   A    
C46   Cl12  S    
C81   C89   A    
C112  C121  A    
C60   C143  S    
C43   C146  A    
C8    C109  S    
C89   F5    S    
C30   C32   A    
C82   Cl3   S    
O13   Zn7   S    
C58   C141  S    
C14   C22   A    
C55   C148  S    
C51   C67   A    
C80   C126  S    
C101  C154  A    
C78   C90   A    
C97   Cl9   S    
C55   C61   A    
C75   C154  S    
C141  O48   A    
C45   C54   A    
C102  O44   A    
C73   C82   A    
O14   Zn8   S    
C78   C87   A    
C84   C93   A    
C5    O28   A    
C8    O42   A    
C5    O39   A    
O24   Zn1   S    
O11   Zn6   S    
C149  O17   A    
C107  C116  A    
O2    Zn8   S    
C86   C95   A    
C75   C89   A    
C69   C125  S    
C114  C122  A    
C21   F23   S    
O42   Zn2   S    
O32   Zn2   S    
O39   Zn3   S    
C139  C156  A    
C7    O37   A    
C120  F15   S    
C14   C68   A    
O40   Zn12  S    
C1    O1    A    
C3    C140  A    
O25   Zn7   S    
O8    Zn6   S    
O28   Zn4   S    
O31   Zn12  S    
C113  C129  S    
C3    C78   S    
C137  C154  A    
C63   H3    S    
C7    C110  S    
C67   Cl29  S    
C98   C107  A    
C91   O34   A    
C97   C106  A    
