data_mof_unit_7798.cif
_audit_creation_date              2012-12-10T17:07:14-0500
_audit_creation_method            fapswitch 2.2
_symmetry_space_group_name_H-M    P1
_symmetry_Int_Tables_number       1
_space_group_crystal_system       triclinic
_cell_length_a                    17.398194
_cell_length_b                    11.09601
_cell_length_c                    9.776121
_cell_angle_alpha                 111.229079
_cell_angle_beta                  94.018732
_cell_angle_gamma                 91.718354
_cell_volume                      1751.77559039

loop_
_atom_site_label
_atom_site_type_symbol
_atom_type_description
_atom_site_fract_x
_atom_site_fract_y
_atom_site_fract_z
_atom_type_partial_charge
C1    C     C_R   0.495750 0.254695 0.441476 0.900989
C2    C     C_R   0.647947 0.493772 0.478564 0.900732
C3    C     C_R   0.269174 0.510762 0.532377 -0.239194
C4    C     C_R   0.731164 0.487699 0.463765 -0.261580
C5    C     C_R   0.221029 0.418152 0.418527 0.381481
C6    C     C_R   0.781856 0.571023 0.582012 0.397036
C7    C     C_R   0.141696 0.432045 0.410702 -0.238655
C8    C     C_R   0.861480 0.566557 0.570435 -0.238729
C9    C     C_R   0.109874 0.537927 0.513732 0.046625
C10   C     C_R   0.890876 0.475387 0.448234 0.037827
C11   C     C_R   0.157611 0.628287 0.627968 -0.242401
C12   C     C_R   0.504108 0.745337 0.558554 0.897107
C13   C     C_R   0.840918 0.391262 0.333695 -0.252504
C14   C     C_R   0.237164 0.615669 0.640087 0.310460
C15   C     C_R   0.761146 0.396296 0.338531 0.378092
C16   C     C_2   0.026705 0.556804 0.506554 -0.165794
C17   C     C_2   0.973869 0.458252 0.443081 -0.162400
C18   C     C_3   0.242228 0.300801 0.177847 0.048458
C19   C     C_3   0.289124 0.191637 0.083705 -0.294839
C20   C     C_3   0.281998 0.179180 0.922581 -0.859667
C21   C     C_3   0.782695 0.660209 0.839416 0.097866
C22   C     C_3   0.765633 0.530030 0.857551 -0.399636
C23   C     C_2   0.492548 0.116669 0.409678 -0.414656
C24   C     C_3   0.795758 0.535396 0.010233 -0.859309
C25   C     C_3   0.374138 0.870465 0.339583 0.063458
C26   C     C_3   0.329273 0.746756 0.330457 -0.278221
C27   C     C_3   0.242440 0.755679 0.305589 -0.922474
C28   C     C_3   0.623553 0.175975 0.649812 0.094598
C29   C     C_3   0.673691 0.083954 0.696206 -0.358639
C30   C     C_3   0.759206 0.125664 0.711265 -0.822398
C31   C     C_2   0.508204 0.883339 0.590256 -0.356951
C32   C     C_2   0.511211 0.068155 0.514657 0.361752
C33   C     C_2   0.489156 0.931944 0.485961 0.366603
C34   C     C_2   0.505947 0.510852 0.080912 0.025556
C35   C     C_2   0.493994 0.489304 0.919191 0.011587
C36   C     C_R   0.352197 0.504691 0.520857 0.888127
Cu1   Cu    Cu3+1 0.513640 0.521550 0.643210 1.021051
Cu2   Cu    Cu3+1 0.486360 0.478450 0.356790 0.997019
H1    H     H_    0.990798 0.360248 0.388774 0.148793
H2    H     H_    0.549953 0.583009 0.149158 0.169410
H3    H     H_    0.574992 0.622922 0.925931 0.196730
H4    H     H_    0.425009 0.377414 0.073880 0.187882
H5    H     H_    0.263000 0.393517 0.168833 0.146962
H6    H     H_    0.180625 0.278596 0.134155 0.137597
H7    H     H_    0.350821 0.210588 0.126852 0.230639
H8    H     H_    0.268364 0.098631 0.090961 0.256011
H9    H     H_    0.220975 0.155453 0.875949 0.260875
H10   H     H_    0.317552 0.100296 0.858181 0.295310
H11   H     H_    0.302672 0.270911 0.912266 0.226075
H12   H     H_    0.008637 0.654399 0.560239 0.148062
H13   H     H_    0.754932 0.736196 0.926771 0.175919
H14   H     H_    0.845304 0.688813 0.860582 0.125356
H15   H     H_    0.702434 0.506362 0.842051 0.241693
H16   H     H_    0.793639 0.451257 0.773890 0.210078
H17   H     H_    0.858787 0.561345 0.029918 0.248827
H18   H     H_    0.785546 0.439111 0.018264 0.292739
H19   H     H_    0.765384 0.607845 0.096530 0.258109
H20   H     H_    0.608888 0.140483 0.173223 0.376221
H21   H     H_    0.295305 0.626409 0.932759 0.325174
H22   H     H_    0.358942 0.888935 0.236869 0.194274
H23   H     H_    0.132249 0.708844 0.708161 0.184297
H24   H     H_    0.355165 0.954505 0.432480 0.127358
H25   H     H_    0.348194 0.662801 0.238644 0.236895
H26   H     H_    0.341558 0.730552 0.435035 0.233769
H27   H     H_    0.221974 0.837416 0.397771 0.271620
H28   H     H_    0.212080 0.664423 0.300396 0.250195
H29   H     H_    0.228101 0.769993 0.200186 0.273033
H30   H     H_    0.637478 0.276156 0.729917 0.189508
H31   H     H_    0.638790 0.175743 0.540696 0.151066
H32   H     H_    0.657362 0.082760 0.803639 0.272722
H33   H     H_    0.664072 0.984405 0.612362 0.204239
H34   H     H_    0.864837 0.320494 0.240594 0.187159
H35   H     H_    0.776961 0.127885 0.605194 0.243762
H36   H     H_    0.794038 0.055829 0.742348 0.270111
H37   H     H_    0.770921 0.223210 0.798303 0.268158
H38   H     H_    0.900557 0.632120 0.658063 0.138547
H39   H     H_    0.105756 0.360188 0.322825 0.138365
H40   H     H_    0.531137 0.945656 0.700253 0.165395
H41   H     H_    0.470613 0.054130 0.299129 0.158109
H42   H     H_    0.449994 0.417108 0.850965 0.162760
N1    N     N_2   0.465840 0.446060 0.141630 -0.295137
N2    N     N_2   0.534160 0.553940 0.858370 -0.283285
O1    O     O_R   0.507280 0.332200 0.576490 -0.563980
O2    O     O_3   0.751412 0.662317 0.702141 -0.598878
O3    O     O_2   0.658478 0.345375 0.103360 -0.304184
O4    O     O_2   0.751009 0.181025 0.091700 -0.328186
O5    O     O_3   0.639843 0.202865 0.260452 -0.568103
O6    O     O_2   0.354253 0.797096 0.728605 -0.301260
O7    O     O_2   0.244756 0.838009 0.878989 -0.330128
O8    O     O_3   0.337844 0.665272 0.897092 -0.503105
O9    O     O_3   0.454598 0.853185 0.348365 -0.600817
O10   O     O_3   0.544110 0.145872 0.654301 -0.605278
O11   O     O_R   0.492720 0.667800 0.423510 -0.559871
O12   O     O_R   0.484240 0.295800 0.334620 -0.566396
O13   O     O_R   0.515760 0.704200 0.665380 -0.542834
O14   O     O_R   0.399260 0.520290 0.634950 -0.525640
O15   O     O_R   0.600740 0.479710 0.365050 -0.528312
O16   O     O_R   0.376220 0.483890 0.393080 -0.603008
O17   O     O_R   0.623780 0.516110 0.606920 -0.581959
O18   O     O_3   0.251825 0.307305 0.325182 -0.603225
S1    S     S_3+6 0.702350 0.279435 0.191527 -0.031070
S2    S     S_3+6 0.293913 0.734776 0.788188 -0.013528

loop_
_geom_bond_atom_site_label_1
_geom_bond_atom_site_label_2
_ccdc_geom_bond_type
O7    S2    D    
C28   H31   S    
Cu1   O17   S    
Cu2   O16   S    
H20   O5    S    
C19   H8    S    
C22   H16   S    
C24   H17   S    
C26   C27   S    
C20   H11   S    
C34   H2    S    
C28   C29   S    
C28   H30   S    
Cu1   Cu2   S    
C16   H12   S    
C18   C19   S    
C33   O9    S    
C30   H36   S    
C11   C14   A    
C14   S2    S    
C10   C17   S    
C35   H42   S    
C8    H38   S    
Cu1   O13   S    
C34   C35   S    
C17   H1    S    
C26   H26   S    
O8    S2    S    
O5    S1    S    
C19   C20   S    
C2    O15   A    
C16   C17   D    
C31   C33   D    
C12   O13   A    
C25   H22   S    
C7    H39   S    
C21   C22   S    
H4    N1    S    
C18   O18   S    
Cu2   O15   S    
C35   N2    D    
C22   H15   S    
C25   O9    S    
C6    O2    S    
C4    C6    A    
C5    C7    A    
C30   H35   S    
C1    O12   A    
C6    C8    A    
C3    C5    A    
C25   C26   S    
Cu1   O14   S    
H21   O8    S    
C2    C4    S    
C26   H25   S    
C29   C30   S    
C27   H27   S    
C18   H6    S    
C36   O14   A    
C21   O2    S    
Cu2   O12   S    
C28   O10   S    
C15   S1    S    
C9    C11   A    
C20   H10   S    
C3    C14   A    
C34   N1    D    
C2    O17   A    
C1    C23   S    
C13   C15   A    
C12   C31   S    
C22   C24   S    
C12   O11   A    
C1    O1    A    
C21   H13   S    
O3    S1    D    
C31   H40   S    
C29   H32   S    
C24   H19   S    
C5    O18   S    
C7    C9    A    
C9    C16   S    
C11   H23   S    
C10   C13   A    
O6    S2    D    
C19   H7    S    
C13   H34   S    
C24   H18   S    
C23   C32   D    
C4    C15   A    
Cu2   N1    S    
C27   H28   S    
C18   H5    S    
C32   C33   S    
C30   H37   S    
C32   O10   S    
C3    C36   S    
H3    N2    S    
Cu2   O11   S    
C25   H24   S    
Cu1   N2    S    
C20   H9    S    
C27   H29   S    
C8    C10   A    
Cu1   O1    S    
C36   O16   A    
C23   H41   S    
O4    S1    D    
C21   H14   S    
C29   H33   S    
