data_mof_unit_23722.cif
_audit_creation_date              2013-03-05T15:55:17-0500
_audit_creation_method            fapswitch 2.2
_symmetry_space_group_name_H-M    P1
_symmetry_Int_Tables_number       1
_space_group_crystal_system       triclinic
_cell_length_a                    14.734502
_cell_length_b                    14.822066
_cell_length_c                    33.47848
_cell_angle_alpha                 96.010578
_cell_angle_beta                  96.33245
_cell_angle_gamma                 61.267612
_cell_volume                      6360.98409402

loop_
_atom_site_label
_atom_site_type_symbol
_atom_site_description
_atom_site_fract_x
_atom_site_fract_y
_atom_site_fract_z
_atom_type_partial_charge
O1    O     O_R   0.679450 0.499830 0.463150 -0.564361
O2    O     O_R   0.480650 0.664000 0.464630 -0.536000
C1    C     C_R   0.391853 0.697563 0.445528 0.811800
O3    O     O_R   0.323930 0.675950 0.455370 -0.547599
O4    O     O_R   0.354700 0.475360 0.451930 -0.548445
C2    C     C_R   0.406437 0.386445 0.433706 0.819687
O5    O     O_R   0.494470 0.320860 0.448390 -0.497902
O6    O     O_R   0.662580 0.357570 0.460050 -0.521865
C3    C     C_R   0.700005 0.411752 0.447315 0.761414
O7    O     O_R   0.680900 0.502040 0.551870 -0.511558
O8    O     O_R   0.481990 0.666040 0.546870 -0.501971
C4    C     C_R   0.393151 0.703478 0.560970 0.884819
O9    O     O_R   0.325370 0.678160 0.544080 -0.519911
O10   O     O_R   0.356040 0.477400 0.534170 -0.553043
C5    C     C_R   0.407002 0.389616 0.549205 0.758654
O11   O     O_R   0.495910 0.323070 0.537100 -0.544467
O12   O     O_R   0.663920 0.359620 0.542290 -0.550759
C6    C     C_R   0.703168 0.412237 0.562807 0.813878
Cr1   Cr    Cr6+3 0.576280 0.580550 0.506370 1.020237
Cr2   Cr    Cr6+3 0.346780 0.572400 0.496520 0.954044
Cr3   Cr    Cr6+3 0.576960 0.347070 0.497150 0.981296
O13   O     O_3   0.500010 0.500010 0.500010 -0.349334
H1    H     H_    0.414692 0.163983 0.192248 0.125804
H2    H     H_    0.439370 0.187940 0.311971 0.164154
C7    C     C_R   0.368364 0.363153 0.392914 -0.184035
C8    C     C_R   0.276108 0.440382 0.374789 -0.216812
C9    C     C_R   0.245034 0.427803 0.334544 -0.122206
C10   C     C_R   0.304265 0.336896 0.312019 0.052404
C11   C     C_R   0.392403 0.257352 0.329953 -0.169899
C12   C     C_R   0.426373 0.269275 0.369866 0.396921
C13   C     C_R   0.357934 0.220798 0.172387 -0.124485
C14   C     C_R   0.364983 0.208188 0.130427 0.049063
C15   C     C_R   0.210312 0.381223 0.124801 0.089966
C16   C     C_R   0.205316 0.384668 0.166824 -0.140928
C17   C     C_R   0.277321 0.305969 0.190038 0.057416
C18   C     C_1   0.277516 0.318929 0.233139 -0.016706
C19   C     C_1   0.284767 0.328641 0.269265 -0.002969
C20   C     C_R   0.286363 0.286754 0.105123 -0.116624
H3    H     H_    0.230255 0.513010 0.391142 0.155779
H4    H     H_    0.148520 0.452930 0.182624 0.128542
H5    H     H_    0.177239 0.490517 0.320599 0.131314
N1    N     N_R   0.782638 0.394098 0.225148 -0.265752
N2    N     N_R   0.773462 0.403647 0.264572 -0.256339
C21   C     C_R   0.755587 0.380667 0.409834 -0.102874
C22   C     C_R   0.777128 0.450113 0.390582 0.086242
C23   C     C_R   0.805534 0.424651 0.350785 -0.114613
C24   C     C_R   0.815090 0.333720 0.330562 -0.020123
C25   C     C_R   0.805390 0.261531 0.350826 -0.118047
C26   C     C_R   0.775866 0.284956 0.390224 -0.131094
N3    N     N_R   0.887270 0.227529 0.269375 -0.284654
N4    N     N_R   0.897287 0.218379 0.229925 -0.304702
C27   C     C_R   0.844564 0.301191 0.207001 0.522278
C28   C     C_R   0.825661 0.320700 0.287292 0.522852
C29   C     C_R   0.852999 0.379723 0.147128 -0.207036
C30   C     C_R   0.876012 0.375781 0.107561 0.402913
C31   C     C_R   0.909415 0.196541 0.099207 -0.210546
C32   C     C_R   0.881888 0.202060 0.138917 0.098923
C33   C     C_R   0.859784 0.293163 0.163626 -0.080931
C34   C     C_R   0.911088 0.280962 0.083679 -0.193944
H6    H     H_    0.763799 0.230059 0.404721 0.192803
H7    H     H_    0.816896 0.476950 0.334295 0.139302
H8    H     H_    0.814011 0.190097 0.335406 0.155276
H9    H     H_    0.830965 0.451224 0.165535 0.193789
H10   H     H_    0.933301 0.125348 0.080492 0.138702
N5    N     N_R   0.312543 0.756153 0.216063 -0.292817
N6    N     N_R   0.319063 0.746092 0.255450 -0.292126
C35   C     C_R   0.375892 0.743404 0.406653 -0.099613
C36   C     C_R   0.290373 0.755601 0.380397 -0.139940
C37   C     C_R   0.286865 0.774147 0.340309 -0.186888
C38   C     C_R   0.368623 0.780878 0.325298 -0.099991
C39   C     C_R   0.453002 0.774385 0.352019 0.407827
C40   C     C_R   0.454562 0.757366 0.392636 -0.217190
N7    N     N_R   0.399577 0.850120 0.267209 -0.197334
N8    N     N_R   0.393934 0.859424 0.227761 -0.271331
C41   C     C_R   0.350664 0.812281 0.201470 0.519512
C42   C     C_R   0.363121 0.792396 0.281769 0.582579
C43   C     C_R   0.253672 0.827207 0.134617 -0.135530
C44   C     C_R   0.230684 0.859483 0.095075 0.083638
C45   C     C_R   0.383336 0.886285 0.102332 -0.176362
C46   C     C_R   0.404754 0.854107 0.141362 -0.118743
C47   C     C_R   0.337711 0.828901 0.158302 -0.005015
C48   C     C_R   0.293323 0.896887 0.079861 -0.084695
H11   H     H_    0.228457 0.745277 0.390200 0.149344
H12   H     H_    0.520749 0.748686 0.412710 0.157049
H13   H     H_    0.220682 0.780785 0.320619 0.156474
H14   H     H_    0.202598 0.807341 0.148076 0.130310
H15   H     H_    0.434693 0.907727 0.090296 0.132740
H16   H     H_    0.472103 0.852183 0.158808 0.148201
N9    N     N_R   0.251021 0.431695 0.768674 -0.279004
N10   N     N_R   0.256643 0.434466 0.729385 -0.284732
C49   C     C_R   0.371347 0.372563 0.586105 -0.088474
C50   C     C_R   0.276707 0.446578 0.603356 0.063228
C51   C     C_R   0.263777 0.436935 0.643493 -0.122961
C52   C     C_R   0.339441 0.355581 0.665690 -0.029303
C53   C     C_R   0.426525 0.278727 0.646987 -0.096179
C54   C     C_R   0.442077 0.286963 0.607766 -0.147087
N11   N     N_R   0.398086 0.268242 0.728895 -0.253782
N12   N     N_R   0.392675 0.265561 0.768045 -0.256861
C55   C     C_R   0.319538 0.347131 0.788698 0.545173
C56   C     C_R   0.330174 0.352563 0.708781 0.529906
C57   C     C_R   0.220242 0.401014 0.850486 -0.127839
C58   C     C_R   0.210289 0.380099 0.888930 -0.213227
C59   C     C_R   0.389449 0.241146 0.890942 0.400972
C60   C     C_R   0.398140 0.264281 0.852819 -0.169840
C61   C     C_R   0.312962 0.340224 0.831618 -0.053877
C62   C     C_R   0.292525 0.297529 0.909015 -0.182475
H17   H     H_    0.513749 0.228748 0.595411 0.159276
H18   H     H_    0.135636 0.424447 0.901746 0.154731
H19   H     H_    0.196352 0.494205 0.658413 0.141200
H20   H     H_    0.485899 0.214357 0.663297 0.190131
H21   H     H_    0.153409 0.460516 0.834649 0.156830
H22   H     H_    0.470974 0.217698 0.838800 0.192167
H23   H     H_    0.886500 0.155149 0.884568 0.173742
C63   C     C_R   0.754872 0.379120 0.604104 -0.258848
C64   C     C_R   0.766151 0.453762 0.631992 0.164162
C65   C     C_R   0.784330 0.439600 0.673613 0.281389
C66   C     C_R   0.792274 0.350148 0.688009 -0.214213
C67   C     C_R   0.787385 0.272795 0.661234 0.345665
C68   C     C_R   0.775251 0.282546 0.618946 -0.061461
C69   C     C_R   0.843089 0.230627 0.828431 0.394858
C70   C     C_R   0.878424 0.219826 0.869394 -0.254793
C71   C     C_R   0.892676 0.376273 0.871757 -0.140542
C72   C     C_R   0.857929 0.388440 0.831469 -0.173189
C73   C     C_R   0.836030 0.315155 0.809227 -0.034289
C74   C     C_1   0.815694 0.326272 0.766493 0.119005
C75   C     C_1   0.803231 0.337555 0.730802 0.216894
C76   C     C_R   0.906844 0.289842 0.890771 -0.100941
H24   H     H_    0.852296 0.453493 0.817146 0.179879
H25   H     H_    0.913478 0.432269 0.887393 0.152130
H26   H     H_    0.431823 0.912082 0.896177 0.193695
H27   H     H_    0.476275 0.871649 0.826802 0.160942
H28   H     H_    0.521809 0.810211 0.680268 0.206995
C77   C     C_R   0.377089 0.763099 0.601009 -0.299477
C78   C     C_R   0.287801 0.789410 0.622084 0.363265
C79   C     C_R   0.289290 0.814197 0.663639 -0.206225
C80   C     C_R   0.374861 0.817355 0.684481 -0.033399
C81   C     C_R   0.458309 0.802006 0.663781 -0.142517
C82   C     C_R   0.459418 0.778677 0.621979 0.331815
C83   C     C_R   0.400046 0.886619 0.833891 -0.114606
C84   C     C_R   0.374324 0.909768 0.873555 -0.152213
C85   C     C_R   0.200683 0.928757 0.853094 0.066830
C86   C     C_R   0.228791 0.901560 0.811842 0.100030
C87   C     C_R   0.329179 0.883297 0.803486 0.042401
C88   C     C_1   0.360019 0.859561 0.762609 -0.029211
C89   C     C_1   0.372852 0.840250 0.727212 0.042893
C90   C     C_R   0.275930 0.932722 0.884201 -0.128807
H29   H     H_    0.222518 0.832095 0.680033 0.169088
O14   O     O_R   0.170070 0.978950 0.027680 -0.564103
O15   O     O_R   0.001760 0.175230 0.026640 -0.544244
C91   C     C_R   0.964384 0.263954 0.046064 0.839018
O16   O     O_R   0.984760 0.333570 0.037150 -0.525504
O17   O     O_R   0.183410 0.309240 0.041890 -0.555116
C92   C     C_R   0.272212 0.258740 0.060901 0.750033
O18   O     O_R   0.340240 0.172500 0.045430 -0.553658
O19   O     O_R   0.309670 0.000990 0.032050 -0.535603
C93   C     C_R   0.258669 0.958710 0.043634 0.760703
O20   O     O_R   0.168330 0.982130 0.939200 -0.558491
O21   O     O_R   0.000140 0.178170 0.944610 -0.547846
C94   C     C_R   0.962547 0.268097 0.930918 0.808069
O22   O     O_R   0.983010 0.336750 0.948660 -0.542741
O23   O     O_R   0.181800 0.312190 0.959860 -0.548965
C95   C     C_R   0.271320 0.262775 0.945066 0.808427
O24   O     O_R   0.338500 0.175680 0.956950 -0.499766
O25   O     O_R   0.308050 0.003930 0.950020 -0.518712
C96   C     C_R   0.250800 0.972697 0.927040 0.781213
Cr4   Cr    Cr6+3 0.087320 0.083240 0.984860 0.915694
Cr5   Cr    Cr6+3 0.087720 0.316210 0.996740 0.939469
Cr6   Cr    Cr6+3 0.317350 0.090340 0.995890 0.989658
O26   O     O_3   0.164130 0.163270 0.992500 -0.338091
C97   C     C_3   0.455143 0.110056 0.113043 -0.321107
C98   C     C_3   0.539465 0.036368 0.142673 -0.369698
C99   C     C_3   0.625447 0.946217 0.120032 -0.732386
H30   H     H_    0.593369 0.904663 0.098596 0.232928
H31   H     H_    0.665970 0.974720 0.102885 0.234693
H32   H     H_    0.682328 0.890863 0.141751 0.238460
H33   H     H_    0.574544 0.077927 0.162605 0.210126
H34   H     H_    0.504747 0.004409 0.161271 0.208617
H35   H     H_    0.422198 0.063505 0.095844 0.206801
H36   H     H_    0.494157 0.133321 0.092712 0.201785
N13   N     N_R   0.863265 0.468669 0.092483 0.063312
O27   O     O_R   0.878614 0.535192 0.117011 -0.410139
O28   O     O_R   0.813681 0.497686 0.057454 -0.377093
C100  C     C_3   0.876781 0.113232 0.156159 -0.321634
C101  C     C_3   0.869263 0.033250 0.125531 -0.363360
C102  C     C_3   0.859149 0.952286 0.146679 -0.742482
H37   H     H_    0.926026 0.914637 0.169058 0.234514
H38   H     H_    0.786010 0.988712 0.162458 0.241291
H39   H     H_    0.858042 0.892021 0.124280 0.225064
H40   H     H_    0.802147 0.070321 0.103206 0.211554
H41   H     H_    0.941497 0.995206 0.109968 0.209942
H42   H     H_    0.947468 0.072788 0.176807 0.205318
H43   H     H_    0.806396 0.145986 0.173773 0.194647
C103  C     C_3   0.134628 0.865567 0.070371 -0.332197
C104  C     C_3   0.079625 0.807740 0.081565 -0.377802
C105  C     C_3   0.983350 0.835208 0.051869 -0.740815
H44   H     H_    0.938871 0.919657 0.047540 0.222680
H45   H     H_    0.007501 0.794886 0.021842 0.228836
H46   H     H_    0.928233 0.814305 0.062943 0.223713
H47   H     H_    0.132409 0.723385 0.079072 0.210044
H48   H     H_    0.055324 0.829432 0.112810 0.206081
H49   H     H_    0.076190 0.948574 0.070516 0.193657
H50   H     H_    0.157521 0.834766 0.039235 0.205016
N14   N     N_R   0.539997 0.778945 0.338396 0.083782
O29   O     O_R   0.585551 0.823591 0.361569 -0.363831
O30   O     O_R   0.582936 0.726688 0.305652 -0.364746
C106  C     C_3   0.193949 0.537731 0.580187 -0.332185
C107  C     C_3   0.085874 0.595075 0.597056 -0.305897
C108  C     C_3   0.007213 0.676459 0.568873 -0.628398
H51   H     H_    0.035988 0.729716 0.561812 0.269929
H52   H     H_    0.991811 0.639068 0.540199 0.201025
H53   H     H_    0.933013 0.722599 0.583701 0.238836
H54   H     H_    0.057604 0.539444 0.601083 0.203703
H55   H     H_    0.090034 0.634932 0.626692 0.238730
H56   H     H_    0.222775 0.594278 0.579120 0.242163
H57   H     H_    0.183290 0.508637 0.548960 0.178886
N15   N     N_R   0.477234 0.154456 0.908564 0.100443
O31   O     O_R   0.477797 0.065739 0.905365 -0.372142
O32   O     O_R   0.566089 0.155005 0.914527 -0.359723
N16   N     N_R   0.817137 0.154775 0.807487 0.082538
O33   O     O_R   0.827861 0.077160 0.826283 -0.389856
O34   O     O_R   0.777010 0.164874 0.770461 -0.313789
N17   N     N_R   0.794640 0.183443 0.677689 0.105026
O35   O     O_R   0.716145 0.164425 0.673446 -0.359420
O36   O     O_R   0.878384 0.123940 0.699174 -0.376143
C109  C     C_3   0.780526 0.189404 0.591833 -0.291709
C110  C     C_3   0.887570 0.091759 0.594701 -0.289278
C111  C     C_3   0.882340 0.000429 0.570471 -0.660717
H58   H     H_    0.821688 0.986480 0.581506 0.239725
H59   H     H_    0.863397 0.016121 0.537942 0.215415
H60   H     H_    0.958386 0.929610 0.573856 0.279642
H61   H     H_    0.946647 0.105956 0.582406 0.201761
H62   H     H_    0.914882 0.069461 0.626120 0.260763
H63   H     H_    0.718074 0.173458 0.599789 0.212223
H64   H     H_    0.766013 0.200256 0.559133 0.192391
N18   N     N_R   0.751758 0.549101 0.618801 -0.109099
O37   O     O_R   0.824172 0.552481 0.600799 -0.000400
O38   O     O_R   0.824089 0.552463 0.600820 -0.000400
N19   N     N_R   0.524230 0.188688 0.384651 0.101464
O39   O     O_R   0.539996 0.093704 0.381474 -0.338615
O40   O     O_R   0.604562 0.204624 0.389063 -0.382343
N20   N     N_R   0.791098 0.518349 0.701365 0.114269
O41   O     O_R   0.858756 0.493023 0.732332 -0.384718
O42   O     O_R   0.732171 0.616071 0.695141 -0.330677
N21   N     N_R   0.541806 0.776284 0.601398 0.128699
O43   O     O_R   0.628489 0.761527 0.621599 -0.328745
O44   O     O_R   0.520615 0.816563 0.566560 -0.361329
N22   N     N_R   0.193693 0.795100 0.602065 0.067824
O45   O     O_R   0.160867 0.834879 0.567088 -0.388025
O46   O     O_R   0.128351 0.786310 0.622632 -0.425772
C112  C     C_3   0.163584 0.886815 0.774179 -0.406026
C113  C     C_3   0.052868 0.902974 0.775057 -0.323987
C114  C     C_3   0.014166 0.868848 0.734865 -0.565508
H65   H     H_    0.011016 0.915394 0.710090 0.260176
H66   H     H_    0.064860 0.785329 0.727183 0.212014
H67   H     H_    0.934139 0.881509 0.737617 0.257194
H68   H     H_    0.050518 0.856174 0.798558 0.215121
H69   H     H_    0.998809 0.987383 0.779639 0.257119
H70   H     H_    0.158049 0.939214 0.751360 0.194363
H71   H     H_    0.210265 0.806309 0.761708 0.191921
C115  C     C_3   0.093735 0.954539 0.864975 -0.310858
C116  C     C_3   0.096621 0.861477 0.883297 -0.298261
C117  C     C_3   0.993080 0.890176 0.899870 -0.655698
H72   H     H_    0.968272 0.960762 0.920505 0.233300
H73   H     H_    0.932955 0.903817 0.874559 0.263875
H74   H     H_    0.001223 0.825956 0.917135 0.200034
H75   H     H_    0.115743 0.796497 0.860121 0.185398
H76   H     H_    0.158504 0.832273 0.908136 0.208804
H77   H     H_    0.062602 0.025606 0.884917 0.190250
H78   H     H_    0.030117 0.986038 0.841718 0.181825
C118  C     C_3   0.147912 0.488839 0.107134 -0.394702
C119  C     C_3   0.078820 0.498346 0.068162 -0.212646
C120  C     C_3   0.990168 0.606858 0.061876 -0.697330
H79   H     H_    0.914059 0.608175 0.062177 0.297401
H80   H     H_    0.994604 0.663190 0.085874 0.224556
H81   H     H_    0.993234 0.629943 0.031341 0.197735
H82   H     H_    0.127621 0.478763 0.042138 0.192360
H83   H     H_    0.043356 0.447531 0.069391 0.276400
H84   H     H_    0.092332 0.543277 0.130052 0.200284
H85   H     H_    0.201686 0.521234 0.103433 0.161568
C121  C     C_3   0.764226 0.552618 0.411173 -0.340336
C122  C     C_3   0.801757 0.614053 0.389668 -0.354162
C123  C     C_3   0.793395 0.707770 0.416251 -0.605326
H86   H     H_    0.713491 0.755180 0.426426 0.258236
H87   H     H_    0.848952 0.682411 0.443176 0.197937
H88   H     H_    0.811902 0.756248 0.399000 0.242032
H89   H     H_    0.884025 0.564681 0.382594 0.192024
H90   H     H_    0.753067 0.641637 0.361276 0.271346
H91   H     H_    0.680396 0.604042 0.415025 0.206066
H92   H     H_    0.807868 0.536413 0.441141 0.197662

loop_
_geom_bond_atom_site_label_1
_geom_bond_atom_site_label_2
_geom_bond_distance
_ccdc_geom_bond_type
C21   C26   1.404808 A    
C122  H90   1.110992 S    
C7    C12   1.428033 A    
N14   O29   1.301902 A    
N21   O44   1.304029 A    
C57   C58   1.393946 A    
C86   C112  1.561302 S    
C30   C34   1.427938 A    
C15   C118  1.551491 S    
C67   N17   1.439649 S    
O14   Cr4   2.048808 S    
C30   N13   1.435838 S    
C71   C76   1.405103 A    
C53   C54   1.385031 A    
C32   C100  1.528492 S    
C98   C99   1.528800 S    
H26   C84   1.083276 S    
C100  H43   1.117966 S    
C6    C63   1.510975 S    
C117  H74   1.115638 S    
C45   H15   1.077647 S    
N11   N12   1.327724 A    
C102  H37   1.113447 S    
C37   H13   1.083849 S    
C72   C73   1.397536 A    
Cr5   O26   1.985087 S    
C106  H57   1.112642 S    
C22   C23   1.399512 A    
C99   H30   1.109174 S    
C39   N14   1.440275 S    
C4    O9    1.284264 A    
N14   O30   1.306109 A    
O8    Cr1   1.933236 S    
C8    C9    1.397536 A    
C51   C52   1.400572 A    
C26   H6    1.081696 S    
N9    C55   1.360048 A    
C16   H4    1.084146 S    
C109  H64   1.105550 S    
C9    C10   1.395601 A    
C10   C11   1.393281 A    
N15   O32   1.306252 A    
C78   N22   1.439940 S    
N20   O41   1.305078 A    
C37   C38   1.404737 A    
C69   N16   1.446019 S    
C94   O22   1.268100 A    
O15   C91   1.288099 A    
O4    C2    1.287830 A    
O16   Cr5   2.049994 S    
C8    H3    1.083481 S    
C102  H38   1.112826 S    
C2    C7    1.489109 S    
C97   C98   1.539780 S    
C110  H61   1.115662 S    
C107  H55   1.111650 S    
C103  H49   1.111887 S    
C65   C66   1.405718 A    
C16   C17   1.381453 A    
N7    N8    1.331554 A    
O22   Cr5   2.041377 S    
C115  H78   1.094202 S    
C44   C48   1.439948 A    
C67   C68   1.421034 A    
C49   C54   1.405871 A    
N19   O39   1.306508 A    
Cr6   O26   1.975115 S    
C83   C87   1.390453 A    
N2    C28   1.356203 A    
C104  H48   1.107832 S    
C17   C18   1.435488 S    
N13   O28   1.307115 A    
C120  H79   1.113324 S    
N13   O27   1.304414 A    
N18   O37   1.305279 A    
C31   H10   1.087699 S    
C58   H18   1.084427 S    
C38   C39   1.418793 A    
C65   N20   1.449116 S    
C14   C20   1.452165 A    
C115  H77   1.105173 S    
N21   O43   1.307058 A    
O19   Cr6   1.934501 S    
C71   H25   1.084011 S    
C91   O16   1.275153 A    
C80   C89   1.435478 S    
C103  C104  1.527739 S    
C99   H32   1.110708 S    
C85   C115  1.521499 S    
C24   C28   1.456821 S    
C105  H46   1.106964 S    
C48   C93   1.489170 S    
C106  H56   1.111773 S    
C119  C120  1.525694 S    
C101  C102  1.528649 S    
C77   C82   1.437091 A    
Cr3   O13   1.985159 S    
C46   H16   1.084041 S    
C107  H54   1.112433 S    
N18   O38   1.303674 A    
O18   Cr6   2.048405 S    
C52   C53   1.399535 A    
C113  H69   1.118891 S    
C98   H34   1.112997 S    
C12   N19   1.435719 S    
N10   C56   1.359517 A    
C60   C61   1.399500 A    
C7    C8    1.412016 A    
C99   H31   1.110622 S    
C15   C16   1.411179 A    
O19   C93   1.294514 A    
C32   C33   1.420006 A    
O4    Cr2   1.933464 S    
N22   O46   1.305240 A    
C57   C61   1.401780 A    
C119  H82   1.115773 S    
C55   C61   1.468180 S    
N19   O40   1.304446 A    
O1    Cr1   2.051831 S    
N3    C28   1.353641 A    
C86   C87   1.424746 A    
N8    C41   1.358392 A    
O15   Cr4   1.934377 S    
C23   H7    1.080970 S    
C107  C108  1.530235 S    
C24   C25   1.394990 A    
O10   Cr2   1.933692 S    
C79   C80   1.390909 A    
Cr1   O13   1.979182 S    
O1    C3    1.259931 A    
C121  C122  1.537068 S    
C113  C114  1.535289 S    
O20   C96   1.263223 A    
N16   O33   1.303560 A    
C60   H22   1.086075 S    
H27   C83   1.084106 S    
C123  H86   1.113057 S    
C106  C107  1.540711 S    
C36   C37   1.388434 A    
C102  H39   1.109740 S    
C117  H73   1.114372 S    
C105  H44   1.116081 S    
N3    N4    1.330689 A    
C122  C123  1.528899 S    
C43   C44   1.404974 A    
C5    O11   1.282323 A    
O12   Cr3   1.924391 S    
C103  H50   1.112915 S    
N4    C27   1.359456 A    
C100  H42   1.117887 S    
N20   O42   1.307456 A    
C44   C103  1.526440 S    
H1    C13   1.080814 S    
C118  H85   1.128531 S    
C98   H33   1.111669 S    
C35   C36   1.401102 A    
C121  H91   1.110260 S    
C100  C101  1.521744 S    
C11   C12   1.398322 A    
O25   C96   1.294406 A    
N1    C27   1.355370 A    
C120  H81   1.123574 S    
N16   O34   1.304077 A    
C77   C78   1.426403 A    
C9    H5    1.084050 S    
C25   H8    1.083684 S    
C111  H58   1.115511 S    
C116  H76   1.113076 S    
C52   C56   1.471286 S    
O7    Cr1   2.044348 S    
C83   C84   1.383921 A    
C22   C121  1.533485 S    
N6    C42   1.358068 A    
O12   C6    1.283849 A    
O6    C3    1.296208 A    
H23   C70   1.081755 S    
O23   Cr5   1.931927 S    
N15   O31   1.304180 A    
N17   O36   1.307117 A    
C108  H51   1.114325 S    
C40   H12   1.082675 S    
C27   C33   1.477554 S    
C85   C90   1.453407 A    
C123  H88   1.110970 S    
C114  H67   1.114325 S    
O25   Cr6   1.930755 S    
C108  H52   1.114277 S    
C25   C26   1.391033 A    
C111  H59   1.114247 S    
C54   H17   1.084615 S    
C97   H35   1.104732 S    
C43   H14   1.082452 S    
C110  C111  1.533948 S    
C79   H29   1.085016 S    
C4    C77   1.501514 S    
C38   C42   1.473799 S    
O21   C94   1.286726 A    
N7    C42   1.358354 A    
C101  H41   1.098194 S    
C114  H65   1.116543 S    
N1    N2    1.327478 A    
C84   C90   1.399660 A    
C1    O3    1.271181 A    
N9    N10   1.333159 A    
C76   C94   1.475496 S    
C112  H71   1.114098 S    
C49   C50   1.433794 A    
N11   C56   1.357198 A    
C82   N21   1.444885 S    
C69   C70   1.409152 A    
C68   C109  1.544620 S    
C114  H66   1.115003 S    
C95   O24   1.263623 A    
C29   C33   1.405002 A    
C34   C91   1.492437 S    
C122  H89   1.111383 S    
C31   C32   1.415221 A    
C14   C97   1.534488 S    
C23   C24   1.393619 A    
C18   C19   1.201938 T    
C3    C21   1.483353 S    
O9    Cr2   2.050531 S    
C109  C110  1.546791 S    
O2    Cr1   1.928741 S    
O10   C5    1.274598 A    
C36   H11   1.083600 S    
C90   C96   1.507737 S    
C13   C14   1.406279 A    
C41   C47   1.467731 S    
C21   C22   1.440099 A    
C121  H92   1.112398 S    
Cr2   O13   1.975193 S    
C46   C47   1.399930 A    
C53   H20   1.083996 S    
O6    Cr3   1.932197 S    
O20   Cr4   2.051902 S    
C45   C48   1.397863 A    
N22   O45   1.303177 A    
O11   Cr3   2.049868 S    
C63   C64   1.431631 A    
C2    O5    1.271323 A    
C57   H21   1.084624 S    
O14   C93   1.258064 A    
C81   C82   1.405919 A    
C78   C79   1.401725 A    
C123  H87   1.111871 S    
C15   C20   1.453074 A    
N5    C41   1.356915 A    
C31   C34   1.416083 A    
C97   H36   1.112975 S    
C88   C89   1.203457 T    
C109  H63   1.118016 S    
C118  H84   1.133168 S    
O2    C1    1.274589 A    
C71   C72   1.386967 A    
O24   Cr6   2.051969 S    
C116  H75   1.113483 S    
N5    N6    1.330310 A    
O21   Cr4   1.929551 S    
O23   C95   1.288771 A    
C85   C86   1.445844 A    
C115  C116  1.547829 S    
O5    Cr3   2.043647 S    
C29   C30   1.391744 A    
C113  H68   1.115709 S    
C74   C75   1.205532 T    
C63   C68   1.445292 A    
C1    C35   1.474741 S    
C10   C19   1.432711 S    
O7    C6    1.291939 A    
C108  H53   1.113199 S    
C110  H62   1.108664 S    
H2    C11   1.085119 S    
C50   C51   1.408971 A    
C70   C76   1.400245 A    
C117  H72   1.114486 S    
C104  C105  1.544304 S    
C59   C62   1.428736 A    
C13   C17   1.382276 A    
C62   C95   1.479116 S    
N17   O35   1.306187 A    
C43   C47   1.404215 A    
C112  C113  1.533938 S    
C50   C106  1.529982 S    
C5    C49   1.483991 S    
C45   C46   1.388985 A    
O3    Cr2   2.051979 S    
C104  H47   1.110268 S    
C69   C73   1.422161 A    
C119  H83   1.109803 S    
C111  H60   1.111874 S    
C39   C40   1.404468 A    
O17   Cr5   1.925082 S    
Cr4   O26   1.979072 S    
C120  H80   1.116836 S    
N12   C55   1.355646 A    
C29   H9    1.088505 S    
C58   C62   1.408907 A    
C72   H24   1.085184 S    
C59   C60   1.390246 A    
C116  C117  1.526325 S    
C101  H40   1.113116 S    
C73   C74   1.439127 S    
C66   C75   1.445486 S    
C35   C40   1.406293 A    
O17   C92   1.285245 A    
H28   C81   1.084582 S    
C20   C92   1.514652 S    
C64   C65   1.407926 A    
C92   O18   1.284882 A    
C66   C67   1.404692 A    
C59   N15   1.436894 S    
C112  H70   1.114923 S    
C118  C119  1.538215 S    
C80   C81   1.389190 A    
C87   C88   1.444210 S    
O8    C4    1.275663 A    
C51   H19   1.080250 S    
C64   N18   1.434854 S    
C105  H45   1.114875 S    
