data_mof_unit_42523.cif
_audit_creation_date              2012-12-11T19:58:04-0500
_audit_creation_method            fapswitch 2.2
_symmetry_space_group_name_H-M    P1
_symmetry_Int_Tables_number       1
_space_group_crystal_system       triclinic
_cell_length_a                    8.251341
_cell_length_b                    16.296224
_cell_length_c                    22.883303
_cell_angle_alpha                 108.341978
_cell_angle_beta                  89.422564
_cell_angle_gamma                 83.800606
_cell_volume                      2900.44516559

loop_
_atom_site_label
_atom_site_type_symbol
_atom_type_description
_atom_site_fract_x
_atom_site_fract_y
_atom_site_fract_z
_atom_type_partial_charge
Ba1   Ba    Ba6+2 0.335320 0.541410 0.478120 1.654962
Ba2   Ba    Ba6+2 0.854470 0.458670 0.521900 1.665309
C1    C     C_3   0.023098 0.858954 0.371759 -0.367405
C2    C     C_3   0.041014 0.769734 0.380478 0.404986
C3    C     C_3   0.118380 0.343974 0.320233 0.344750
C4    C     C_3   0.211541 0.323949 0.258655 -0.318145
C5    C     C_3   0.579125 0.218457 0.635535 0.280947
C6    C     C_3   0.595532 0.186288 0.691438 -0.071962
C7    C     C_3   0.097899 0.238365 0.641758 0.427048
C8    C     C_3   0.089918 0.163631 0.668016 -0.112289
C9    C     C_R   0.830711 0.522221 0.334403 -0.264536
C10   C     C_R   0.555340 0.565750 0.950828 -0.022335
C11   C     C_R   0.515210 0.561075 0.889671 0.597723
C12   C     C_3   0.582865 0.783211 0.358828 0.297346
C13   C     C_R   0.546424 0.405212 0.859582 0.596725
C14   C     C_R   0.585319 0.407853 0.920288 -0.038586
C15   C     C_R   0.589585 0.488467 0.966223 -0.054434
C16   C     C_R   0.560542 0.646075 0.997179 -0.070261
C17   C     C_R   0.598630 0.649705 0.057314 -0.070841
C18   C     C_R   0.632851 0.573147 0.073391 -0.017960
C19   C     C_R   0.628257 0.491895 0.027680 -0.086559
C20   C     C_R   0.619710 0.331167 0.935891 -0.105616
C21   C     C_R   0.657374 0.333427 0.996099 0.150518
C22   C     C_R   0.662256 0.414368 0.043176 -0.014852
C23   C     C_3   0.535591 0.799479 0.299103 -0.300878
C24   C     C_R   0.700999 0.420484 0.104999 0.599403
C25   C     C_R   0.671587 0.576446 0.134176 0.588709
C26   C     C_2   0.338186 0.430685 0.756312 -0.111431
C27   C     C_3   0.307630 0.413361 0.688488 -0.065647
C28   C     C_1   0.499218 0.517983 0.688035 0.021924
C29   C     C_2   0.549161 0.520104 0.743872 -0.091180
C30   C     C_2   0.461510 0.476646 0.782148 0.228491
C31   C     C_R   0.887587 0.546561 0.237574 -0.101420
C32   C     C_R   0.928350 0.553913 0.298359 -0.039143
C33   C     C_R   0.699602 0.477398 0.309899 0.015219
C34   C     C_3   0.616326 0.725969 0.629962 0.282071
C35   C     C_R   0.657530 0.469861 0.248879 -0.091885
C36   C     C_R   0.749692 0.505894 0.212298 0.233433
C37   C     C_2   0.376407 0.476586 0.662263 -0.253482
C38   C     C_2   0.438044 0.232892 0.460500 -0.085446
C39   C     C_R   0.802215 0.748657 0.509527 -0.296959
C40   C     C_2   0.244941 0.124992 0.423322 -0.136849
C41   C     C_2   0.278820 0.207035 0.434509 0.029190
C42   C     C_2   0.529439 0.182456 0.487600 -0.005440
C43   C     C_3   0.473610 0.097122 0.488413 -0.069127
C44   C     C_3   0.370060 0.057457 0.433505 0.015988
C45   C     C_3   0.603390 0.824857 0.660658 -0.119755
C46   C     C_2   0.611256 0.031352 0.492073 -0.084756
C47   C     C_2   0.579115 0.964150 0.510018 -0.100718
C48   C     C_R   0.851482 0.923853 0.544745 0.013818
C49   C     C_R   0.708181 0.897772 0.515798 -0.047333
C50   C     C_R   0.965928 0.863503 0.558085 -0.133102
C51   C     C_R   0.938922 0.776057 0.542111 0.073711
C52   C     C_R   0.683700 0.809309 0.498097 -0.024333
C53   C     C_3   0.732974 0.264192 0.317332 0.221459
C54   C     C_3   0.773392 0.241401 0.248255 -0.108602
C55   C     C_3   0.131882 0.673996 0.677683 0.253558
C56   C     C_3   0.094124 0.707284 0.747560 -0.132164
H1    H     H_    0.115223 0.773042 0.421214 0.094732
H2    H     H_    0.677372 0.839961 0.702242 0.134307
H3    H     H_    0.654016 0.855466 0.628699 0.057181
H4    H     H_    0.725471 0.202714 0.327986 0.040857
H5    H     H_    0.827234 0.296413 0.346208 0.075581
H6    H     H_    0.802041 0.300377 0.237774 0.095418
H7    H     H_    0.264578 0.670384 0.667870 0.012225
H8    H     H_    0.089806 0.608759 0.657937 0.056328
H9    H     H_    0.145042 0.877473 0.363765 0.144642
H10   H     H_    0.111719 0.777384 0.765863 0.128450
H11   H     H_    0.964157 0.701473 0.757077 0.133438
H12   H     H_    0.917625 0.753599 0.389215 -0.112321
H13   H     H_    0.962586 0.908258 0.413637 0.066656
H14   H     H_    0.992119 0.368247 0.314333 -0.094153
H15   H     H_    0.168297 0.397469 0.354744 0.086291
H16   H     H_    0.152817 0.275822 0.221992 0.124419
H17   H     H_    0.211649 0.384256 0.245915 0.079507
H18   H     H_    0.339261 0.296875 0.261420 0.135056
H19   H     H_    0.947735 0.858012 0.331664 0.107067
H20   H     H_    0.647276 0.795207 0.270339 0.114729
H21   H     H_    0.542470 0.289520 0.652208 0.008926
H22   H     H_    0.483829 0.184825 0.607003 -0.030327
H23   H     H_    0.228681 0.243396 0.633908 -0.159028
H24   H     H_    0.962375 0.162515 0.682989 0.132829
H25   H     H_    0.648374 0.716294 0.347505 0.012140
H26   H     H_    0.166384 0.173668 0.708921 0.082821
H27   H     H_    0.617097 0.268258 0.901189 0.122119
H28   H     H_    0.601087 0.713113 0.091368 0.117648
H29   H     H_    0.962658 0.572222 0.209966 0.096394
H30   H     H_    0.534895 0.706723 0.987132 0.123693
H31   H     H_    0.651835 0.554715 0.762605 0.118230
H32   H     H_    0.554302 0.436234 0.229985 0.096986
H33   H     H_    0.862650 0.528347 0.381218 0.071895
H34   H     H_    0.663946 0.832490 0.382392 -0.012694
H35   H     H_    0.332663 0.480586 0.618542 0.077849
H36   H     H_    0.071499 0.885666 0.583271 0.096638
H37   H     H_    0.782180 0.680914 0.497222 0.072733
H38   H     H_    0.735150 0.036475 0.478244 0.097138
H39   H     H_    0.453245 0.957715 0.520265 0.110704
H40   H     H_    0.457069 0.750214 0.273323 0.169843
H41   H     H_    0.467850 0.865504 0.309193 0.096417
H42   H     H_    0.743701 0.701724 0.612967 -0.001841
H43   H     H_    0.534949 0.710831 0.590569 0.059422
N1    N     N_R   0.509633 0.481260 0.844646 -0.422496
N2    N     N_R   0.705291 0.500780 0.149591 -0.431407
O1    O     O_2   0.414630 0.451750 0.353890 -0.456630
O2    O     O_3   0.048003 0.734688 0.653983 -0.653703
O3    O     O_3   0.441107 0.792339 0.395680 -0.576687
O4    O     O_2   0.775060 0.548280 0.646150 -0.443470
O5    O     O_3   0.534950 0.547420 0.574950 -0.488350
O6    O     O_3   0.073530 0.388570 0.588510 -0.465079
O7    O     O_3   0.573819 0.687640 0.673794 -0.645735
O8    O     O_3   0.168220 0.394330 0.455930 -0.481137
O9    O     O_3   0.678190 0.343400 0.553390 -0.443321
O10   O     O_2   0.864125 0.192625 0.498149 -0.487954
O11   O     O_3   0.728756 0.201342 0.602101 -0.596003
O12   O     O_3   0.654720 0.452660 0.425060 -0.476176
O13   O     O_3   0.021450 0.605740 0.544090 -0.482501
O14   O     O_2   0.953100 0.285520 0.441860 -0.465650
O15   O     O_3   0.120342 0.267114 0.336163 -0.637344
O16   O     O_2   0.977286 0.484902 0.704613 -0.485284
O17   O     O_3   0.016225 0.315620 0.682922 -0.597763
O18   O     O_2   0.482947 0.628193 0.876902 -0.587171
O19   O     O_2   0.546326 0.334747 0.819818 -0.626990
O20   O     O_2   0.733170 0.354371 0.119007 -0.577363
O21   O     O_2   0.674437 0.647058 0.173595 -0.616234
O22   O     O_3   0.116150 0.611500 0.411510 -0.491012
O23   O     O_2   0.269297 0.550915 0.300411 -0.475492
O24   O     O_3   0.580417 0.313317 0.333050 -0.664171
O25   O     O_3   0.118968 0.707936 0.327483 -0.579385
O26   O     O_2   0.236590 0.714510 0.558180 -0.470556
O27   O     O_3   0.511480 0.656670 0.446630 -0.464189
O28   O     O_2   0.347388 0.809767 0.507974 -0.501278
P1    P     P_3+3 0.594550 0.425840 0.359090 0.965249
P2    P     P_3+3 0.065650 0.701630 0.573510 0.977296
P3    P     P_3+3 0.496178 0.769074 0.462831 0.955271
P4    P     P_3+3 0.595130 0.574230 0.640920 0.989105
P5    P     P_3+3 0.699672 0.229173 0.534722 0.976655
P6    P     P_3+3 0.108991 0.604080 0.333445 0.971822
P7    P     P_3+3 0.130765 0.287388 0.416176 0.944384
P8    P     P_3+3 0.091554 0.403159 0.667356 0.969802
N3    N     N_3   0.434430 0.863142 0.678303 -0.487965
H44   H     H_    0.366698 0.850802 0.638725 0.198234
H45   H     H_    0.384554 0.833298 0.707477 0.209066
H46   H     H_    0.665963 0.217542 0.221852 0.106907
N4    N     N_3   0.913301 0.174526 0.229312 -0.485969
H47   H     H_    0.941863 0.164513 0.182779 0.195531
H48   H     H_    0.877480 0.116057 0.231873 0.174680
N5    N     N_3   0.197842 0.659943 0.780246 -0.475000
H49   H     H_    0.319371 0.667348 0.772058 0.197908
H50   H     H_    0.182435 0.594134 0.762850 0.185944
H51   H     H_    0.691821 0.218140 0.720778 0.160197
H52   H     H_    0.478272 0.205187 0.719205 0.110582
N6    N     N_3   0.634861 0.091748 0.673471 -0.492231
H53   H     H_    0.744191 0.073475 0.646808 0.214092
H54   H     H_    0.543313 0.062146 0.646165 0.180248
H55   H     H_    0.039422 0.223181 0.596765 0.109860
N7    N     N_3   0.146580 0.080630 0.621441 -0.512314
H56   H     H_    0.141001 0.031794 0.641778 0.185907
H57   H     H_    0.269774 0.080380 0.610232 0.168438
N8    N     N_3   0.690414 0.252598 0.008675 -0.434425
H58   H     H_    0.588393 0.218777 0.997572 0.175665
H59   H     H_    0.788796 0.215735 0.979668 0.177218
H60   H     H_    0.271557 0.398441 0.782126 0.102147
H61   H     H_    0.131397 0.105177 0.402986 0.086540
N9    N     N_3   0.494428 0.312089 0.457867 -0.434116
H62   H     H_    0.613987 0.296558 0.439134 0.195600
H63   H     H_    0.431707 0.333692 0.425664 0.205400

loop_
_geom_bond_atom_site_label_1
_geom_bond_atom_site_label_2
_ccdc_geom_bond_type
C42   P5    S    
C55   O2    S    
C53   C54   S    
Ba2   O6    S    
C13   O19   D    
C1    H13   S    
C17   C18   A    
C55   H8    S    
O28   P3    D    
C2    H12   S    
C26   H60   S    
C5    C6    S    
O23   P6    D    
C39   H37   S    
C43   C44   S    
C42   C43   S    
C10   C11   A    
Ba2   O9    S    
C35   C36   A    
C35   H32   S    
C34   C45   S    
C5    O11   S    
C5    H21   S    
C26   C27   S    
N5    H50   S    
Ba1   O22   S    
C38   N9    S    
C3    H14   S    
Ba1   O26   S    
N8    H58   S    
C28   C29   D    
O1    P1    D    
C13   C14   A    
C52   P3    S    
C53   H4    S    
Ba2   O4    S    
C41   P7    S    
C16   C17   A    
C40   C44   S    
C20   H27   S    
C25   N2    Am   
O24   P1    S    
C37   H35   S    
O4    P4    D    
C45   H2    S    
C54   H46   S    
Ba2   O13   S    
C9    C33   A    
C23   H41   S    
C38   C41   S    
N5    H49   S    
C14   C15   A    
C29   H31   S    
O10   P5    D    
C53   H5    S    
C45   N3    S    
C48   C50   A    
C21   C22   A    
N8    H59   S    
C50   H36   S    
Ba1   O13   S    
C7    C8    S    
C38   C42   D    
Ba1   P1    S    
C13   N1    Am   
O7    P4    S    
O27   P3    S    
C12   H25   S    
O9    P5    S    
Ba1   P2    S    
Ba2   O5    S    
Ba2   O14   S    
C4    H16   S    
O12   P1    S    
C27   P8    S    
Ba2   O8    S    
C2    O25   S    
C23   H20   S    
C4    H17   S    
C6    H52   S    
C51   P2    S    
N3    H44   S    
O5    P4    S    
N4    H48   S    
Ba1   O27   S    
C8    N7    S    
C40   H61   S    
O13   P2    S    
C47   C49   S    
C8    H24   S    
C16   H30   S    
Ba2   P4    S    
C21   N8    S    
C34   H43   S    
N7    H56   S    
C10   C15   A    
C6    H51   S    
O25   P6    S    
C36   N2    S    
C24   N2    Am   
C11   O18   D    
Ba2   O12   S    
C29   C30   S    
N7    H57   S    
C26   C30   D    
C12   H34   S    
C27   C37   S    
C54   H6    S    
C31   C32   A    
C48   C49   A    
O17   P8    S    
C18   C19   A    
Ba1   O1    S    
C39   C51   A    
O26   P2    D    
C56   H10   S    
C46   C47   D    
C53   O24   S    
C17   H28   S    
C34   O7    S    
C30   N1    S    
C19   C22   A    
C24   O20   D    
C1    C2    S    
C1    H19   S    
C50   C51   A    
O2    P2    S    
N6    H54   S    
C43   C46   S    
N9    H62   S    
C14   C20   A    
C46   H38   S    
C33   C35   A    
C56   N5    S    
C9    C32   A    
C1    H9    S    
C22   C24   A    
C55   H7    S    
N4    H47   S    
C6    N6    S    
O14   P7    D    
C45   H3    S    
C25   O21   D    
C34   H42   S    
C56   H11   S    
C4    H18   S    
N3    H45   S    
C18   C25   A    
C32   P6    S    
C31   C36   A    
C3    O15   S    
O6    P8    S    
C49   C52   A    
O22   P6    S    
N9    H63   S    
C31   H29   S    
O16   P8    D    
Ba1   O8    S    
C55   C56   S    
C3    C4    S    
Ba1   Ba2   S    
C2    H1    S    
C8    H26   S    
C28   C37   D    
C12   C23   S    
C3    H15   S    
C15   C19   A    
C39   C52   A    
Ba1   O5    S    
C47   H39   S    
C54   N4    S    
C9    H33   S    
C23   H40   S    
O3    P3    S    
N6    H53   S    
C7    H55   S    
C28   P4    S    
C40   C41   D    
C12   O3    S    
C10   C16   A    
C7    O17   S    
O11   P5    S    
C20   C21   A    
Ba1   O12   S    
C11   N1    Am   
O15   P7    S    
C33   P1    S    
O8    P7    S    
C7    H23   S    
C5    H22   S    
