data_mof_unit_12923.cif
_audit_creation_date              2012-12-10T20:27:53-0500
_audit_creation_method            fapswitch 2.2
_symmetry_space_group_name_H-M    P1
_symmetry_Int_Tables_number       1
_space_group_crystal_system       triclinic
_cell_length_a                    12.757244
_cell_length_b                    10.799902
_cell_length_c                    9.86167
_cell_angle_alpha                 90.687625
_cell_angle_beta                  96.16864
_cell_angle_gamma                 89.567255
_cell_volume                      1350.72003487

loop_
_atom_site_label
_atom_site_type_symbol
_atom_type_description
_atom_site_fract_x
_atom_site_fract_y
_atom_site_fract_z
_atom_type_partial_charge
C1    C     C_R   0.503141 0.259918 0.498820 0.901440
C2    C     C_R   0.016271 0.553295 0.478517 -0.011366
C3    C     C_R   0.981656 0.431687 0.506783 -0.022127
C4    C     C_R   0.876717 0.414379 0.531458 0.137675
C5    C     C_R   0.851084 0.639502 0.533892 0.163074
C6    C     C_R   0.950880 0.655785 0.494918 -0.212165
C7    C     C_R   0.521682 0.065007 0.617546 -0.050358
C8    C     C_R   0.519392 0.128436 0.496298 -0.163632
C9    C     C_R   0.541492 0.062691 0.377025 0.097860
C10   C     C_R   0.545885 0.932432 0.379581 0.146047
C11   C     C_R   0.527467 0.870552 0.501960 -0.148259
C12   C     C_R   0.299007 0.493958 0.474157 0.953009
C13   C     C_R   0.530723 0.939840 0.622812 -0.039729
C14   C     C_3   0.485907 0.938234 0.758356 -0.005138
C15   C     C_3   0.462521 0.077627 0.739849 -0.000133
C16   C     C_R   0.416530 0.546971 0.060430 -0.179489
C17   C     C_R   0.585831 0.459241 0.082691 0.654666
C18   C     C_R   0.585762 0.459572 0.939029 -0.223924
C19   C     C_R   0.416537 0.546832 0.917727 -0.017736
C20   C     C_3   0.305359 0.503114 0.897029 1.048422
C21   C     C_3   0.304738 0.504631 0.050752 0.362766
C22   C     C_R   0.506295 0.739869 0.501079 0.908425
C23   C     C_R   0.701259 0.503262 0.526022 0.884740
C24   C     C_R   0.812424 0.518941 0.540609 -0.123877
C25   C     C_R   0.189030 0.471717 0.461005 -0.100189
C26   C     C_R   0.053485 0.331850 0.511256 0.645978
C27   C     C_R   0.157104 0.353327 0.491737 -0.284022
C28   C     C_R   0.118912 0.571010 0.445360 0.166677
H1    H     H_    0.550001 0.919443 0.841804 0.132637
H2    H     H_    0.501954 0.138947 0.820866 0.153023
H3    H     H_    0.653925 0.425181 0.893616 0.172687
H4    H     H_    0.250734 0.574635 0.089675 0.084299
H5    H     H_    0.977780 0.749397 0.483480 0.159049
H6    H     H_    0.213891 0.278055 0.505141 0.170900
N1    N     N_R   0.499290 0.499140 0.142710 -0.109881
N2    N     N_R   0.499290 0.499180 0.857070 -0.111550
O1    O     O_R   0.500010 0.316790 0.614690 -0.604591
O2    O     O_R   0.500000 0.316760 0.385350 -0.573255
O3    O     O_R   0.346360 0.499990 0.595720 -0.554731
O4    O     O_R   0.346350 0.499960 0.366370 -0.584091
O5    O     O_R   0.500000 0.683240 0.614650 -0.599655
O6    O     O_R   0.499990 0.683210 0.385310 -0.596651
O7    O     O_R   0.653650 0.500040 0.633630 -0.650426
O8    O     O_R   0.653640 0.500010 0.404280 -0.561811
Zn1   Zn    Zn3+2 0.500010 0.500020 0.653130 1.002730
Zn2   Zn    Zn3+2 0.499990 0.499980 0.346870 1.036444
N3    N     N_2   0.835853 0.293268 0.548070 -0.254552
H7    H     H_    0.781678 0.288191 0.618274 0.212000
C29   C     C_3   0.801836 0.227962 0.422203 -0.634032
H8    H     H_    0.730296 0.272638 0.370065 0.265023
H9    H     H_    0.782602 0.130814 0.445152 0.216623
H10   H     H_    0.865022 0.226660 0.352954 0.264060
N4    N     N_2   0.352788 0.111118 0.696804 -0.280892
H11   H     H_    0.319399 0.074979 0.604876 0.215587
C30   C     C_3   0.280338 0.123663 0.799264 -0.560590
H12   H     H_    0.217107 0.190220 0.763248 0.296798
H13   H     H_    0.321162 0.157187 0.897781 0.265556
H14   H     H_    0.240601 0.034642 0.813140 0.203706
F1    F     F_    0.671265 0.413855 0.159859 -0.675738
F2    F     F_    0.236495 0.587716 0.830896 -0.710792
F3    F     F_    0.296725 0.386721 0.838633 -0.649732
F4    F     F_    0.295609 0.387394 0.103490 -0.642458
N5    N     N_2   0.788443 0.744637 0.562217 -0.329812
H15   H     H_    0.806668 0.823727 0.512169 0.228123
C31   C     C_3   0.783962 0.768381 0.706194 -0.737656
H16   H     H_    0.732657 0.849941 0.719942 0.230307
H17   H     H_    0.864133 0.788327 0.757222 0.246519
H18   H     H_    0.750830 0.687839 0.755463 0.260556
F5    F     F_    0.027190 0.215555 0.545293 -0.662411
N6    N     N_2   0.151498 0.685672 0.392952 -0.316191
H19   H     H_    0.095338 0.728154 0.325728 0.231241
C32   C     C_3   0.203702 0.770388 0.492343 -0.763471
H20   H     H_    0.226866 0.855031 0.440391 0.224382
H21   H     H_    0.276121 0.727399 0.543397 0.256794
H22   H     H_    0.150890 0.797310 0.570305 0.255540
N7    N     N_2   0.558876 0.125991 0.255235 -0.285597
H23   H     H_    0.625315 0.098478 0.211633 0.230085
C33   C     C_3   0.467178 0.144933 0.157134 -0.644193
H24   H     H_    0.473903 0.087642 0.064432 0.169469
H25   H     H_    0.463595 0.243022 0.125704 0.289372
H26   H     H_    0.392598 0.121956 0.199963 0.243757
N8    N     N_2   0.558230 0.865360 0.256378 -0.279468
H27   H     H_    0.521092 0.902940 0.168546 0.228823
C34   C     C_3   0.663941 0.822198 0.241490 -0.746962
H28   H     H_    0.720349 0.900486 0.251387 0.214086
H29   H     H_    0.665789 0.777946 0.139490 0.228852
H30   H     H_    0.688160 0.751387 0.318938 0.271360
N9    N     N_2   0.394815 0.860489 0.765891 -0.242734
H31   H     H_    0.330947 0.878348 0.696229 0.243539
C35   C     C_3   0.369555 0.842333 0.903974 -0.757637
H32   H     H_    0.294284 0.792009 0.903009 0.275677
H33   H     H_    0.361373 0.931863 0.957768 0.219242
H34   H     H_    0.433731 0.789608 0.962521 0.234080

loop_
_geom_bond_atom_site_label_1
_geom_bond_atom_site_label_2
_ccdc_geom_bond_type
C30   H12   S    
N5    C31   S    
C16   C21   S    
C1    C8    S    
C19   C20   S    
C34   H30   S    
C7    C8    A    
N3    C29   S    
N4    H11   S    
C25   C28   A    
O4    Zn2   S    
C26   C27   A    
C15   H2    S    
C15   N4    S    
C34   H29   S    
C19   N2    A    
C16   N1    A    
C5    C6    A    
C4    C24   A    
C33   H25   S    
C22   O5    A    
C23   O7    A    
C5    N5    S    
O6    Zn2   S    
C20   F3    S    
C8    C9    A    
C31   H17   S    
C23   C24   S    
N6    H19   S    
C9    N7    S    
C20   F2    S    
C9    C10   A    
C1    O1    A    
O3    Zn1   S    
C29   H10   S    
C7    C15   S    
C13   C14   S    
C2    C6    A    
C32   H22   S    
O8    Zn2   S    
N4    C30   S    
C27   H6    S    
C21   H4    S    
N7    H23   S    
C32   H21   S    
C33   H24   S    
C29   H9    S    
C10   N8    S    
C23   O8    A    
C12   O4    A    
C35   H33   S    
N3    H7    S    
C31   H18   S    
C20   C21   S    
C17   C18   A    
N2    Zn1   S    
C34   H28   S    
O7    Zn1   S    
C21   F4    S    
C1    O2    A    
C17   F1    S    
N9    C35   S    
C31   H16   S    
N8    C34   S    
C30   H13   S    
C14   H1    S    
O1    Zn1   S    
C3    C4    A    
C35   H34   S    
C3    C26   A    
C28   N6    S    
N7    C33   S    
C32   H20   S    
N6    C32   S    
C25   C27   A    
C11   C22   S    
C6    H5    S    
C12   C25   S    
C12   O3    A    
C2    C3    A    
C14   N9    S    
C11   C13   A    
C33   H26   S    
C35   H32   S    
C22   O6    A    
C5    C24   A    
C16   C19   A    
O2    Zn2   S    
C10   C11   A    
N5    H15   S    
C7    C13   A    
N9    H31   S    
C29   H8    S    
C30   H14   S    
C26   F5    S    
O5    Zn1   S    
C14   C15   S    
C2    C28   A    
C18   H3    S    
C17   N1    A    
N8    H27   S    
N1    Zn2   S    
C18   N2    A    
C4    N3    S    
