data_mof_unit_64488.cif
_audit_creation_date              2013-03-05T15:59:44-0500
_audit_creation_method            fapswitch 2.2
_symmetry_space_group_name_H-M    P1
_symmetry_Int_Tables_number       1
_space_group_crystal_system       triclinic
_cell_length_a                    21.478969
_cell_length_b                    29.406378
_cell_length_c                    29.410882
_cell_angle_alpha                 89.965843
_cell_angle_beta                  89.931488
_cell_angle_gamma                 89.977294
_cell_volume                      18576.4444744

loop_
_atom_site_label
_atom_site_type_symbol
_atom_site_description
_atom_site_fract_x
_atom_site_fract_y
_atom_site_fract_z
_atom_type_partial_charge
O1    O     O_R   0.000000 0.964120 0.061970 -0.581137
O2    O     O_R   0.000000 0.964120 0.938030 -0.570549
O3    O     O_R   0.500000 0.464120 0.561970 -0.578850
O4    O     O_R   0.500000 0.464120 0.438030 -0.553801
O5    O     O_R   0.000000 0.035860 0.061950 -0.539312
O6    O     O_R   0.000000 0.035860 0.938050 -0.559739
O7    O     O_R   0.500000 0.535860 0.561950 -0.549701
O8    O     O_R   0.500000 0.535860 0.438050 -0.565725
C1    C     C_R   0.999956 0.999985 0.085536 0.904174
C2    C     C_R   0.000001 0.000010 0.914462 0.847417
C3    C     C_R   0.500190 0.499986 0.585535 0.913837
C4    C     C_R   0.500043 0.500009 0.414461 0.830313
O9    O     O_R   0.091580 0.964120 0.000000 -0.590952
O10   O     O_R   0.908420 0.964120 0.000000 -0.581203
O11   O     O_R   0.591580 0.464120 0.500000 -0.600606
O12   O     O_R   0.408420 0.464120 0.500000 -0.543692
O13   O     O_R   0.091590 0.035860 0.000000 -0.592542
O14   O     O_R   0.908410 0.035860 0.000000 -0.550421
O15   O     O_R   0.591590 0.535860 0.500000 -0.583936
O16   O     O_R   0.408410 0.535860 0.500000 -0.560290
C5    C     C_R   0.121364 0.999929 0.999785 0.877123
C6    C     C_R   0.878646 0.999943 0.999666 0.950987
C7    C     C_R   0.621363 0.499918 0.500348 0.873560
C8    C     C_R   0.378899 0.499973 0.496260 0.960437
Cu1   Cu    Cu3+1 0.000000 0.957510 0.000000 1.020331
Cu2   Cu    Cu3+1 0.500000 0.457510 0.500000 1.039933
Cu3   Cu    Cu3+1 0.000000 0.042470 0.000000 1.025549
Cu4   Cu    Cu3+1 0.500000 0.542470 0.500000 1.029418
C9    C     C_3   0.230192 0.014299 0.040644 -0.064579
C10   C     C_3   0.769499 0.022768 0.963253 -0.075182
C11   C     C_3   0.769658 0.018967 0.038008 -0.054659
C12   C     C_3   0.230262 0.026897 0.966889 -0.065271
C13   C     C_3   0.730479 0.519706 0.538721 -0.047119
C14   C     C_3   0.268924 0.535956 0.473733 -0.082950
C15   C     C_3   0.271526 0.501751 0.540227 -0.048655
C16   C     C_3   0.729997 0.522019 0.463943 -0.083203
C17   C     C_3   0.270884 0.041486 0.007289 0.389248
C18   C     C_3   0.728787 0.041922 0.001810 0.381957
C19   C     C_3   0.770904 0.542048 0.501757 0.389411
C20   C     C_3   0.229974 0.537747 0.517593 0.378934
C21   C     C_3   0.311262 0.999274 0.999942 -0.092834
C22   C     C_3   0.688660 0.999075 0.999859 -0.070215
C23   C     C_3   0.811264 0.499221 0.500089 -0.093205
C24   C     C_3   0.188730 0.499687 0.499263 -0.062724
C25   C     C_3   0.271275 0.971597 0.033518 -0.226617
C26   C     C_3   0.728639 0.979505 0.961027 -0.246253
C27   C     C_3   0.728894 0.975692 0.036266 -0.356571
C28   C     C_3   0.271193 0.984348 0.959194 -0.237712
C29   C     C_3   0.771510 0.476452 0.537319 -0.338135
C30   C     C_3   0.226976 0.497598 0.455004 -0.309399
C31   C     C_3   0.229597 0.463186 0.521816 -0.332659
C32   C     C_3   0.770962 0.478797 0.461963 -0.125664
C33   C     C_3   0.230051 0.957434 0.992880 0.014483
C34   C     C_3   0.770089 0.956877 0.997491 0.028097
C35   C     C_3   0.730055 0.456789 0.499229 0.016232
C36   C     C_3   0.269156 0.461726 0.477853 0.037221
C37   C     C_3   0.189111 0.999710 0.000171 -0.187414
C38   C     C_3   0.810912 0.999783 0.999502 -0.103637
C39   C     C_3   0.689115 0.499667 0.500846 -0.185828
C40   C     C_3   0.311135 0.499895 0.496349 -0.082358
H1    H     H_    0.289540 0.948772 0.060478 0.176046
H2    H     H_    0.710543 0.962967 0.929791 0.169884
H3    H     H_    0.711048 0.956162 0.065859 0.159947
H4    H     H_    0.289246 0.971720 0.926134 0.180765
H5    H     H_    0.789905 0.457435 0.567044 0.162485
H6    H     H_    0.207678 0.495508 0.420049 0.166925
H7    H     H_    0.212330 0.433396 0.541314 0.152948
H8    H     H_    0.788897 0.461871 0.430848 0.193590
C41   C     C_1   0.999986 0.999987 0.136664 -0.124642
C42   C     C_1   0.999958 0.000050 0.863334 -0.149586
C43   C     C_1   0.500204 0.499986 0.636664 -0.121345
C44   C     C_1   0.500018 0.500046 0.363332 -0.150703
C45   C     C_1   0.000019 0.999998 0.179042 0.023935
C46   C     C_1   0.999928 0.000064 0.820956 0.024815
C47   C     C_1   0.500191 0.499995 0.679042 0.020961
C48   C     C_1   0.499995 0.500055 0.320954 0.028062
C49   C     C_1   0.000055 0.000005 0.229293 0.015958
C50   C     C_1   0.999904 0.000060 0.770704 0.019320
C51   C     C_1   0.500170 0.500001 0.729293 0.013505
C52   C     C_1   0.499964 0.500050 0.270702 0.022360
C53   C     C_1   0.000078 0.000005 0.271675 0.013459
C54   C     C_1   0.999893 0.000048 0.728322 0.014857
C55   C     C_1   0.500152 0.500003 0.771675 0.011860
C56   C     C_1   0.499939 0.500039 0.228321 0.017059
C57   C     C_1   0.000093 0.000002 0.321930 0.009354
C58   C     C_1   0.999892 0.000028 0.678068 0.010235
C59   C     C_1   0.500128 0.500000 0.821930 0.008060
C60   C     C_1   0.499916 0.500022 0.178067 0.011947
C61   C     C_1   0.000086 0.999998 0.364313 -0.181033
C62   C     C_1   0.999909 0.000011 0.635686 -0.180728
C63   C     C_1   0.500098 0.499997 0.864313 -0.181928
C64   C     C_1   0.499917 0.500007 0.135685 -0.179431
O17   O     O_R   0.500000 0.061920 0.964120 -0.562178
O18   O     O_R   0.500000 0.061920 0.035880 -0.563998
O19   O     O_R   0.000000 0.561920 0.464120 -0.564003
O20   O     O_R   0.000000 0.561920 0.535880 -0.562100
C65   C     C_R   0.500014 0.085496 0.999991 0.868672
C66   C     C_R   0.999930 0.585496 0.499991 0.859924
O21   O     O_R   0.408440 0.999940 0.964130 -0.579409
O22   O     O_R   0.591560 0.999940 0.035870 -0.584568
O23   O     O_R   0.591560 0.999940 0.964130 -0.592635
O24   O     O_R   0.408440 0.999940 0.035870 -0.588735
O25   O     O_R   0.908440 0.499940 0.464130 -0.577502
O26   O     O_R   0.091560 0.499940 0.535870 -0.572711
O27   O     O_R   0.091560 0.499940 0.464130 -0.599015
O28   O     O_R   0.908440 0.499940 0.535870 -0.589148
C67   C     C_R   0.378743 0.999529 0.000002 0.894432
C68   C     C_R   0.621227 0.999246 0.999968 0.887923
C69   C     C_R   0.878744 0.499460 0.500021 0.894605
C70   C     C_R   0.121261 0.499895 0.499906 0.879290
Cu5   Cu    Cu3+1 0.500000 0.999950 0.957510 0.983551
Cu6   Cu    Cu3+1 0.500000 0.999950 0.042490 0.972847
Cu7   Cu    Cu3+1 0.000000 0.499950 0.457510 0.982789
Cu8   Cu    Cu3+1 0.000000 0.499950 0.542490 0.974085
O29   O     O_R   0.500000 0.937960 0.964120 -0.569403
O30   O     O_R   0.500000 0.937960 0.035880 -0.571848
O31   O     O_R   0.000000 0.437960 0.464120 -0.566433
O32   O     O_R   0.000000 0.437960 0.535880 -0.573564
C71   C     C_R   0.499995 0.914390 0.000012 0.814065
C72   C     C_R   0.000005 0.414391 0.500012 0.813394
O33   O     O_R   0.053020 0.061970 0.500000 -0.555779
O34   O     O_R   0.946980 0.061970 0.500000 -0.554872
O35   O     O_R   0.553020 0.561970 0.000000 -0.555520
O36   O     O_R   0.446980 0.561970 0.000000 -0.554889
C73   C     C_R   0.999989 0.084519 0.500000 0.795646
C74   C     C_R   0.499989 0.584519 0.000000 0.795556
O37   O     O_R   0.053020 0.999990 0.438010 -0.555696
O38   O     O_R   0.946980 0.999990 0.561990 -0.555840
O39   O     O_R   0.946980 0.999990 0.438010 -0.555706
O40   O     O_R   0.053020 0.999990 0.561990 -0.555341
O41   O     O_R   0.553020 0.499990 0.938010 -0.556113
O42   O     O_R   0.446980 0.499990 0.061990 -0.555831
O43   O     O_R   0.446980 0.499990 0.938010 -0.555835
O44   O     O_R   0.553020 0.499990 0.061990 -0.554651
C75   C     C_R   0.000031 0.999993 0.415454 0.795151
C76   C     C_R   0.999968 0.999993 0.584546 0.794876
C77   C     C_R   0.500033 0.499993 0.915454 0.794717
C78   C     C_R   0.499969 0.499992 0.084545 0.795266
Cu9   Cu    Cu3+1 0.062770 0.999990 0.500000 0.975427
Cu10  Cu    Cu3+1 0.937230 0.999990 0.500000 0.975192
Cu11  Cu    Cu3+1 0.562770 0.499990 0.000000 0.975906
Cu12  Cu    Cu3+1 0.437230 0.499990 0.000000 0.975381
O45   O     O_R   0.053000 0.938010 0.500000 -0.555952
O46   O     O_R   0.947000 0.938010 0.500000 -0.556546
O47   O     O_R   0.553000 0.438010 0.000000 -0.556171
O48   O     O_R   0.447000 0.438010 0.000000 -0.556422
C79   C     C_R   0.000005 0.915447 0.500003 0.794819
C80   C     C_R   0.500011 0.415446 0.000004 0.794853
C81   C     C_1   0.500035 0.136631 0.999985 -0.180870
C82   C     C_1   0.999843 0.636631 0.499984 -0.184083
C83   C     C_1   0.500050 0.179012 0.999998 -0.005413
C84   C     C_1   0.999794 0.679013 0.499993 -0.002315
C85   C     C_1   0.500059 0.229265 0.000012 0.002728
C86   C     C_1   0.999795 0.729267 0.500005 0.004070
C87   C     C_1   0.999841 0.771653 0.500009 0.007180
C88   C     C_1   0.500058 0.271650 0.000017 0.007197
C89   C     C_1   0.999926 0.821912 0.500009 0.005876
C90   C     C_1   0.500049 0.321910 0.000016 0.005664
C91   C     C_1   0.999989 0.864300 0.500007 -0.183240
C92   C     C_1   0.500035 0.364299 0.000011 -0.183278
C93   C     C_1   0.499986 0.863266 0.000032 -0.190168
C94   C     C_1   0.999996 0.363266 0.500031 -0.193850
C95   C     C_1   0.499979 0.820890 0.000035 0.012469
C96   C     C_1   0.999987 0.320890 0.500033 0.009643
C97   C     C_1   0.499971 0.770647 0.000030 0.015334
C98   C     C_1   0.999978 0.270647 0.500029 0.013326
C99   C     C_1   0.999972 0.228270 0.500022 0.012050
C100  C     C_1   0.499967 0.728270 0.000024 0.013312
C101  C     C_1   0.999968 0.178026 0.500014 0.009881
C102  C     C_1   0.499965 0.678026 0.000015 0.010586
C103  C     C_1   0.999971 0.135648 0.500007 -0.180157
C104  C     C_1   0.499970 0.635648 0.000008 -0.179732
O49   O     O_3   0.298601 0.084658 0.012784 -0.622787
C105  C     C_3   0.254180 0.116638 0.027881 0.051896
H9    H     H_    0.251316 0.115279 0.065586 0.156708
H10   H     H_    0.206918 0.110554 0.013478 0.132472
C106  C     C_3   0.275456 0.164146 0.013732 -0.317702
H11   H     H_    0.322260 0.171069 0.028281 0.230530
H12   H     H_    0.278980 0.165785 0.976051 0.228332
C107  C     C_3   0.230048 0.200559 0.030107 -0.900032
H13   H     H_    0.183202 0.194821 0.015210 0.257553
H14   H     H_    0.246894 0.234595 0.019324 0.260953
H15   H     H_    0.226527 0.199986 0.067790 0.260633
O50   O     O_3   0.700822 0.085230 0.005432 -0.632151
C108  C     C_3   0.746091 0.119687 0.000926 0.047249
H16   H     H_    0.756156 0.125405 0.964305 0.156051
H17   H     H_    0.790289 0.111210 0.018869 0.161809
C109  C     C_3   0.720166 0.163676 0.021052 -0.322025
H18   H     H_    0.676220 0.172884 0.003338 0.230171
H19   H     H_    0.709568 0.158359 0.057681 0.225486
C110  C     C_3   0.766457 0.202742 0.016277 -0.892896
H20   H     H_    0.810364 0.194612 0.034483 0.262215
H21   H     H_    0.746206 0.234111 0.031222 0.260170
H22   H     H_    0.776912 0.209161 0.979834 0.258706
O51   O     O_3   0.798689 0.585549 0.501100 -0.623278
C111  C     C_3   0.754479 0.619317 0.512039 0.052079
H23   H     H_    0.751620 0.622765 0.549607 0.156052
H24   H     H_    0.707203 0.611579 0.498484 0.132724
C112  C     C_3   0.776040 0.664596 0.492015 -0.316950
H25   H     H_    0.822905 0.673141 0.505565 0.230138
H26   H     H_    0.779527 0.661463 0.454428 0.228957
C113  C     C_3   0.730887 0.702937 0.503685 -0.900380
H27   H     H_    0.683976 0.695513 0.489668 0.258188
H28   H     H_    0.747921 0.735285 0.488676 0.261061
H29   H     H_    0.727441 0.707145 0.541138 0.260083
O52   O     O_3   0.203840 0.576005 0.539453 -0.626361
C114  C     C_3   0.250216 0.608900 0.547947 0.045769
H30   H     H_    0.257722 0.629610 0.516813 0.153800
H31   H     H_    0.295382 0.593464 0.558477 0.159711
C115  C     C_3   0.227881 0.640242 0.586011 -0.319126
H32   H     H_    0.183235 0.656478 0.575894 0.229732
H33   H     H_    0.219633 0.619860 0.617290 0.224991
C116  C     C_3   0.275658 0.677228 0.596257 -0.894793
H34   H     H_    0.320341 0.661753 0.607316 0.262907
H35   H     H_    0.257998 0.699385 0.623978 0.259599
H36   H     H_    0.283913 0.698484 0.565602 0.258860
C117  C     C_2   0.208934 0.029673 0.086666 0.330338
H37   H     H_    0.243177 0.038212 0.112339 0.079462
O53   O     O_2   0.153605 0.032632 0.095567 -0.552522
C118  C     C_2   0.789916 0.047766 0.921417 0.332170
H38   H     H_    0.755196 0.062299 0.898952 0.082234
O54   O     O_2   0.845039 0.051818 0.912275 -0.542576
C119  C     C_2   0.789950 0.040677 0.081612 0.333944
H39   H     H_    0.755181 0.053578 0.105054 0.095296
O55   O     O_2   0.845055 0.043983 0.091011 -0.563190
C120  C     C_2   0.206652 0.057555 0.930056 0.387700
H40   H     H_    0.176370 0.085845 0.938419 0.059952
O56   O     O_2   0.221060 0.050738 0.890508 -0.529669
C121  C     C_2   0.709682 0.541097 0.582393 0.319245
H41   H     H_    0.744188 0.553351 0.606314 0.082263
O57   O     O_2   0.654455 0.544765 0.591375 -0.554355
C122  C     C_2   0.286809 0.575838 0.444774 0.335723
H42   H     H_    0.250921 0.598784 0.432677 0.079392
O58   O     O_2   0.340970 0.582586 0.434298 -0.530779
C123  C     C_2   0.293552 0.503795 0.588492 0.338543
H43   H     H_    0.259743 0.505295 0.615860 0.093896
O59   O     O_2   0.349011 0.503905 0.597305 -0.574868
C124  C     C_2   0.705878 0.547317 0.423408 0.392096
H44   H     H_    0.675421 0.576358 0.428005 0.056950
O60   O     O_2   0.720020 0.535239 0.385086 -0.521944
C125  C     C_2   0.207199 0.910219 0.983896 0.421844
H45   H     H_    0.179092 0.903467 0.954047 0.061817
O61   O     O_2   0.220051 0.879285 0.009907 -0.530549
C126  C     C_2   0.792257 0.908707 0.995060 0.405776
H46   H     H_    0.787135 0.886515 0.024286 0.055056
O62   O     O_2   0.817227 0.894530 0.960584 -0.521604
C127  C     C_2   0.707366 0.408678 0.498814 0.416962
H47   H     H_    0.679842 0.395964 0.527021 0.068626
O63   O     O_2   0.719756 0.383649 0.466993 -0.531141
C128  C     C_2   0.286622 0.418462 0.454139 0.381115
H48   H     H_    0.250946 0.393336 0.447173 0.063452
O64   O     O_2   0.340057 0.411373 0.442018 -0.526237

loop_
_geom_bond_atom_site_label_1
_geom_bond_atom_site_label_2
_geom_bond_distance
_ccdc_geom_bond_type
C12   C28   1.545529 S    
C24   C70   1.449289 S    
C14   C40   1.545558 S    
O27   C70   1.231152 A    
O43   C77   1.317869 A    
O33   Cu9   1.834514 S    
C61   C75   1.504095 S    
C59   C63   1.246521 T    
C87   C89   1.477958 S    
C123  O59   1.219381 D    
Cu10  O46   1.834569 S    
Cu12  O48   1.834569 S    
O24   Cu6   1.976463 S    
Cu5   Cu6   2.499334 S    
O3    C3    1.262373 A    
C44   C48   1.246390 T    
C16   C39   1.542203 S    
C64   C78   1.504060 S    
C71   C93   1.503383 S    
O32   C72   1.262576 A    
C118  O54   1.219683 D    
O30   C71   1.262579 A    
C6    C38   1.454878 S    
O19   C66   1.262753 A    
C96   C98   1.477471 S    
C99   C101  1.477500 S    
C43   C47   1.246351 T    
C116  H34   1.110946 S    
O50   C108  1.410679 S    
C7    C39   1.455358 S    
O43   Cu12  1.834920 S    
C13   C19   1.537788 S    
C47   C51   1.477938 S    
C113  H28   1.110387 S    
C26   H2    1.110460 S    
C109  C110  1.525913 S    
C14   C20   1.537577 S    
C119  O55   1.219712 D    
C11   C38   1.543964 S    
O27   Cu7   1.976460 S    
O25   Cu7   1.975999 S    
O37   C75   1.318054 A    
C18   C22   1.527980 S    
C35   C39   1.537662 S    
C81   C83   1.246272 T    
C80   C92   1.504074 S    
C3    C43   1.503767 S    
C23   C32   1.539786 S    
C28   H4    1.110443 S    
C13   C29   1.547690 S    
O39   C75   1.317843 A    
C18   O50   1.411894 S    
C126  H46   1.084434 S    
C10   C18   1.538113 S    
C109  H19   1.111778 S    
C125  H45   1.084498 S    
C22   C26   1.539780 S    
C25   H1    1.110436 S    
C45   C49   1.477945 S    
C105  H9    1.111262 S    
C12   C120  1.497777 S    
O33   C73   1.317763 A    
C63   C77   1.504101 S    
Cu9   O45   1.834734 S    
C90   C92   1.246489 T    
O16   C8    1.236273 A    
C106  H12   1.111750 S    
C113  H29   1.110881 S    
O20   C66   1.262501 A    
C42   C46   1.246387 T    
C114  C115  1.527229 S    
C9    C117  1.498008 S    
C123  H43   1.084347 S    
C41   C45   1.246361 T    
C120  H40   1.083979 S    
Cu5   O29   1.833123 S    
O4    C4    1.262322 A    
C110  H22   1.110883 S    
C94   C96   1.246125 T    
C26   C34   1.544826 S    
C16   C32   1.546648 S    
C107  H15   1.110882 S    
C52   C56   1.246472 T    
O23   C68   1.232487 A    
O11   C7    1.232087 A    
C4    C44   1.503735 S    
C25   C33   1.545785 S    
C112  H25   1.111992 S    
C13   C39   1.543053 S    
C11   C27   1.545878 S    
O36   Cu12  1.834679 S    
O1    Cu1   1.833040 S    
C101  C103  1.246175 T    
O9    Cu1   1.976699 S    
Cu7   Cu8   2.499334 S    
O37   Cu9   1.835417 S    
C12   C37   1.541459 S    
C111  C112  1.527453 S    
C13   C121  1.498125 S    
O40   Cu9   1.834917 S    
C118  H38   1.084399 S    
C93   C95   1.246125 T    
C107  H14   1.110347 S    
O48   C80   1.317618 A    
C127  O63   1.220038 D    
O12   Cu2   1.976548 S    
C28   C33   1.544780 S    
C124  O60   1.219955 D    
C14   C30   1.546040 S    
O22   C68   1.232802 A    
C113  H27   1.110924 S    
C108  H17   1.114767 S    
C114  H30   1.111006 S    
O28   Cu8   1.976463 S    
O46   C79   1.317494 A    
C56   C60   1.478010 S    
O1    C1    1.262383 A    
C119  H39   1.084362 S    
C111  H24   1.114936 S    
C58   C62   1.246504 T    
O31   C72   1.262463 A    
C33   C37   1.537449 S    
O52   C114  1.411403 S    
C23   C29   1.540702 S    
O11   Cu2   1.976699 S    
C19   C23   1.529395 S    
O16   Cu4   1.976917 S    
O18   C65   1.262498 A    
C128  H48   1.084487 S    
C54   C58   1.478021 S    
C19   O51   1.411894 S    
C16   C19   1.536021 S    
C30   C36   1.544345 S    
O7    Cu4   1.832228 S    
C33   C125  1.496567 S    
O29   C71   1.262471 A    
C9    C25   1.548678 S    
C15   C40   1.545815 S    
C125  O61   1.219990 D    
O13   Cu3   1.976762 S    
C89   C91   1.246476 T    
O7    C3    1.262215 A    
C110  H21   1.110411 S    
C115  C116  1.526053 S    
O5    C1    1.262240 A    
C121  H41   1.084387 S    
O41   C77   1.318028 A    
C112  C113  1.525894 S    
C62   C76   1.504072 S    
C50   C54   1.246478 T    
O6    Cu3   1.832458 S    
C49   C53   1.246490 T    
O8    C4    1.262384 A    
C106  C107  1.525923 S    
O21   Cu5   1.975999 S    
O35   Cu11  1.834514 S    
C122  O58   1.219361 D    
O9    C5    1.232318 A    
O24   C67   1.233474 A    
C14   C122  1.498945 S    
C60   C64   1.246495 T    
C12   C17   1.536389 S    
C85   C88   1.246398 T    
O15   Cu4   1.976762 S    
C30   H6    1.110672 S    
C105  C106  1.527446 S    
C112  H26   1.111773 S    
C86   C87   1.246405 T    
Cu8   O32   1.833353 S    
C29   H5    1.110467 S    
O17   Cu5   1.832769 S    
C27   C34   1.545156 S    
C11   C119  1.498244 S    
C2    C42   1.503735 S    
C24   C31   1.537002 S    
C36   C128  1.498610 S    
O38   C76   1.318035 A    
C84   C86   1.477794 S    
O22   Cu6   1.975997 S    
C97   C100  1.246151 T    
C120  O56   1.219921 D    
C15   C31   1.546962 S    
C98   C99   1.246154 T    
O8    Cu4   1.832459 S    
Cu7   O31   1.833123 S    
O26   C70   1.234557 A    
C35   C127  1.496615 S    
C48   C52   1.477948 S    
C9    C17   1.537194 S    
O2    C2    1.262312 A    
O17   C65   1.262755 A    
O45   C79   1.317763 A    
Cu6   O30   1.833353 S    
O47   C80   1.317656 A    
C107  H13   1.110927 S    
O15   C7    1.235159 A    
O36   C74   1.317826 A    
C79   C91   1.504045 S    
C66   C82   1.503695 S    
C116  H36   1.110888 S    
C24   C30   1.539641 S    
C110  H20   1.110922 S    
Cu1   Cu3   2.498366 S    
C124  H44   1.083971 S    
C57   C61   1.246515 T    
C21   C67   1.449448 S    
C95   C97   1.477471 S    
O14   C6    1.234866 A    
C10   C118  1.498190 S    
Cu2   Cu4   2.498366 S    
C10   C26   1.547297 S    
O3    Cu2   1.833040 S    
O40   C76   1.317850 A    
O14   Cu3   1.976917 S    
C31   C36   1.546924 S    
C9    C37   1.543679 S    
C111  H23   1.111211 S    
C108  C109  1.527520 S    
C16   C124  1.497724 S    
C32   H8    1.110454 S    
C55   C59   1.478043 S    
O44   C78   1.317824 A    
O4    Cu2   1.832813 S    
Cu9   Cu10  2.696468 S    
C32   C35   1.545750 S    
C128  O64   1.219320 D    
O6    C2    1.262343 A    
Cu11  O47   1.834734 S    
C22   C68   1.448398 S    
O42   Cu12  1.835415 S    
O21   C67   1.232274 A    
C5    C37   1.455220 S    
C115  H33   1.111745 S    
C11   C18   1.536435 S    
O25   C69   1.232747 A    
C100  C102  1.477500 S    
C1    C41   1.503718 S    
O34   C73   1.317829 A    
C88   C90   1.477970 S    
C15   C20   1.536200 S    
C72   C94   1.503383 S    
C116  H35   1.110339 S    
O34   Cu10  1.834679 S    
C121  O57   1.219720 D    
C21   C25   1.540387 S    
Cu11  Cu12  2.696468 S    
O44   Cu11  1.834917 S    
C27   H3    1.110422 S    
O5    Cu3   1.832228 S    
O10   C6    1.232177 A    
C108  H16   1.110993 S    
C31   H7    1.110367 S    
O39   Cu10  1.834920 S    
C102  C104  1.246172 T    
O19   Cu7   1.832769 S    
O23   Cu5   1.976460 S    
C10   C38   1.544542 S    
C117  H37   1.084363 S    
O18   Cu6   1.832538 S    
C122  H42   1.084458 S    
C21   C28   1.540454 S    
C126  O62   1.220087 D    
O38   Cu10  1.835415 S    
O2    Cu1   1.832813 S    
C82   C84   1.246295 T    
C22   C27   1.538492 S    
C83   C85   1.477759 S    
C20   O52   1.411945 S    
C17   C21   1.529256 S    
C117  O53   1.219693 D    
C73   C103  1.503519 S    
C105  H10   1.115004 S    
O20   Cu8   1.832538 S    
C74   C104  1.503519 S    
O41   Cu11  1.835417 S    
C106  H11   1.111950 S    
C17   O49   1.411860 S    
O51   C111  1.410728 S    
C51   C55   1.246486 T    
C36   C40   1.539959 S    
C20   C24   1.526664 S    
C15   C123  1.498064 S    
O10   Cu1   1.976548 S    
O12   C8    1.235007 A    
C115  H32   1.111860 S    
C46   C50   1.477953 S    
C34   C38   1.537950 S    
C114  H31   1.115028 S    
C65   C81   1.503684 S    
C109  H18   1.111992 S    
O35   C74   1.317763 A    
O26   Cu8   1.975997 S    
C8    C40   1.455490 S    
C23   C69   1.449430 S    
C29   C35   1.544590 S    
O49   C105  1.410889 S    
O42   C78   1.318053 A    
C53   C57   1.478041 S    
C127  H47   1.084486 S    
C34   C126  1.495946 S    
O28   C69   1.233007 A    
O13   C5    1.234871 A    
