data_mof_unit_27357.cif
_audit_creation_date              2012-12-10T20:41:45-0500
_audit_creation_method            fapswitch 2.2
_symmetry_space_group_name_H-M    P1
_symmetry_Int_Tables_number       1
_space_group_crystal_system       triclinic
_cell_length_a                    14.85523
_cell_length_b                    15.218804
_cell_length_c                    9.892322
_cell_angle_alpha                 89.834169
_cell_angle_beta                  90.348968
_cell_angle_gamma                 90.18939
_cell_volume                      2236.38168413

loop_
_atom_site_label
_atom_site_type_symbol
_atom_type_description
_atom_site_fract_x
_atom_site_fract_y
_atom_site_fract_z
_atom_type_partial_charge
C1    C     C_R   0.384363 0.875651 0.499621 0.877473
C2    C     C_R   0.387590 0.126469 0.499767 0.891464
C3    C     C_R   0.884360 0.375653 0.499621 0.877495
C4    C     C_R   0.887588 0.626467 0.499767 0.891482
C5    C     C_3   0.330383 0.259563 0.759497 -0.107549
C6    C     C_3   0.314391 0.756197 0.755575 -0.110478
C7    C     C_3   0.830413 0.759583 0.759494 -0.107490
C8    C     C_3   0.814345 0.256225 0.755574 -0.110450
C9    C     C_R   0.430582 0.038168 0.069316 0.200474
C10   C     C_R   0.930586 0.538176 0.069314 0.200365
C11   C     C_R   0.572966 0.972476 0.072770 -0.143281
C12   C     C_R   0.072960 0.472465 0.072770 -0.143248
C13   C     C_R   0.573193 0.973418 0.929087 -0.144662
C14   C     C_R   0.073188 0.473409 0.929088 -0.144613
C15   C     C_R   0.429767 0.034296 0.927323 0.127394
C16   C     C_R   0.929771 0.534300 0.927321 0.127405
C17   C     C_3   0.334038 0.008020 0.915832 -0.543797
C18   C     C_3   0.834044 0.508029 0.915816 -0.543758
C19   C     C_3   0.330350 0.019019 0.068777 0.164273
C20   C     C_3   0.830347 0.519039 0.068757 0.164262
C21   C     C_R   0.624492 0.115544 0.499575 0.868290
C22   C     C_R   0.622613 0.882207 0.499849 0.872044
C23   C     C_R   0.124492 0.615543 0.499576 0.868313
C24   C     C_R   0.122612 0.382204 0.499848 0.872055
C25   C     C_R   0.328475 0.263271 0.607101 0.098814
C26   C     C_R   0.325117 0.740502 0.607575 0.083581
C27   C     C_R   0.828462 0.763259 0.607100 0.098755
C28   C     C_R   0.825115 0.240508 0.607582 0.083588
C29   C     C_R   0.339380 0.207955 0.495570 -0.134378
C30   C     C_R   0.334568 0.795135 0.495022 -0.122289
C31   C     C_R   0.839369 0.707946 0.495571 -0.134372
C32   C     C_R   0.834562 0.295140 0.495026 -0.122270
C33   C     C_R   0.299795 0.233833 0.372517 -0.215914
C34   C     C_R   0.297985 0.767032 0.371279 -0.240893
C35   C     C_R   0.799780 0.733821 0.372522 -0.215906
C36   C     C_R   0.797977 0.267040 0.371282 -0.240976
C37   C     C_R   0.729610 0.793396 0.372561 -0.231814
C38   C     C_R   0.732205 0.202875 0.371011 -0.225080
C39   C     C_R   0.229622 0.293405 0.372556 -0.231817
C40   C     C_R   0.232207 0.702871 0.371013 -0.225108
C41   C     C_R   0.701415 0.829171 0.495797 -0.094760
C42   C     C_R   0.705655 0.165471 0.494437 -0.085054
C43   C     C_R   0.201417 0.329171 0.495793 -0.094749
C44   C     C_R   0.205655 0.665469 0.494441 -0.085070
C45   C     C_R   0.757294 0.819347 0.607574 0.110948
C46   C     C_R   0.761855 0.174958 0.606588 0.093211
C47   C     C_R   0.257295 0.319350 0.607573 0.110929
C48   C     C_R   0.261862 0.674952 0.606587 0.093232
C49   C     C_3   0.746925 0.818865 0.756231 -0.551549
C50   C     C_3   0.744620 0.182149 0.754305 -0.515104
C51   C     C_3   0.246883 0.318823 0.756221 -0.551566
C52   C     C_3   0.244663 0.682120 0.754321 -0.515092
H1    H     H_    0.317399 0.203294 0.278645 0.195066
H2    H     H_    0.313164 0.799257 0.276990 0.187753
H3    H     H_    0.817382 0.703281 0.278655 0.195040
H4    H     H_    0.813147 0.299274 0.276997 0.187777
H5    H     H_    0.694252 0.806098 0.278422 0.168302
H6    H     H_    0.697127 0.189381 0.276928 0.171155
H7    H     H_    0.194266 0.306109 0.278416 0.168278
H8    H     H_    0.197129 0.689377 0.276929 0.171146
H9    H     H_    0.757115 0.885662 0.798541 0.189218
H10   H     H_    0.765125 0.121629 0.809524 0.197040
H11   H     H_    0.257050 0.385609 0.798581 0.189224
H12   H     H_    0.265186 0.621596 0.809517 0.197038
H13   H     H_    0.684441 0.784567 0.788755 0.194222
H14   H     H_    0.675438 0.204862 0.775394 0.212541
H15   H     H_    0.184398 0.284502 0.788684 0.194240
H16   H     H_    0.175485 0.704828 0.775462 0.212532
H17   H     H_    0.316225 0.193729 0.801919 0.165360
H18   H     H_    0.284045 0.821004 0.776891 0.159442
H19   H     H_    0.816243 0.693761 0.801952 0.165355
H20   H     H_    0.783990 0.321033 0.776854 0.159445
H21   H     H_    0.631376 0.948643 0.127147 0.143774
H22   H     H_    0.131367 0.448624 0.127147 0.143753
H23   H     H_    0.631816 0.951259 0.875953 0.142553
H24   H     H_    0.131808 0.451246 0.875954 0.142544
H25   H     H_    0.292274 0.054987 0.857467 0.176428
H26   H     H_    0.327461 0.939213 0.882208 0.199438
H27   H     H_    0.792292 0.554998 0.857433 0.176429
H28   H     H_    0.827466 0.439219 0.882204 0.199474
N1    N     N_R   0.499140 0.000000 0.142800 -0.100004
N2    N     N_R   0.999140 0.500000 0.142800 -0.100006
N3    N     N_R   0.499160 0.000000 0.857150 -0.097216
N4    N     N_R   0.999160 0.500000 0.857150 -0.097255
O1    O     O_R   0.408400 0.908380 0.614690 -0.620544
O2    O     O_R   0.408400 0.091620 0.614690 -0.623919
O3    O     O_R   0.908400 0.408380 0.614690 -0.620551
O4    O     O_R   0.908400 0.591620 0.614690 -0.623914
O5    O     O_R   0.408370 0.908370 0.385350 -0.609860
O6    O     O_R   0.408370 0.091630 0.385350 -0.610677
O7    O     O_R   0.908370 0.408370 0.385350 -0.609859
O8    O     O_R   0.908370 0.591630 0.385350 -0.610708
O9    O     O_R   0.591610 0.091610 0.614650 -0.629541
O10   O     O_R   0.591610 0.908390 0.614650 -0.624467
O11   O     O_R   0.091610 0.591610 0.614650 -0.629524
O12   O     O_R   0.091610 0.408390 0.614650 -0.624454
O13   O     O_R   0.591590 0.091600 0.385310 -0.626428
O14   O     O_R   0.591590 0.908400 0.385310 -0.629431
O15   O     O_R   0.091590 0.591600 0.385310 -0.626429
O16   O     O_R   0.091590 0.408400 0.385310 -0.629427
Zn1   Zn    Zn3+2 0.500010 0.000000 0.653130 0.922781
Zn2   Zn    Zn3+2 0.000010 0.500000 0.653130 0.922779
Zn3   Zn    Zn3+2 0.499980 0.000000 0.346870 0.947516
Zn4   Zn    Zn3+2 0.999980 0.500000 0.346870 0.947515
N5    N     N_3   0.275682 0.094490 0.108875 -0.477252
H29   H     H_    0.208457 0.081048 0.084183 0.183750
H30   H     H_    0.294442 0.150071 0.052974 0.158624
N6    N     N_3   0.304794 0.939033 0.140543 -0.442304
H31   H     H_    0.245728 0.914526 0.096279 0.159435
H32   H     H_    0.286578 0.956704 0.238592 0.225267
N7    N     N_3   0.775675 0.594517 0.108818 -0.477293
H33   H     H_    0.794577 0.650120 0.053123 0.158584
H34   H     H_    0.708498 0.581172 0.083831 0.183766
N8    N     N_3   0.804771 0.439062 0.140531 -0.442268
H35   H     H_    0.786586 0.456741 0.238590 0.225302
H36   H     H_    0.745681 0.414585 0.096295 0.159475
C53   C     C_3   0.412105 0.308447 0.822506 -0.379111
C54   C     C_3   0.482479 0.245724 0.880626 -0.336281
C55   C     C_3   0.561175 0.296196 0.943782 -0.939410
H37   H     H_    0.596221 0.336097 0.865848 0.258362
H38   H     H_    0.536889 0.340300 0.024984 0.265954
H39   H     H_    0.609797 0.249184 0.989252 0.251917
H40   H     H_    0.450772 0.205943 0.961382 0.212184
H41   H     H_    0.507600 0.201652 0.800037 0.251431
H42   H     H_    0.443977 0.352760 0.746761 0.209013
H43   H     H_    0.388580 0.350203 0.907375 0.204900
C56   C     C_3   0.401520 0.735762 0.834416 -0.361764
C57   C     C_3   0.386248 0.737360 0.987334 -0.357372
C58   C     C_3   0.474577 0.726084 0.065009 -0.865375
H44   H     H_    0.505837 0.662008 0.039999 0.248704
H45   H     H_    0.522141 0.780001 0.039478 0.262374
H46   H     H_    0.461482 0.727959 0.175340 0.260693
H47   H     H_    0.356003 0.800901 0.015822 0.238246
H48   H     H_    0.339086 0.683919 0.016813 0.221698
H49   H     H_    0.428263 0.670363 0.804916 0.199640
H50   H     H_    0.452776 0.786212 0.807675 0.224880
C59   C     C_3   0.912178 0.808447 0.822414 -0.379152
C60   C     C_3   0.982465 0.745711 0.880713 -0.336439
C61   C     C_3   0.061174 0.796157 0.943879 -0.939377
H51   H     H_    0.096263 0.836018 0.865942 0.258361
H52   H     H_    0.036894 0.840297 0.025038 0.265943
H53   H     H_    0.109758 0.749131 0.989406 0.251929
H54   H     H_    0.950689 0.706004 0.961484 0.212196
H55   H     H_    0.007588 0.701572 0.800220 0.251461
H56   H     H_    0.944118 0.852631 0.746577 0.209005
H57   H     H_    0.888699 0.850323 0.907156 0.204971
C62   C     C_3   0.901441 0.235799 0.834513 -0.361745
C63   C     C_3   0.886055 0.237282 0.987409 -0.357606
C64   C     C_3   0.974302 0.225888 0.065233 -0.865478
H58   H     H_    0.005532 0.161830 0.040092 0.248767
H59   H     H_    0.021919 0.279816 0.039973 0.262458
H60   H     H_    0.961098 0.227620 0.175548 0.260660
H61   H     H_    0.855816 0.300796 0.015984 0.238287
H62   H     H_    0.838854 0.183837 0.016685 0.221743
H63   H     H_    0.928236 0.170437 0.804956 0.199672
H64   H     H_    0.952685 0.286295 0.807937 0.224871

loop_
_geom_bond_atom_site_label_1
_geom_bond_atom_site_label_2
_ccdc_geom_bond_type
C23   O15   A    
C6    H18   S    
C22   O14   A    
O12   Zn2   S    
C33   H1    S    
N4    Zn2   S    
N5    H29   S    
C62   C63   S    
C14   N4    A    
O7    Zn4   S    
C57   C58   S    
N8    H35   S    
C11   N1    A    
C58   H45   S    
N5    H30   S    
C28   C46   A    
C33   C39   A    
C49   H13   S    
C23   O11   A    
C2    C29   S    
C34   C40   A    
C32   C36   A    
C59   H56   S    
C35   C37   A    
C56   H49   S    
C6    C56   S    
C38   C42   A    
C12   H22   S    
C60   H54   S    
C64   H59   S    
C7    H19   S    
C61   H53   S    
C22   C41   S    
O14   Zn3   S    
C20   N7    S    
C29   C33   A    
C16   N4    A    
C7    C27   S    
N6    H31   S    
C3    O7    A    
C42   C46   A    
C2    O6    A    
C54   C55   S    
C17   H26   S    
C5    H17   S    
C38   H6    S    
C9    C19   S    
O16   Zn4   S    
C13   H23   S    
O10   Zn1   S    
C10   C20   S    
C18   H27   S    
C62   H63   S    
C53   H43   S    
C25   C47   A    
C40   C44   A    
C52   H16   S    
O11   Zn2   S    
C26   C48   A    
C58   H46   S    
C19   N6    S    
C27   C45   A    
O15   Zn4   S    
C54   H41   S    
O5    Zn3   S    
C1    O1    A    
C22   O10   A    
C63   H62   S    
C55   H38   S    
C25   C29   A    
C8    H20   S    
C49   H9    S    
C30   C34   A    
C3    O3    A    
C61   H52   S    
C59   H57   S    
C28   C32   A    
C51   H11   S    
C56   H50   S    
C7    C49   S    
C52   H12   S    
C64   H60   S    
O9    Zn1   S    
C7    C59   S    
C47   C51   S    
C27   C31   A    
C10   N2    A    
C35   H3    S    
C23   C44   S    
N2    Zn4   S    
C5    C53   S    
C14   H24   S    
C57   H47   S    
C36   H4    S    
C57   H48   S    
O3    Zn2   S    
C21   O13   A    
O4    Zn2   S    
C45   C49   S    
C61   H51   S    
C39   H7    S    
C17   H25   S    
C12   N2    A    
N7    H34   S    
C51   H15   S    
C63   C64   S    
C62   H64   S    
C50   H14   S    
O13   Zn3   S    
C5    C25   S    
C19   N5    S    
C18   H28   S    
C12   C14   A    
C34   H2    S    
C11   H21   S    
C50   H10   S    
C31   C35   A    
C8    C62   S    
C63   H61   S    
C56   C57   S    
C8    C50   S    
O1    Zn1   S    
C53   H42   S    
C58   H44   S    
N1    Zn3   S    
C55   H39   S    
C15   C17   S    
C13   N3    A    
C1    O5    A    
N3    Zn1   S    
N7    H33   S    
C24   O16   A    
N8    H36   S    
C55   H37   S    
C26   C30   A    
C4    O4    A    
C59   C60   S    
C46   C50   S    
C24   O12   A    
C9    C15   A    
C10   C16   A    
C64   H58   S    
C20   N8    S    
C11   C13   A    
C6    C26   S    
C21   O9    A    
C15   N3    A    
C36   C38   A    
C1    C30   S    
C17   C19   S    
N6    H32   S    
C2    O2    A    
C18   C20   S    
C54   H40   S    
C37   C41   A    
C3    C32   S    
O6    Zn3   S    
C4    C31   S    
C60   C61   S    
O8    Zn4   S    
C21   C42   S    
C48   C52   S    
C39   C43   A    
C8    C28   S    
C16   C18   S    
C40   H8    S    
C24   C43   S    
C41   C45   A    
C5    C51   S    
C60   H55   S    
C6    C52   S    
C53   C54   S    
O2    Zn1   S    
C43   C47   A    
C37   H5    S    
C44   C48   A    
C9    N1    A    
C4    O8    A    
