data_mof_unit_31662.cif
_audit_creation_date              2012-12-10T18:08:42-0500
_audit_creation_method            fapswitch 2.2
_symmetry_space_group_name_H-M    P1
_symmetry_Int_Tables_number       1
_space_group_crystal_system       triclinic
_cell_length_a                    18.355861
_cell_length_b                    18.372056
_cell_length_c                    51.280612
_cell_angle_alpha                 89.942948
_cell_angle_beta                  90.055589
_cell_angle_gamma                 90.32545
_cell_volume                      17293.3167776

loop_
_atom_site_label
_atom_site_type_symbol
_atom_type_description
_atom_site_fract_x
_atom_site_fract_y
_atom_site_fract_z
_atom_type_partial_charge
C1    C     C_R   0.000103 0.499963 0.820068 0.878730
C2    C     C_R   0.000028 0.500059 0.179823 0.811321
C3    C     C_R   0.500023 0.999955 0.820195 0.810147
C4    C     C_R   0.499914 0.999891 0.179861 0.849322
C5    C     C_R   0.500132 0.999920 0.320087 0.875082
C6    C     C_R   0.499978 0.000057 0.679838 0.813330
C7    C     C_R   0.999987 0.499886 0.320193 0.810554
C8    C     C_R   0.999929 0.500252 0.679855 0.849556
C9    C     C_R   0.949397 0.546143 0.637716 0.411629
C10   C     C_R   0.053818 0.461241 0.363074 0.390906
C11   C     C_R   0.465336 0.056907 0.637128 0.387919
C12   C     C_R   0.550965 0.042720 0.362575 0.370996
C13   C     C_R   0.048472 0.457974 0.636908 0.400723
C14   C     C_R   0.944052 0.535713 0.362846 0.398680
C15   C     C_R   0.534161 0.943638 0.637134 0.392988
C16   C     C_R   0.451274 0.954509 0.362396 0.382103
C17   C     C_R   0.448654 0.042004 0.137357 0.414080
C18   C     C_R   0.554716 0.962292 0.863024 0.391928
C19   C     C_R   0.968141 0.558328 0.137045 0.381956
C20   C     C_R   0.052129 0.542558 0.862303 0.377675
C21   C     C_R   0.548388 0.954502 0.137322 0.400079
C22   C     C_R   0.444634 0.036305 0.862924 0.396335
C23   C     C_R   0.032477 0.442508 0.137081 0.394283
C24   C     C_R   0.950258 0.456729 0.862510 0.379397
C25   C     C_R   0.999463 0.501568 0.651127 -0.205459
C26   C     C_R   0.999563 0.499187 0.349016 -0.250202
C27   C     C_R   0.499819 0.000212 0.651056 -0.245740
C28   C     C_R   0.500578 0.999394 0.348724 -0.226514
C29   C     C_R   0.499318 0.999061 0.151145 -0.205620
C30   C     C_R   0.499922 0.999635 0.849024 -0.250754
C31   C     C_R   0.000152 0.500265 0.151013 -0.249920
C32   C     C_R   0.000772 0.499825 0.848669 -0.223061
C33   C     C_R   0.996452 0.502592 0.596239 0.191129
C34   C     C_R   0.996712 0.496013 0.403903 0.185146
C35   C     C_R   0.499215 0.000156 0.596073 0.163655
C36   C     C_R   0.502426 0.996489 0.403560 0.170947
C37   C     C_R   0.496024 0.995889 0.096304 0.191043
C38   C     C_R   0.498589 0.997871 0.903934 0.184616
C39   C     C_R   0.000208 0.500497 0.095975 0.152892
C40   C     C_R   0.002193 0.499365 0.903434 0.183896
C41   C     C_R   0.859689 0.640523 0.749925 0.905863
C42   C     C_R   0.140349 0.359795 0.249968 0.891664
C43   C     C_R   0.359869 0.859939 0.750019 0.892715
C44   C     C_R   0.640241 0.140589 0.249923 0.929777
C45   C     C_R   0.140314 0.359480 0.749949 0.906319
C46   C     C_R   0.859673 0.640228 0.249964 0.891753
C47   C     C_R   0.640116 0.140112 0.750036 0.893774
C48   C     C_R   0.359721 0.859416 0.249934 0.931539
C49   C     C_R   0.859842 0.359971 0.250006 0.892344
C50   C     C_R   0.140265 0.640556 0.749935 0.931043
C51   C     C_R   0.359663 0.140498 0.249939 0.906634
C52   C     C_R   0.640351 0.859795 0.749969 0.891124
C53   C     C_R   0.140141 0.640081 0.250030 0.893103
C54   C     C_R   0.859698 0.359449 0.749944 0.933190
C55   C     C_R   0.640366 0.859532 0.249979 0.906110
C56   C     C_R   0.359667 0.140223 0.749962 0.891221
C57   C     C_R   0.764056 0.288111 0.726742 0.329830
C58   C     C_R   0.232310 0.712935 0.273113 0.325081
C59   C     C_R   0.681531 0.735440 0.738788 0.315165
C60   C     C_R   0.316437 0.263789 0.262685 0.329732
C61   C     C_R   0.235617 0.712219 0.726700 0.329545
C62   C     C_R   0.767861 0.286899 0.273074 0.324574
C63   C     C_R   0.318470 0.264668 0.738836 0.315205
C64   C     C_R   0.683781 0.736293 0.262807 0.329950
C65   C     C_R   0.734694 0.680799 0.260589 0.311750
C66   C     C_R   0.262929 0.315554 0.736719 0.325054
C67   C     C_R   0.709207 0.238554 0.272586 0.310729
C68   C     C_R   0.283326 0.771498 0.726155 0.343815
C69   C     C_R   0.265438 0.319250 0.260530 0.312513
C70   C     C_R   0.737076 0.684594 0.736644 0.324571
C71   C     C_R   0.290876 0.761397 0.272627 0.310376
C72   C     C_R   0.716273 0.228913 0.726197 0.343972
C73   C     C_R   0.263996 0.788111 0.226740 0.330605
C74   C     C_R   0.731880 0.213361 0.773167 0.324265
C75   C     C_R   0.181340 0.235265 0.238946 0.315965
C76   C     C_R   0.816387 0.763726 0.762750 0.329812
C77   C     C_R   0.735785 0.212093 0.226699 0.330332
C78   C     C_R   0.268283 0.786470 0.773140 0.324665
C79   C     C_R   0.818796 0.764966 0.239102 0.316127
C80   C     C_R   0.183791 0.236315 0.762847 0.329753
C81   C     C_R   0.234762 0.180851 0.760699 0.312662
C82   C     C_R   0.763331 0.815957 0.237004 0.324280
C83   C     C_R   0.209679 0.738037 0.772684 0.310678
C84   C     C_R   0.783466 0.271404 0.226140 0.343106
C85   C     C_R   0.765376 0.819183 0.760622 0.313059
C86   C     C_R   0.236822 0.184325 0.236830 0.324201
C87   C     C_R   0.790408 0.261897 0.772711 0.310347
C88   C     C_R   0.216340 0.728800 0.226178 0.342908
C89   C     C_R   0.696869 0.194890 0.749765 -0.362071
C90   C     C_R   0.304092 0.802473 0.249763 -0.379731
C91   C     C_R   0.803803 0.696896 0.749767 -0.382354
C92   C     C_R   0.196405 0.304064 0.249831 -0.357118
C93   C     C_R   0.303061 0.805201 0.749733 -0.362178
C94   C     C_R   0.695840 0.197584 0.249730 -0.378630
C95   C     C_R   0.196260 0.303167 0.749839 -0.382522
C96   C     C_R   0.803680 0.696023 0.249878 -0.358021
C97   C     C_R   0.696408 0.803314 0.249928 -0.381996
C98   C     C_R   0.303604 0.195949 0.749838 -0.358388
C99   C     C_R   0.802976 0.305307 0.249702 -0.362652
C100  C     C_R   0.195946 0.697454 0.749768 -0.379038
C101  C     C_R   0.303724 0.196821 0.249810 -0.382462
C102  C     C_R   0.696437 0.804093 0.749819 -0.358204
C103  C     C_R   0.197011 0.694724 0.249739 -0.362779
C104  C     C_R   0.803963 0.302627 0.749795 -0.379672
C105  C     C_R   0.518053 0.058854 0.945103 0.570292
C106  C     C_R   0.471673 0.935134 0.055200 0.570512
C107  C     C_R   0.940407 0.519294 0.944452 0.571612
C108  C     C_R   0.063614 0.487306 0.054742 0.568909
C109  C     C_R   0.475527 0.936010 0.944779 0.562408
C110  C     C_R   0.516185 0.057246 0.055233 0.551832
C111  C     C_R   0.063387 0.478461 0.944646 0.560630
C112  C     C_R   0.935955 0.510519 0.054543 0.553349
C113  C     C_R   0.016090 0.558394 0.444706 0.559045
C114  C     C_R   0.970963 0.440692 0.555523 0.566002
C115  C     C_R   0.438865 0.012302 0.444492 0.567370
C116  C     C_R   0.563013 0.989898 0.554836 0.566562
C117  C     C_R   0.972853 0.435884 0.445104 0.567218
C118  C     C_R   0.013077 0.563698 0.554763 0.559823
C119  C     C_R   0.563731 0.976990 0.445011 0.552224
C120  C     C_R   0.434524 0.007206 0.554703 0.562830
C121  C     C_R   0.473705 0.934248 0.972301 -0.154226
C122  C     C_R   0.509498 0.061704 0.027841 -0.177008
C123  C     C_R   0.065350 0.480184 0.972135 -0.145768
C124  C     C_R   0.933736 0.506611 0.027004 -0.166127
C125  C     C_R   0.512719 0.062122 0.972583 -0.168836
C126  C     C_R   0.469912 0.934199 0.027634 -0.150881
C127  C     C_R   0.936128 0.512989 0.971826 -0.157404
C128  C     C_R   0.064453 0.481542 0.027335 -0.139829
C129  C     C_R   0.970494 0.435686 0.472662 -0.152385
C130  C     C_R   0.006969 0.566400 0.527297 -0.179136
C131  C     C_R   0.563178 0.971657 0.472513 -0.172984
C132  C     C_R   0.433605 0.008713 0.527196 -0.149939
C133  C     C_R   0.008142 0.563781 0.472030 -0.179742
C134  C     C_R   0.967857 0.438674 0.527995 -0.151307
C135  C     C_R   0.435339 0.009108 0.471945 -0.149914
C136  C     C_R   0.563291 0.979148 0.527628 -0.162509
C137  C     C_R   0.491109 0.998503 0.986252 -0.140260
C138  C     C_R   0.489747 0.998251 0.013899 -0.138691
C139  C     C_R   0.000099 0.495051 0.985778 -0.151352
C140  C     C_R   0.999411 0.494396 0.013372 -0.145487
C141  C     C_R   0.987840 0.500712 0.486171 -0.139626
C142  C     C_R   0.987014 0.502087 0.513820 -0.141763
C143  C     C_R   0.498876 0.990616 0.486013 -0.140627
C144  C     C_R   0.498392 0.992097 0.513607 -0.147507
C145  C     C_R   0.455526 0.870094 0.986171 0.363025
C146  C     C_R   0.523617 0.127200 0.014054 0.406515
C147  C     C_R   0.130274 0.467042 0.986213 0.385241
C148  C     C_R   0.867947 0.515195 0.012752 0.396000
C149  C     C_R   0.528192 0.126850 0.986668 0.395973
C150  C     C_R   0.449496 0.871190 0.013509 0.364357
C151  C     C_R   0.869879 0.523345 0.985450 0.402485
C152  C     C_R   0.128526 0.463247 0.013647 0.366917
C153  C     C_R   0.951475 0.372556 0.486981 0.366158
C154  C     C_R   0.020751 0.631068 0.512961 0.417473
C155  C     C_R   0.624951 0.948317 0.486897 0.395021
C156  C     C_R   0.369996 0.026279 0.513019 0.371952
C157  C     C_R   0.020392 0.630031 0.485547 0.402742
C158  C     C_R   0.946517 0.375130 0.514337 0.361533
C159  C     C_R   0.370267 0.024236 0.485634 0.363994
C160  C     C_R   0.626160 0.955303 0.514240 0.411652
C161  C     C_R   0.947394 0.545158 0.610387 -0.246732
C162  C     C_R   0.052397 0.460717 0.390393 -0.209376
C163  C     C_R   0.467530 0.057676 0.609867 -0.208554
C164  C     C_R   0.550170 0.042575 0.389906 -0.203959
C165  C     C_R   0.047453 0.459918 0.609541 -0.215990
C166  C     C_R   0.942636 0.532996 0.390091 -0.226734
C167  C     C_R   0.531358 0.942812 0.609906 -0.219800
C168  C     C_R   0.453981 0.951770 0.389649 -0.232651
C169  C     C_R   0.446609 0.039008 0.110062 -0.248905
C170  C     C_R   0.554046 0.962498 0.890334 -0.210434
C171  C     C_R   0.971342 0.559473 0.109803 -0.196224
C172  C     C_R   0.051392 0.543351 0.889613 -0.218527
C173  C     C_R   0.547206 0.954350 0.109945 -0.214104
C174  C     C_R   0.443955 0.034273 0.890196 -0.222346
C175  C     C_R   0.029434 0.441648 0.109852 -0.225367
C176  C     C_R   0.952512 0.455433 0.889795 -0.226652
N1    N     N_R   0.497787 0.997369 0.931966 -0.337532
N2    N     N_R   0.494937 0.995810 0.068240 -0.336116
N3    N     N_R   0.002213 0.499446 0.931505 -0.337757
N4    N     N_R   0.999898 0.499883 0.067783 -0.332428
N5    N     N_R   0.995858 0.496379 0.431926 -0.337286
N6    N     N_R   0.993727 0.502217 0.568163 -0.335511
N7    N     N_R   0.501932 0.995629 0.431683 -0.333412
N8    N     N_R   0.498869 0.999595 0.567921 -0.334546
O1    O     O_3   0.000000 0.500000 0.750000 -0.497822
O2    O     O_3   1.000000 0.500000 0.250000 -0.515013
O3    O     O_3   0.500000 0.000000 0.750000 -0.515098
O4    O     O_3   0.500000 1.000000 0.250000 -0.497822
O5    O     O_R   0.000000 0.439150 0.807730 -0.631411
O6    O     O_R   1.000000 0.560850 0.192270 -0.603806
O7    O     O_R   0.560850 1.000000 0.807730 -0.604785
O8    O     O_R   0.439150 0.000000 0.192270 -0.624198
O9    O     O_R   1.000000 0.560850 0.807730 -0.631521
O10   O     O_R   1.000000 0.439150 0.192270 -0.603567
O11   O     O_R   0.439150 1.000000 0.807730 -0.603952
O12   O     O_R   0.560850 0.000000 0.192270 -0.624211
O13   O     O_R   0.500000 0.939150 0.307730 -0.630964
O14   O     O_R   0.500000 0.060850 0.692270 -0.604596
O15   O     O_R   0.060850 0.500000 0.307730 -0.605024
O16   O     O_R   0.939150 0.500000 0.692270 -0.624736
O17   O     O_R   0.500000 0.060850 0.307730 -0.630718
O18   O     O_R   0.500000 0.939150 0.692270 -0.603119
O19   O     O_R   0.939150 0.500000 0.307730 -0.603925
O20   O     O_R   0.060850 0.500000 0.692270 -0.625121
O21   O     O_R   0.914360 0.646040 0.764890 -0.636300
O22   O     O_R   0.085640 0.353960 0.235110 -0.615706
O23   O     O_R   0.353960 0.914360 0.764890 -0.619254
O24   O     O_R   0.646040 0.085640 0.235110 -0.639000
O25   O     O_R   0.085640 0.353960 0.764890 -0.636611
O26   O     O_R   0.914360 0.646040 0.235110 -0.616396
O27   O     O_R   0.646040 0.085640 0.764890 -0.619111
O28   O     O_R   0.353960 0.914360 0.235110 -0.639159
O29   O     O_R   0.914360 0.353960 0.235110 -0.630543
O30   O     O_R   0.085640 0.646040 0.764890 -0.636011
O31   O     O_R   0.353960 0.085640 0.235110 -0.634792
O32   O     O_R   0.646040 0.914360 0.764890 -0.614310
O33   O     O_R   0.085640 0.646040 0.235110 -0.630620
O34   O     O_R   0.914360 0.353960 0.764890 -0.635615
O35   O     O_R   0.646040 0.914360 0.235110 -0.635815
O36   O     O_R   0.353960 0.085640 0.764890 -0.613617
O37   O     O_R   0.414360 0.146040 0.264890 -0.636154
O38   O     O_R   0.585640 0.853960 0.735110 -0.614870
O39   O     O_R   0.853960 0.414360 0.264890 -0.619056
O40   O     O_R   0.146040 0.585640 0.735110 -0.640024
O41   O     O_R   0.585640 0.853960 0.264890 -0.636254
O42   O     O_R   0.414360 0.146040 0.735110 -0.615736
O43   O     O_R   0.146040 0.585640 0.264890 -0.618807
O44   O     O_R   0.853960 0.414360 0.735110 -0.640393
O45   O     O_R   0.414360 0.853960 0.735110 -0.630877
O46   O     O_R   0.585640 0.146040 0.264890 -0.636256
O47   O     O_R   0.853960 0.585640 0.735110 -0.634320
O48   O     O_R   0.146040 0.414360 0.264890 -0.614264
O49   O     O_R   0.585640 0.146040 0.735110 -0.630891
O50   O     O_R   0.414360 0.853960 0.264890 -0.635853
O51   O     O_R   0.146040 0.414360 0.735110 -0.634479
O52   O     O_R   0.853960 0.585640 0.264890 -0.612924
O53   O     O_2   0.543535 0.116241 0.931420 -0.548765
O54   O     O_2   0.450900 0.876010 0.068986 -0.531031
O55   O     O_2   0.883663 0.545362 0.930704 -0.550115
O56   O     O_2   0.126428 0.482922 0.068328 -0.539427
O57   O     O_2   0.454627 0.877359 0.930774 -0.531924
O58   O     O_2   0.545720 0.112888 0.068851 -0.528850
O59   O     O_2   0.121439 0.454790 0.931037 -0.535138
O60   O     O_2   0.874926 0.525793 0.068051 -0.550577
O61   O     O_2   0.044912 0.613998 0.430880 -0.541623
O62   O     O_2   0.951964 0.381677 0.569694 -0.536539
O63   O     O_2   0.380298 0.033546 0.430565 -0.538002
O64   O     O_2   0.626306 0.992288 0.568160 -0.550272
O65   O     O_2   0.952177 0.376528 0.431452 -0.532281
O66   O     O_2   0.039898 0.621147 0.568086 -0.534050
O67   O     O_2   0.625663 0.964728 0.431620 -0.546087
O68   O     O_2   0.371705 0.012365 0.568192 -0.535178
Zn1   Zn    Zn3+2 0.913060 0.500000 0.727930 0.957691
Zn2   Zn    Zn3+2 0.086940 0.500000 0.272070 0.977692
Zn3   Zn    Zn3+2 0.500000 0.913060 0.727930 0.972250
Zn4   Zn    Zn3+2 0.500000 0.086940 0.272070 0.957688
Zn5   Zn    Zn3+2 0.086940 0.500000 0.727930 0.956784
Zn6   Zn    Zn3+2 0.913060 0.500000 0.272070 0.978667
Zn7   Zn    Zn3+2 0.500000 0.086940 0.727930 0.971529
Zn8   Zn    Zn3+2 0.500000 0.913060 0.272070 0.957652
Zn9   Zn    Zn3+2 0.413060 1.000000 0.227930 0.957935
Zn10  Zn    Zn3+2 0.586940 0.000000 0.772070 0.977616
Zn11  Zn    Zn3+2 1.000000 0.413060 0.227930 0.970978
Zn12  Zn    Zn3+2 1.000000 0.586940 0.772070 0.958204
Zn13  Zn    Zn3+2 0.586940 1.000000 0.227930 0.957024
Zn14  Zn    Zn3+2 0.413060 0.000000 0.772070 0.977983
Zn15  Zn    Zn3+2 1.000000 0.586940 0.227930 0.971172
Zn16  Zn    Zn3+2 1.000000 0.413060 0.772070 0.958765
O69   O     O_3   0.777866 0.325654 0.703796 -0.618664
C177  C     C_3   0.730422 0.386128 0.701703 0.174367
H1    H     H_    0.760125 0.429309 0.690781 0.177201
H2    H     H_    0.715749 0.410384 0.720939 0.121726
C178  C     C_3   0.661138 0.366341 0.686506 -0.336438
H3    H     H_    0.675898 0.337476 0.668235 0.253147
H4    H     H_    0.626280 0.330057 0.698511 0.251076
C179  C     C_3   0.617043 0.433856 0.679722 -1.002642
H5    H     H_    0.602761 0.464206 0.697722 0.273074
H6    H     H_    0.565876 0.417403 0.669713 0.278835
H7    H     H_    0.648738 0.469734 0.666452 0.276289
O70   O     O_3   0.211522 0.681088 0.296439 -0.610075
C180  C     C_3   0.160112 0.726476 0.308694 0.110573
H8    H     H_    0.109662 0.730237 0.296680 0.102649
H9    H     H_    0.183004 0.782080 0.311758 0.159442
C181  C     C_3   0.140171 0.693985 0.335199 -0.298438
H10   H     H_    0.112157 0.640795 0.332275 0.227281
H11   H     H_    0.190644 0.684508 0.346683 0.237411
C182  C     C_3   0.090434 0.744610 0.350537 -1.005932
H12   H     H_    0.119405 0.796285 0.355141 0.277906
H13   H     H_    0.074052 0.717988 0.369098 0.283674
H14   H     H_    0.040659 0.757077 0.339110 0.259692
O71   O     O_3   0.613652 0.718948 0.728549 -0.608973
C183  C     C_3   0.572064 0.682869 0.747816 0.142909
H15   H     H_    0.564688 0.718643 0.765120 0.111414
H16   H     H_    0.598834 0.631273 0.753939 0.157324
C184  C     C_3   0.497044 0.664668 0.736586 -0.312552
H17   H     H_    0.469843 0.715760 0.730436 0.254444
H18   H     H_    0.503464 0.629327 0.719163 0.228589
C185  C     C_3   0.449145 0.625620 0.756555 -1.017104
H19   H     H_    0.473776 0.572746 0.762128 0.272954
H20   H     H_    0.394512 0.615111 0.748025 0.265426
H21   H     H_    0.442478 0.659674 0.774255 0.253739
O72   O     O_3   0.381297 0.278341 0.275581 -0.615093
C186  C     C_3   0.375639 0.256648 0.302073 0.174088
H22   H     H_    0.428972 0.233201 0.307802 0.169097
H23   H     H_    0.334023 0.213089 0.305618 0.100126
C187  C     C_3   0.360471 0.322210 0.319606 -0.361292
H24   H     H_    0.399424 0.366893 0.315050 0.242163
H25   H     H_    0.304606 0.342272 0.315975 0.255097
C188  C     C_3   0.366930 0.302004 0.348385 -0.977464
H26   H     H_    0.327298 0.258233 0.353357 0.269614
H27   H     H_    0.355100 0.350431 0.360571 0.280715
H28   H     H_    0.422876 0.283005 0.352898 0.271260
O73   O     O_3   0.221639 0.674836 0.703751 -0.617739
C189  C     C_3   0.269245 0.614525 0.701600 0.174170
H29   H     H_    0.239638 0.571424 0.690615 0.178110
H30   H     H_    0.284014 0.590026 0.720814 0.121621
C190  C     C_3   0.338451 0.634727 0.686457 -0.334757
H31   H     H_    0.323573 0.663747 0.668200 0.255607
H32   H     H_    0.373200 0.670987 0.698509 0.250529
C191  C     C_3   0.382795 0.567460 0.679651 -1.000262
H33   H     H_    0.397249 0.537000 0.697639 0.272028
H34   H     H_    0.433872 0.584216 0.669669 0.279125
H35   H     H_    0.351212 0.531589 0.666349 0.277459
O74   O     O_3   0.789044 0.318303 0.296421 -0.609791
C192  C     C_3   0.840891 0.272804 0.308447 0.111163
H36   H     H_    0.890850 0.268954 0.296211 0.102250
H37   H     H_    0.817993 0.217243 0.311636 0.159084
C193  C     C_3   0.862008 0.305193 0.334836 -0.301443
H38   H     H_    0.889880 0.358399 0.331763 0.225901
H39   H     H_    0.812065 0.314606 0.346579 0.238915
C194  C     C_3   0.912451 0.254487 0.349903 -0.998218
H40   H     H_    0.883707 0.202763 0.354636 0.278602
H41   H     H_    0.929629 0.281001 0.368383 0.285945
H42   H     H_    0.961718 0.242117 0.338218 0.257095
O75   O     O_3   0.386322 0.281224 0.728627 -0.609707
C195  C     C_3   0.427986 0.317080 0.747929 0.142065
H43   H     H_    0.435326 0.281157 0.765229 0.112207
H44   H     H_    0.401295 0.368665 0.754055 0.157497
C196  C     C_3   0.503010 0.335273 0.736740 -0.313244
H45   H     H_    0.530107 0.284205 0.730559 0.254692
H46   H     H_    0.496609 0.370825 0.719340 0.228455
C197  C     C_3   0.551028 0.374007 0.756753 -1.015515
H47   H     H_    0.526498 0.426856 0.762361 0.272759
H48   H     H_    0.605652 0.384523 0.748248 0.265192
H49   H     H_    0.557685 0.339731 0.774428 0.253659
O76   O     O_3   0.619077 0.721722 0.275766 -0.615153
C198  C     C_3   0.624995 0.743620 0.302219 0.171951
H50   H     H_    0.571467 0.766370 0.308025 0.168499
H51   H     H_    0.666080 0.787774 0.305605 0.100246
C199  C     C_3   0.641459 0.678392 0.319822 -0.353211
H52   H     H_    0.602899 0.633214 0.315461 0.242294
H53   H     H_    0.697474 0.658987 0.316055 0.254136
C200  C     C_3   0.635563 0.698758 0.348588 -0.992856
H54   H     H_    0.674706 0.743131 0.353364 0.268631
H55   H     H_    0.648451 0.650621 0.360825 0.280372
H56   H     H_    0.579476 0.716982 0.353239 0.270444
O77   O     O_3   0.718210 0.612780 0.270650 -0.607429
C201  C     C_3   0.680818 0.572034 0.251479 0.142005
H57   H     H_    0.716098 0.563928 0.234068 0.108257
H58   H     H_    0.629600 0.599798 0.245481 0.159937
C202  C     C_3   0.661255 0.497577 0.262836 -0.317433
H59   H     H_    0.712015 0.468940 0.268528 0.252461
H60   H     H_    0.627255 0.504977 0.280556 0.231113
C203  C     C_3   0.619440 0.450908 0.243238 -1.011681
H61   H     H_    0.567412 0.477530 0.237814 0.271674
H62   H     H_    0.607001 0.397022 0.251989 0.266338
H63   H     H_    0.652582 0.442383 0.225448 0.262871
O78   O     O_3   0.277134 0.380105 0.723627 -0.617459
C204  C     C_3   0.256133 0.373509 0.697084 0.187975
H64   H     H_    0.228028 0.424676 0.691548 0.190818
H65   H     H_    0.216620 0.328270 0.693165 0.103267
C205  C     C_3   0.323283 0.365042 0.679703 -0.370736
H66   H     H_    0.364396 0.407256 0.684774 0.239649
H67   H     H_    0.348059 0.310971 0.682997 0.256463
C206  C     C_3   0.303550 0.371748 0.650888 -0.956270
H68   H     H_    0.264728 0.327979 0.645230 0.263648
H69   H     H_    0.353533 0.366456 0.638879 0.272387
H70   H     H_    0.278554 0.425508 0.646838 0.282033
O79   O     O_3   0.671563 0.225106 0.295511 -0.632273
C207  C     C_3   0.610693 0.272014 0.297372 0.195370
H71   H     H_    0.567635 0.242043 0.308249 0.183030
H72   H     H_    0.586550 0.286290 0.278053 0.118568
C208  C     C_3   0.629811 0.341337 0.312570 -0.343563
H73   H     H_    0.657939 0.326709 0.331036 0.251025
H74   H     H_    0.666684 0.376050 0.300758 0.251472
C209  C     C_3   0.561910 0.385377 0.318868 -0.999760
H75   H     H_    0.531980 0.399145 0.300691 0.274035
H76   H     H_    0.577923 0.436763 0.328772 0.278801
H77   H     H_    0.525704 0.353901 0.332081 0.276845
O80   O     O_3   0.314384 0.792360 0.702649 -0.613953
C210  C     C_3   0.282602 0.857795 0.693610 0.125336
H78   H     H_    0.323156 0.885049 0.680761 0.162274
H79   H     H_    0.270398 0.897183 0.709514 0.084755
C211  C     C_3   0.213665 0.841901 0.677672 -0.327304
H80   H     H_    0.225862 0.800445 0.662542 0.253126
H81   H     H_    0.170469 0.819891 0.690696 0.227379
C212  C     C_3   0.185473 0.910644 0.664404 -0.977923
H82   H     H_    0.172687 0.952951 0.679126 0.259145
H83   H     H_    0.135052 0.897580 0.653338 0.278172
H84   H     H_    0.226837 0.932504 0.650620 0.270374
O81   O     O_3   0.281888 0.387172 0.270643 -0.608677
C213  C     C_3   0.318985 0.428271 0.251492 0.141819
H85   H     H_    0.283411 0.436729 0.234148 0.108510
H86   H     H_    0.370088 0.400603 0.245366 0.159729
C214  C     C_3   0.338792 0.502488 0.262964 -0.317232
H87   H     H_    0.288158 0.531019 0.268812 0.252822
H88   H     H_    0.373144 0.494711 0.280606 0.230690
C215  C     C_3   0.380228 0.549566 0.243385 -1.011315
H89   H     H_    0.432056 0.522972 0.237758 0.271538
H90   H     H_    0.393011 0.603194 0.252244 0.266305
H91   H     H_    0.346655 0.558632 0.225707 0.262936
O82   O     O_3   0.722810 0.620145 0.723529 -0.618277
C216  C     C_3   0.744143 0.626800 0.697033 0.189757
H92   H     H_    0.771685 0.575365 0.691509 0.191615
H93   H     H_    0.784245 0.671605 0.693244 0.104553
C217  C     C_3   0.677297 0.636278 0.679518 -0.369200
H94   H     H_    0.635707 0.594371 0.684421 0.239749
H95   H     H_    0.653024 0.690522 0.682868 0.255932
C218  C     C_3   0.697306 0.629933 0.650731 -0.961140
H96   H     H_    0.736752 0.673312 0.645235 0.263763
H97   H     H_    0.647551 0.636114 0.638619 0.272411
H98   H     H_    0.721656 0.575935 0.646633 0.280406
O83   O     O_3   0.328573 0.774843 0.295560 -0.632138
C219  C     C_3   0.389728 0.728272 0.297399 0.196546
H99   H     H_    0.432789 0.758518 0.308187 0.183465
H100  H     H_    0.413665 0.714020 0.278072 0.118391
C220  C     C_3   0.371228 0.658919 0.312705 -0.345932
H101  H     H_    0.343401 0.673479 0.331208 0.249448
H102  H     H_    0.334274 0.624001 0.300999 0.252004
C221  C     C_3   0.439490 0.615244 0.318925 -0.999472
H103  H     H_    0.469081 0.601488 0.300705 0.274617
H104  H     H_    0.423949 0.563857 0.328947 0.278797
H105  H     H_    0.475866 0.646990 0.332000 0.275859
O84   O     O_3   0.684783 0.208465 0.702710 -0.614453
C222  C     C_3   0.716251 0.143094 0.693540 0.126654
H106  H     H_    0.675105 0.115717 0.680958 0.161935
H107  H     H_    0.729441 0.103738 0.709391 0.084921
C223  C     C_3   0.784268 0.159208 0.677176 -0.327401
H108  H     H_    0.771103 0.200544 0.662070 0.249725
H109  H     H_    0.828028 0.181464 0.689917 0.228965
C224  C     C_3   0.812058 0.090528 0.663824 -0.983938
H110  H     H_    0.825916 0.048400 0.678525 0.260279
H111  H     H_    0.861764 0.103780 0.652404 0.277718
H112  H     H_    0.770030 0.068355 0.650349 0.268891
O85   O     O_3   0.277450 0.825982 0.203838 -0.617639
C225  C     C_3   0.229430 0.886026 0.201828 0.172869
H113  H     H_    0.258460 0.929326 0.190739 0.176951
H114  H     H_    0.215142 0.910352 0.221091 0.121822
C226  C     C_3   0.159853 0.865490 0.186915 -0.334184
H115  H     H_    0.174299 0.836296 0.168679 0.254921
H116  H     H_    0.125517 0.829311 0.199147 0.250501
C227  C     C_3   0.115101 0.932510 0.180085 -1.002877
H117  H     H_    0.101165 0.963204 0.198043 0.272066
H118  H     H_    0.063735 0.915451 0.170337 0.279718
H119  H     H_    0.146132 0.968209 0.166560 0.277297
O86   O     O_3   0.710834 0.181668 0.796490 -0.610565
C228  C     C_3   0.659572 0.227306 0.808703 0.110397
H120  H     H_    0.609303 0.231501 0.796609 0.102522
H121  H     H_    0.682818 0.282724 0.811862 0.160162
C229  C     C_3   0.639084 0.194731 0.835141 -0.298791
H122  H     H_    0.611021 0.141610 0.832121 0.226951
H123  H     H_    0.689329 0.185099 0.846735 0.237187
C230  C     C_3   0.589160 0.245371 0.850395 -1.007873
H124  H     H_    0.618094 0.297016 0.855066 0.278592
H125  H     H_    0.572512 0.218731 0.868922 0.282846
H126  H     H_    0.539544 0.257867 0.838879 0.260152
O87   O     O_3   0.113329 0.218676 0.228845 -0.610425
C231  C     C_3   0.071924 0.182972 0.248249 0.142335
H127  H     H_    0.064656 0.219117 0.265457 0.111702
H128  H     H_    0.098770 0.131519 0.254486 0.157902
C232  C     C_3   0.996834 0.164505 0.237141 -0.313761
H129  H     H_    0.969498 0.215486 0.230950 0.253896
H130  H     H_    0.003161 0.128976 0.219763 0.228895
C233  C     C_3   0.949184 0.125601 0.257220 -1.016895
H131  H     H_    0.973914 0.072792 0.262817 0.273336
H132  H     H_    0.894461 0.114981 0.248778 0.265334
H133  H     H_    0.942698 0.159799 0.274893 0.253817
O88   O     O_3   0.881181 0.778199 0.775701 -0.614712
C234  C     C_3   0.875440 0.756278 0.802167 0.174234
H134  H     H_    0.928590 0.732304 0.807839 0.169352
H135  H     H_    0.833436 0.713074 0.805690 0.099522
C235  C     C_3   0.860970 0.821815 0.819786 -0.362926
H136  H     H_    0.900466 0.866086 0.815312 0.241824
H137  H     H_    0.805365 0.842582 0.816159 0.255574
C236  C     C_3   0.867104 0.801208 0.848539 -0.974206
H138  H     H_    0.826949 0.757847 0.853433 0.269240
H139  H     H_    0.855813 0.849636 0.860791 0.281252
H140  H     H_    0.922803 0.781495 0.853044 0.271047
O89   O     O_3   0.722125 0.174404 0.203791 -0.617680
C237  C     C_3   0.770126 0.114378 0.201735 0.173615
H141  H     H_    0.740991 0.071166 0.190649 0.177121
H142  H     H_    0.784593 0.089898 0.220982 0.121722
C238  C     C_3   0.839553 0.135026 0.186786 -0.334785
H143  H     H_    0.824919 0.164249 0.168545 0.255016
H144  H     H_    0.873959 0.171205 0.198987 0.250616
C239  C     C_3   0.884332 0.068079 0.179968 -1.001651
H145  H     H_    0.898493 0.037394 0.197937 0.271880
H146  H     H_    0.935576 0.085220 0.170180 0.279336
H147  H     H_    0.853221 0.032347 0.166485 0.277957
O90   O     O_3   0.289750 0.817643 0.796493 -0.610307
C240  C     C_3   0.341755 0.772046 0.808384 0.110941
H148  H     H_    0.391722 0.768693 0.796132 0.102504
H149  H     H_    0.319092 0.716312 0.811406 0.158721
C241  C     C_3   0.362725 0.803896 0.834872 -0.301511
H150  H     H_    0.390278 0.857340 0.831966 0.226206
H151  H     H_    0.312738 0.812716 0.846653 0.237722
C242  C     C_3   0.413488 0.753127 0.849772 -1.000951
H152  H     H_    0.385102 0.701075 0.854314 0.277686
H153  H     H_    0.430437 0.779241 0.868351 0.286770
H154  H     H_    0.462874 0.741454 0.838059 0.258130
O91   O     O_3   0.886855 0.781668 0.229106 -0.610354
C243  C     C_3   0.928200 0.817035 0.248610 0.141628
H155  H     H_    0.935110 0.780752 0.265839 0.111953
H156  H     H_    0.901493 0.868554 0.254796 0.158134
C244  C     C_3   0.003476 0.835280 0.237653 -0.314065
H157  H     H_    0.030651 0.784247 0.231485 0.253842
H158  H     H_    0.997461 0.871001 0.220281 0.229178
C245  C     C_3   0.051124 0.873792 0.257833 -1.016670
H159  H     H_    0.026599 0.926679 0.263396 0.273338
H160  H     H_    0.105980 0.884200 0.249495 0.265106
H161  H     H_    0.057263 0.839426 0.275510 0.253767
O92   O     O_3   0.119120 0.221819 0.775838 -0.614819
C246  C     C_3   0.125083 0.243786 0.802280 0.173399
H162  H     H_    0.071845 0.267389 0.807993 0.169112
H163  H     H_    0.166828 0.287293 0.805715 0.099711
C247  C     C_3   0.140286 0.178367 0.819936 -0.360896
H164  H     H_    0.101090 0.133780 0.815524 0.242018
H165  H     H_    0.196032 0.158066 0.816283 0.255203
C248  C     C_3   0.134305 0.198915 0.848678 -0.977428
H166  H     H_    0.174137 0.242623 0.853512 0.269594
H167  H     H_    0.146167 0.150589 0.860955 0.280473
H168  H     H_    0.078480 0.218128 0.853214 0.271025
O93   O     O_3   0.218480 0.113033 0.770973 -0.608252
C249  C     C_3   0.181140 0.071720 0.751946 0.142160
H169  H     H_    0.216569 0.062943 0.734621 0.109890
H170  H     H_    0.130038 0.099383 0.745760 0.159382
C250  C     C_3   0.161299 0.997697 0.763607 -0.316784
H171  H     H_    0.211931 0.969176 0.769518 0.252910
H172  H     H_    0.127072 0.005759 0.781234 0.230491
C251  C     C_3   0.119676 0.950421 0.744143 -1.011175
H173  H     H_    0.067913 0.977074 0.738416 0.271649
H174  H     H_    0.106743 0.896982 0.753147 0.266442
H175  H     H_    0.153190 0.940950 0.726508 0.262736
O94   O     O_3   0.777860 0.880854 0.224178 -0.617851
C252  C     C_3   0.757138 0.875104 0.197584 0.190744
H176  H     H_    0.729276 0.926517 0.192190 0.189927
H177  H     H_    0.717511 0.830124 0.193448 0.103984
C253  C     C_3   0.824423 0.866928 0.180266 -0.376824
H178  H     H_    0.865453 0.909099 0.185445 0.239676
H179  H     H_    0.849268 0.812898 0.183521 0.256611
C254  C     C_3   0.804862 0.873939 0.151444 -0.947447
H180  H     H_    0.765995 0.830290 0.145702 0.265830
H181  H     H_    0.854907 0.868720 0.139464 0.273796
H182  H     H_    0.779923 0.927754 0.147446 0.280695
O95   O     O_3   0.172486 0.724073 0.795668 -0.631601
C255  C     C_3   0.111559 0.770829 0.797793 0.195767
H183  H     H_    0.068720 0.740547 0.808674 0.183592
H184  H     H_    0.087071 0.785486 0.778568 0.118457
C256  C     C_3   0.130795 0.839861 0.813142 -0.345019
H185  H     H_    0.159172 0.824887 0.831523 0.250288
H186  H     H_    0.167460 0.874878 0.801360 0.252070
C257  C     C_3   0.062922 0.883690 0.819662 -0.998700
H187  H     H_    0.032892 0.897980 0.801559 0.273489
H188  H     H_    0.078988 0.934791 0.829742 0.279135
H189  H     H_    0.026786 0.851829 0.832783 0.276785
O96   O     O_3   0.814831 0.292023 0.202660 -0.614899
C258  C     C_3   0.783147 0.357320 0.193459 0.125652
H190  H     H_    0.824111 0.384734 0.180820 0.162081
H191  H     H_    0.770099 0.396668 0.209291 0.085348
C259  C     C_3   0.714951 0.341069 0.177166 -0.326771
H192  H     H_    0.727827 0.299282 0.162227 0.250619
H193  H     H_    0.671193 0.319326 0.190006 0.228033
C260  C     C_3   0.687367 0.409502 0.163528 -0.985738
H194  H     H_    0.674222 0.452279 0.178035 0.260731
H195  H     H_    0.637289 0.396244 0.152291 0.277260
H196  H     H_    0.729240 0.430845 0.149837 0.267836
O97   O     O_3   0.781742 0.887011 0.770833 -0.608783
C261  C     C_3   0.818896 0.928317 0.751753 0.141324
H197  H     H_    0.783456 0.936778 0.734372 0.109480
H198  H     H_    0.870117 0.900804 0.745664 0.159884
C262  C     C_3   0.838425 0.002527 0.763294 -0.316966
H199  H     H_    0.787675 0.030917 0.769100 0.253068
H200  H     H_    0.872627 0.994757 0.780974 0.230598
C263  C     C_3   0.879938 0.049788 0.743791 -1.010973
H201  H     H_    0.931944 0.023393 0.738248 0.271622
H202  H     H_    0.892405 0.103451 0.752682 0.266353
H203  H     H_    0.846571 0.058751 0.726053 0.262512
O98   O     O_3   0.222309 0.119569 0.223945 -0.618499
C264  C     C_3   0.242936 0.125634 0.197359 0.190330
H204  H     H_    0.270969 0.074368 0.191956 0.190883
H205  H     H_    0.282388 0.170789 0.193250 0.103605
C265  C     C_3   0.175543 0.133707 0.180028 -0.368271
H206  H     H_    0.134614 0.091466 0.185237 0.239071
H207  H     H_    0.150613 0.187691 0.183250 0.256064
C266  C     C_3   0.194918 0.126735 0.151206 -0.965006
H208  H     H_    0.233554 0.170531 0.145411 0.263280
H209  H     H_    0.144766 0.131755 0.139233 0.272676
H210  H     H_    0.220021 0.073006 0.147246 0.281111
O99   O     O_3   0.827787 0.275713 0.795687 -0.631419
C267  C     C_3   0.888868 0.229092 0.797738 0.195622
H211  H     H_    0.931761 0.259388 0.808596 0.183648
H212  H     H_    0.913161 0.214649 0.778486 0.118740
C268  C     C_3   0.870025 0.159855 0.813064 -0.345985
H213  H     H_    0.841798 0.174558 0.831473 0.249800
H214  H     H_    0.833356 0.124821 0.801286 0.252193
C269  C     C_3   0.938134 0.116206 0.819512 -0.997805
H215  H     H_    0.968001 0.102171 0.801378 0.273705
H216  H     H_    0.922368 0.064968 0.829587 0.279145
H217  H     H_    0.974326 0.148086 0.832611 0.276385
O100  O     O_3   0.184843 0.708353 0.202693 -0.614413
C270  C     C_3   0.216267 0.642966 0.193523 0.126957
H218  H     H_    0.175277 0.615872 0.180799 0.163150
H219  H     H_    0.228960 0.603418 0.209363 0.084833
C271  C     C_3   0.284699 0.658962 0.177364 -0.328524
H220  H     H_    0.272139 0.700785 0.162364 0.251185
H221  H     H_    0.328398 0.680554 0.190278 0.227792
C272  C     C_3   0.312172 0.590402 0.163847 -0.981372
H222  H     H_    0.325027 0.547605 0.178419 0.259447
H223  H     H_    0.362404 0.603458 0.152696 0.277625
H224  H     H_    0.270353 0.569172 0.150099 0.269723
O101  O     O_3   0.441166 0.805529 0.973225 -0.599768
C273  C     C_3   0.505606 0.763848 0.972522 0.165249
H225  H     H_    0.529313 0.756637 0.992388 0.149310
H226  H     H_    0.546756 0.790731 0.959723 0.146856
C274  C     C_3   0.487546 0.688620 0.961577 -0.321103
H227  H     H_    0.448604 0.660771 0.974892 0.219586
H228  H     H_    0.461441 0.694493 0.942121 0.247573
C275  C     C_3   0.555659 0.642056 0.958883 -0.983588
H229  H     H_    0.594896 0.668283 0.945280 0.270690
H230  H     H_    0.540443 0.587777 0.951001 0.272096
H231  H     H_    0.582114 0.634435 0.978180 0.276643
O102  O     O_3   0.537127 0.191947 0.027014 -0.576121
C276  C     C_3   0.470166 0.221991 0.035412 0.116710
H232  H     H_    0.446169 0.189604 0.051614 0.159601
H233  H     H_    0.429047 0.223580 0.019443 0.071980
C277  C     C_3   0.484445 0.299238 0.045204 -0.305249
H234  H     H_    0.521136 0.296787 0.062425 0.241483
H235  H     H_    0.511807 0.331527 0.029657 0.223431
C278  C     C_3   0.414110 0.337161 0.052966 -0.994537
H236  H     H_    0.377926 0.342900 0.035731 0.268127
H237  H     H_    0.426879 0.392310 0.060599 0.274548
H238  H     H_    0.385564 0.305651 0.068418 0.271906
O103  O     O_3   0.195015 0.453385 0.973201 -0.600491
C279  C     C_3   0.244012 0.512815 0.976137 0.129302
H239  H     H_    0.300122 0.491049 0.974305 0.159273
H240  H     H_    0.241212 0.539381 0.995650 0.148866
C280  C     C_3   0.232184 0.569668 0.954658 -0.354769
H241  H     H_    0.234497 0.542926 0.935255 0.263590
H242  H     H_    0.177689 0.594841 0.957024 0.212183
C281  C     C_3   0.290338 0.629242 0.955641 -0.960884
H243  H     H_    0.290609 0.656273 0.975001 0.271557
H244  H     H_    0.278988 0.670728 0.940434 0.282537
H245  H     H_    0.344777 0.605512 0.951831 0.259985
O104  O     O_3   0.801363 0.520045 0.025238 -0.580580
C282  C     C_3   0.777064 0.448943 0.031780 0.113882
H246  H     H_    0.814827 0.422110 0.045731 0.166458
H247  H     H_    0.773142 0.413523 0.014232 0.079635
C283  C     C_3   0.702040 0.454218 0.044464 -0.304081
H248  H     H_    0.705848 0.489351 0.062058 0.251253
H249  H     H_    0.663206 0.479575 0.030557 0.213061
C284  C     C_3   0.673062 0.379509 0.052453 -0.946160
H250  H     H_    0.665374 0.344458 0.035012 0.281124
H251  H     H_    0.619803 0.386071 0.062360 0.259821
H252  H     H_    0.711334 0.352764 0.066198 0.275365
O105  O     O_3   0.556548 0.187735 0.974193 -0.572586
C285  C     C_3   0.499657 0.235143 0.966853 0.139395
H253  H     H_    0.481319 0.266674 0.983985 0.132000
H254  H     H_    0.452321 0.205316 0.958213 0.121148
C286  C     C_3   0.528806 0.289534 0.946778 -0.281724
H255  H     H_    0.576442 0.318813 0.955180 0.224394
H256  H     H_    0.547109 0.260180 0.929048 0.259647
C287  C     C_3   0.470933 0.344867 0.939059 -0.995445
H257  H     H_    0.423052 0.316822 0.930304 0.274426
H258  H     H_    0.493920 0.383329 0.924472 0.274282
H259  H     H_    0.453176 0.376380 0.956383 0.264603
O106  O     O_3   0.430772 0.807356 0.026289 -0.595118
C288  C     C_3   0.354267 0.798355 0.025499 0.149738
H260  H     H_    0.332424 0.803612 0.005293 0.151092
H261  H     H_    0.327865 0.839771 0.038154 0.147961
C289  C     C_3   0.334970 0.722333 0.035566 -0.315435
H262  H     H_    0.361856 0.680902 0.023113 0.219866
H263  H     H_    0.355467 0.716084 0.055847 0.248508
C290  C     C_3   0.252823 0.708938 0.035235 -0.962463
H264  H     H_    0.224942 0.748525 0.048127 0.273129
H265  H     H_    0.240908 0.653027 0.042365 0.287548
H266  H     H_    0.231152 0.714266 0.015097 0.261358
O107  O     O_3   0.808635 0.548884 0.972503 -0.571351
C291  C     C_3   0.760010 0.491006 0.966810 0.143599
H267  H     H_    0.721634 0.484298 0.983332 0.156594
H268  H     H_    0.788453 0.438476 0.963020 0.096577
C292  C     C_3   0.714945 0.510535 0.942691 -0.278031
H269  H     H_    0.690457 0.565149 0.945372 0.238702
H270  H     H_    0.750497 0.512488 0.925209 0.252577
C293  C     C_3   0.654229 0.455063 0.937916 -1.032180
H271  H     H_    0.677551 0.400054 0.934901 0.274099
H272  H     H_    0.623086 0.470538 0.920203 0.273728
H273  H     H_    0.616229 0.453645 0.954760 0.273237
O108  O     O_3   0.190394 0.441989 0.027082 -0.606721
C294  C     C_3   0.201074 0.366005 0.024298 0.144270
H274  H     H_    0.251221 0.357545 0.012584 0.159798
H275  H     H_    0.155476 0.336611 0.014256 0.114468
C295  C     C_3   0.211265 0.332001 0.051277 -0.309821
H276  H     H_    0.255908 0.360731 0.061763 0.246689
H277  H     H_    0.160342 0.338384 0.062735 0.236041
C296  C     C_3   0.229235 0.251148 0.049386 -1.015327
H278  H     H_    0.183695 0.221066 0.039932 0.274480
H279  H     H_    0.237612 0.228635 0.069262 0.273050
H280  H     H_    0.279802 0.242973 0.037907 0.263824
O109  O     O_3   0.934197 0.308159 0.474375 -0.597705
C297  C     C_3   0.996303 0.263096 0.474233 0.146860
H281  H     H_    0.013281 0.249119 0.494486 0.158227
H282  H     H_    0.042549 0.290533 0.464030 0.135595
C298  C     C_3   0.977736 0.192692 0.459803 -0.286123
H283  H     H_    0.930805 0.165475 0.469525 0.230831
H284  H     H_    0.961928 0.205648 0.439392 0.246884
C299  C     C_3   0.042280 0.140764 0.459514 -1.000588
H285  H     H_    0.089609 0.166401 0.449536 0.270574
H286  H     H_    0.027075 0.090286 0.448880 0.276142
H287  H     H_    0.057994 0.125975 0.479757 0.267523
O110  O     O_3   0.039243 0.695547 0.525339 -0.565740
C300  C     C_3   0.975460 0.734439 0.532012 0.135689
H288  H     H_    0.961400 0.723441 0.552708 0.179740
H289  H     H_    0.926720 0.719475 0.520093 0.062919
C301  C     C_3   0.990858 0.815889 0.528924 -0.317392
H290  H     H_    0.036324 0.831922 0.542092 0.240774
H291  H     H_    0.007795 0.827678 0.508550 0.230743
C302  C     C_3   0.924005 0.861190 0.535458 -0.973760
H292  H     H_    0.878029 0.846760 0.522301 0.266340
H293  H     H_    0.936959 0.919869 0.532911 0.279653
H294  H     H_    0.907687 0.851684 0.556032 0.269906
O111  O     O_3   0.686177 0.921276 0.474593 -0.577778
C303  C     C_3   0.673851 0.847186 0.468172 0.125733
H295  H     H_    0.633377 0.841999 0.452130 0.168376
H296  H     H_    0.652794 0.815495 0.485115 0.073669
C304  C     C_3   0.745618 0.813816 0.459197 -0.309085
H297  H     H_    0.764980 0.843016 0.441500 0.248410
H298  H     H_    0.787265 0.820275 0.474789 0.209117
C305  C     C_3   0.736937 0.733093 0.452888 -0.996781
H299  H     H_    0.718745 0.702605 0.470452 0.264230
H300  H     H_    0.790080 0.710838 0.446450 0.261063
H301  H     H_    0.696550 0.725315 0.436972 0.276373
O112  O     O_3   0.305890 0.043658 0.525705 -0.596520
C306  C     C_3   0.300847 0.120170 0.527610 0.146493
H302  H     H_    0.301068 0.145907 0.507921 0.156478
H303  H     H_    0.347082 0.142532 0.539288 0.133462
C307  C     C_3   0.229440 0.139338 0.541187 -0.306611
H304  H     H_    0.182978 0.116698 0.529806 0.223746
H305  H     H_    0.228596 0.114512 0.560966 0.245294
C308  C     C_3   0.220314 0.221551 0.543675 -0.976351
H306  H     H_    0.265620 0.245252 0.555333 0.268670
H307  H     H_    0.168062 0.233503 0.553646 0.276914
H308  H     H_    0.219484 0.247347 0.524074 0.267225
O113  O     O_3   0.038371 0.693582 0.472410 -0.573301
C309  C     C_3   0.974545 0.725955 0.462186 0.121086
H309  H     H_    0.941631 0.750041 0.478053 0.113296
H310  H     H_    0.939550 0.686234 0.451470 0.130742
C310  C     C_3   0.997022 0.786566 0.443379 -0.279195
H311  H     H_    0.032389 0.826039 0.453849 0.226678
H312  H     H_    0.028615 0.763120 0.426961 0.255873
C311  C     C_3   0.931180 0.826675 0.432487 -0.999021
H313  H     H_    0.893998 0.788151 0.422303 0.270252
H314  H     H_    0.949690 0.868652 0.418341 0.272839
H315  H     H_    0.901485 0.854170 0.448509 0.272035
O114  O     O_3   0.926114 0.312653 0.527610 -0.599665
C312  C     C_3   0.849273 0.308447 0.528225 0.143846
H316  H     H_    0.826347 0.305635 0.508119 0.157647
H317  H     H_    0.826234 0.356607 0.538475 0.138617
C313  C     C_3   0.826718 0.239574 0.542939 -0.304475
H318  H     H_    0.849992 0.191235 0.533007 0.231138
H319  H     H_    0.848744 0.241790 0.563128 0.247942
C314  C     C_3   0.744000 0.231400 0.544116 -0.937635
H320  H     H_    0.719623 0.278578 0.554375 0.262136
H321  H     H_    0.729573 0.180923 0.554915 0.288317
H322  H     H_    0.720923 0.227679 0.524124 0.269068
O115  O     O_3   0.307161 0.042397 0.472454 -0.600354
C315  C     C_3   0.262778 0.979709 0.470217 0.153213
H323  H     H_    0.247414 0.958389 0.489820 0.161068
H324  H     H_    0.291435 0.936306 0.459104 0.136216
C316  C     C_3   0.193380 0.000142 0.455586 -0.304717
H325  H     H_    0.165460 0.044449 0.466296 0.231234
H326  H     H_    0.207700 0.020366 0.435794 0.245499
C317  C     C_3   0.141615 0.935356 0.453074 -0.994103
H327  H     H_    0.168070 0.890531 0.442144 0.275267
H328  H     H_    0.091900 0.952217 0.442345 0.269350
H329  H     H_    0.125338 0.915427 0.472696 0.272018
O116  O     O_3   0.690266 0.941668 0.527722 -0.570859
C318  C     C_3   0.695476 0.866674 0.533916 0.130742
H330  H     H_    0.730846 0.840388 0.519184 0.151971
H331  H     H_    0.641733 0.837771 0.534374 0.084166
C319  C     C_3   0.731557 0.857622 0.560647 -0.278536
H332  H     H_    0.781398 0.892049 0.561681 0.242110
H333  H     H_    0.693658 0.875534 0.576189 0.243891
C320  C     C_3   0.751916 0.778439 0.565826 -1.033189
H334  H     H_    0.702475 0.743315 0.565371 0.275005
H335  H     H_    0.777590 0.773832 0.585373 0.270922
H336  H     H_    0.791262 0.759032 0.550964 0.265180
H337  H     H_    0.907474 0.577652 0.600130 0.154739
H338  H     H_    0.094685 0.432703 0.401118 0.163606
H339  H     H_    0.443266 0.102720 0.599417 0.176472
H340  H     H_    0.587422 0.077679 0.400486 0.181746
H341  H     H_    0.086048 0.427665 0.598614 0.165242
H342  H     H_    0.899655 0.560501 0.400590 0.156663
H343  H     H_    0.555521 0.897763 0.599471 0.168267
H344  H     H_    0.417192 0.915761 0.400055 0.166359
H345  H     H_    0.406698 0.070764 0.099505 0.150577
H346  H     H_    0.596603 0.934698 0.900995 0.163964
H347  H     H_    0.949628 0.605887 0.099407 0.193528
H348  H     H_    0.089648 0.577656 0.900082 0.162989
H349  H     H_    0.586179 0.921847 0.099292 0.167248
H350  H     H_    0.400970 0.061580 0.900754 0.160327
H351  H     H_    0.051521 0.395478 0.099453 0.172355
H352  H     H_    0.914841 0.420887 0.900429 0.161979
O117  O     O_3   0.899255 0.587331 0.651359 -0.637412
C321  C     C_3   0.919719 0.661813 0.650897 0.053618
H353  H     H_    0.868924 0.694344 0.650711 0.159998
H354  H     H_    0.950874 0.678135 0.633114 0.145856
C322  C     C_3   0.963131 0.681330 0.675495 -0.344052
H355  H     H_    0.932499 0.663138 0.693041 0.220045
H356  H     H_    0.016413 0.653003 0.675159 0.215949
C323  C     C_3   0.977025 0.763123 0.677399 -0.951727
H357  H     H_    0.008431 0.782486 0.660207 0.272848
H358  H     H_    0.009016 0.775125 0.695297 0.267177
H359  H     H_    0.924612 0.792889 0.678461 0.260290
O118  O     O_3   0.110232 0.426762 0.350344 -0.608606
C324  C     C_3   0.088659 0.354526 0.344817 0.094666
H360  H     H_    0.039962 0.353842 0.331823 0.123917
H361  H     H_    0.076021 0.324364 0.363162 0.145066
C325  C     C_3   0.150989 0.316084 0.330867 -0.299799
H362  H     H_    0.165071 0.346498 0.312809 0.254813
H363  H     H_    0.199495 0.315425 0.343825 0.230715
C326  C     C_3   0.130703 0.238018 0.323683 -1.029594
H364  H     H_    0.120146 0.205524 0.341575 0.279350
H365  H     H_    0.176264 0.212801 0.312751 0.261173
H366  H     H_    0.081270 0.237230 0.311212 0.252336
O119  O     O_3   0.431008 0.113212 0.649971 -0.608329
C327  C     C_3   0.357753 0.092871 0.654519 0.104689
H367  H     H_    0.354657 0.042406 0.666583 0.109812
H368  H     H_    0.328617 0.083595 0.635712 0.148722
C328  C     C_3   0.319874 0.154254 0.669195 -0.296771
H369  H     H_    0.350518 0.166575 0.687364 0.260666
H370  H     H_    0.319596 0.203799 0.656779 0.224524
C329  C     C_3   0.241603 0.134074 0.676251 -1.037005
H371  H     H_    0.208853 0.125190 0.658298 0.278396
H372  H     H_    0.216857 0.178969 0.687647 0.259060
H373  H     H_    0.240458 0.083781 0.688266 0.256758
O120  O     O_3   0.600939 0.085466 0.349340 -0.618886
C330  C     C_3   0.667739 0.047698 0.348273 0.074281
H374  H     H_    0.659901 0.990972 0.340930 0.118616
H375  H     H_    0.693138 0.045899 0.368002 0.164105
C331  C     C_3   0.719223 0.087413 0.329639 -0.274281
H376  H     H_    0.694496 0.088451 0.309850 0.245621
H377  H     H_    0.727176 0.144319 0.336448 0.251028
C332  C     C_3   0.793126 0.050023 0.328093 -1.017491
H378  H     H_    0.819933 0.050052 0.347523 0.274572
H379  H     H_    0.828695 0.079644 0.314104 0.266724
H380  H     H_    0.786476 0.993028 0.321232 0.268935
O121  O     O_3   0.100122 0.416552 0.649777 -0.636294
C333  C     C_3   0.080408 0.341894 0.649048 0.059651
H381  H     H_    0.131519 0.309970 0.648120 0.163019
H382  H     H_    0.047862 0.326182 0.631507 0.148990
C334  C     C_3   0.039382 0.320545 0.673960 -0.349221
H383  H     H_    0.071210 0.338324 0.691295 0.221631
H384  H     H_    0.985685 0.348078 0.674320 0.214769
C335  C     C_3   0.026829 0.238482 0.675529 -0.952556
H385  H     H_    0.994220 0.219515 0.658561 0.273017
H386  H     H_    0.996588 0.225128 0.693680 0.267117
H387  H     H_    0.079733 0.209451 0.675870 0.261415
O122  O     O_3   0.889166 0.572231 0.349919 -0.608683
C336  C     C_3   0.912422 0.644467 0.345252 0.095042
H388  H     H_    0.961707 0.645237 0.332583 0.124902
H389  H     H_    0.924839 0.672861 0.363967 0.143464
C337  C     C_3   0.851503 0.685315 0.331307 -0.303253
H390  H     H_    0.837319 0.656484 0.312937 0.252822
H391  H     H_    0.802603 0.686248 0.344037 0.230184
C338  C     C_3   0.873828 0.763361 0.324849 -1.029409
H392  H     H_    0.885354 0.794169 0.343032 0.279600
H393  H     H_    0.828887 0.790620 0.314178 0.261767
H394  H     H_    0.923147 0.763810 0.312346 0.252956
O123  O     O_3   0.568942 0.887473 0.649960 -0.607487
C339  C     C_3   0.642413 0.907779 0.654099 0.102270
H395  H     H_    0.646055 0.958247 0.666112 0.111051
H396  H     H_    0.670694 0.917017 0.635132 0.142389
C340  C     C_3   0.680934 0.846377 0.668613 -0.296911
H397  H     H_    0.651195 0.834125 0.686973 0.259054
H398  H     H_    0.680514 0.796844 0.656225 0.224968
C341  C     C_3   0.759589 0.866419 0.675197 -1.038750
H399  H     H_    0.791337 0.875656 0.657053 0.277387
H400  H     H_    0.784951 0.821276 0.686337 0.258976
H401  H     H_    0.761415 0.916449 0.687313 0.258005
O124  O     O_3   0.400719 0.912696 0.349044 -0.620629
C342  C     C_3   0.333290 0.949438 0.349326 0.075995
H402  H     H_    0.339504 0.006704 0.342316 0.122440
H403  H     H_    0.310305 0.949601 0.369429 0.159061
C343  C     C_3   0.280034 0.910135 0.331211 -0.277737
H404  H     H_    0.302186 0.910670 0.311047 0.245694
H405  H     H_    0.273745 0.852702 0.337698 0.249615
C344  C     C_3   0.205494 0.946531 0.331140 -1.018664
H406  H     H_    0.181241 0.944843 0.350971 0.272729
H407  H     H_    0.168530 0.917343 0.317499 0.266894
H408  H     H_    0.210477 0.004046 0.324640 0.270207
O125  O     O_3   0.398099 0.083627 0.150630 -0.636725
C345  C     C_3   0.417574 0.158295 0.149393 0.054808
H409  H     H_    0.366349 0.190099 0.148722 0.160845
H410  H     H_    0.448909 0.173545 0.131527 0.144806
C346  C     C_3   0.460198 0.180442 0.173877 -0.343777
H411  H     H_    0.429406 0.163386 0.191533 0.220381
H412  H     H_    0.513826 0.152749 0.174000 0.215249
C347  C     C_3   0.473034 0.262525 0.174903 -0.954012
H413  H     H_    0.504565 0.280780 0.157587 0.272179
H414  H     H_    0.504485 0.276476 0.192742 0.267429
H415  H     H_    0.420228 0.291701 0.175489 0.261468
O126  O     O_3   0.610927 0.927626 0.850242 -0.608523
C348  C     C_3   0.589210 0.855369 0.844810 0.095735
H416  H     H_    0.540411 0.854626 0.831866 0.124134
H417  H     H_    0.576656 0.825369 0.863196 0.145099
C349  C     C_3   0.651410 0.816744 0.830848 -0.299082
H418  H     H_    0.665765 0.847280 0.812844 0.256088
H419  H     H_    0.699833 0.815697 0.843841 0.230144
C350  C     C_3   0.630770 0.738869 0.823529 -1.030944
H420  H     H_    0.619587 0.706300 0.841356 0.278829
H421  H     H_    0.676407 0.713437 0.812705 0.261294
H422  H     H_    0.581637 0.738525 0.810904 0.252378
O127  O     O_3   0.934897 0.615396 0.149818 -0.606120
C351  C     C_3   0.861201 0.596498 0.154281 0.107478
H423  H     H_    0.856957 0.546196 0.166389 0.108847
H424  H     H_    0.832103 0.587620 0.135441 0.151311
C352  C     C_3   0.824329 0.658688 0.168832 -0.294027
H425  H     H_    0.855172 0.670791 0.186976 0.262482
H426  H     H_    0.824881 0.707992 0.156297 0.226155
C353  C     C_3   0.745739 0.639901 0.175927 -1.035583
H427  H     H_    0.712871 0.631144 0.157995 0.278588
H428  H     H_    0.721692 0.685434 0.187187 0.258508
H429  H     H_    0.743771 0.589907 0.188092 0.256101
O128  O     O_3   0.102465 0.584371 0.848851 -0.619889
C354  C     C_3   0.169540 0.547015 0.848561 0.073551
H430  H     H_    0.162409 0.490073 0.841359 0.122195
H431  H     H_    0.193627 0.545916 0.868510 0.154847
C355  C     C_3   0.222107 0.586570 0.830266 -0.275103
H432  H     H_    0.198807 0.587044 0.810252 0.244690
H433  H     H_    0.229261 0.643687 0.836961 0.249621
C356  C     C_3   0.296313 0.549583 0.829531 -1.018361
H434  H     H_    0.321666 0.550178 0.849208 0.272870
H435  H     H_    0.332747 0.579120 0.815806 0.266764
H436  H     H_    0.290493 0.492409 0.822771 0.269865
O129  O     O_3   0.600442 0.914473 0.150549 -0.635508
C357  C     C_3   0.581350 0.839628 0.150549 0.060736
H437  H     H_    0.632747 0.808072 0.150064 0.163786
H438  H     H_    0.549258 0.822277 0.133100 0.148925
C358  C     C_3   0.540044 0.819926 0.175574 -0.350585
H439  H     H_    0.571381 0.839404 0.192786 0.222594
H440  H     H_    0.486086 0.846977 0.175520 0.214638
C359  C     C_3   0.528243 0.737915 0.177988 -0.952384
H441  H     H_    0.496195 0.717224 0.161141 0.273421
H442  H     H_    0.497728 0.725788 0.196189 0.266932
H443  H     H_    0.581417 0.709443 0.178794 0.261125
O130  O     O_3   0.389188 0.072134 0.850056 -0.608673
C360  C     C_3   0.411966 0.144301 0.844977 0.095771
H444  H     H_    0.461101 0.144889 0.832230 0.124301
H445  H     H_    0.424444 0.173492 0.863525 0.144066
C361  C     C_3   0.350636 0.184231 0.830919 -0.300729
H446  H     H_    0.336209 0.154423 0.812776 0.254953
H447  H     H_    0.301961 0.185637 0.843751 0.229827
C362  C     C_3   0.372578 0.262004 0.823897 -1.029705
H448  H     H_    0.384048 0.293854 0.841851 0.279549
H449  H     H_    0.327475 0.288475 0.813057 0.261421
H450  H     H_    0.421857 0.261975 0.811376 0.252393
O131  O     O_3   0.065883 0.385464 0.149877 -0.608192
C363  C     C_3   0.139661 0.404343 0.154207 0.104967
H451  H     H_    0.144085 0.454562 0.166321 0.111257
H452  H     H_    0.168406 0.413353 0.135318 0.147813
C364  C     C_3   0.176850 0.342066 0.168675 -0.297766
H453  H     H_    0.146483 0.329931 0.186909 0.262562
H454  H     H_    0.175922 0.292814 0.156151 0.224198
C365  C     C_3   0.255651 0.360751 0.175546 -1.036673
H455  H     H_    0.287989 0.369737 0.157520 0.276613
H456  H     H_    0.280031 0.315068 0.186683 0.259343
H457  H     H_    0.257986 0.410580 0.187759 0.257133
O132  O     O_3   0.899425 0.414930 0.849267 -0.620005
C366  C     C_3   0.831446 0.450525 0.850299 0.073569
H458  H     H_    0.836335 0.507996 0.843388 0.123668
H459  H     H_    0.809837 0.449939 0.870597 0.152538
C367  C     C_3   0.777503 0.410673 0.832592 -0.275103
H460  H     H_    0.798108 0.411871 0.812218 0.244042
H461  H     H_    0.772624 0.353017 0.838978 0.248461
C368  C     C_3   0.702404 0.445855 0.833355 -1.020205
H462  H     H_    0.679753 0.443462 0.853422 0.272047
H463  H     H_    0.664839 0.416307 0.820028 0.266597
H464  H     H_    0.705959 0.503544 0.826943 0.270440

loop_
_geom_bond_atom_site_label_1
_geom_bond_atom_site_label_2
_ccdc_geom_bond_type
O2    Zn15  S    
C132  C144  A    
C282  C283  S    
C361  H447  S    
C220  H101  S    
C52   O38   A    
O77   C201  S    
C210  C211  S    
C47   C89   S    
C228  H120  S    
O71   C183  S    
O124  C342  S    
C148  C151  A    
O99   C267  S    
C13   C25   A    
C357  H437  S    
C304  C305  S    
O49   Zn7   S    
C264  H204  S    
C255  H183  S    
C180  C181  S    
O50   Zn8   S    
C37   N2    S    
C290  H265  S    
C85   O97   S    
C286  H255  S    
C329  H372  S    
C181  H10   S    
C197  H47   S    
C112  C124  A    
C63   C98   A    
C212  H83   S    
C274  C275  S    
C242  H153  S    
C59   O71   S    
C110  N2    A    
C259  H193  S    
C143  C144  A    
C270  H218  S    
C49   O29   A    
C36   C168  A    
C252  C253  S    
C205  H66   S    
C201  C202  S    
C280  H242  S    
O90   C240  S    
C240  C241  S    
O111  C303  S    
C157  O113  S    
C273  H225  S    
C337  H390  S    
C7    O19   A    
C295  C296  S    
C348  H417  S    
C229  H123  S    
C291  C292  S    
C41   O47   A    
O110  C300  S    
C226  H116  S    
C329  H373  S    
C67   C94   A    
O34   Zn16  S    
C182  H13   S    
O5    Zn16  S    
O6    Zn15  S    
C69   C92   A    
C285  H254  S    
C175  H351  S    
C302  H293  S    
C292  C293  S    
C259  C260  S    
C68   O80   S    
O37   Zn4   S    
O131  C363  S    
C216  H93   S    
C225  H113  S    
C113  C133  A    
C111  N3    A    
C307  H305  S    
C344  H407  S    
O78   C204  S    
O45   Zn3   S    
C255  H184  S    
C39   N4    S    
C254  H182  S    
C163  H339  S    
C118  N6    A    
C22   O130  S    
C202  C203  S    
C135  C159  A    
C215  H91   S    
O119  C327  S    
C191  H35   S    
C2    O6    A    
C8    O20   A    
C218  H98   S    
C347  H413  S    
C285  C286  S    
C152  O108  S    
C118  O66   S    
C15   O123  S    
C349  H418  S    
C365  H455  S    
C263  H201  S    
C224  H112  S    
C345  H410  S    
C311  H314  S    
C269  H217  S    
C189  H29   S    
C46   O26   A    
C21   C29   A    
C260  H194  S    
C296  H278  S    
C239  H147  S    
C3    O11   A    
C174  H350  S    
C325  H362  S    
C250  C251  S    
C307  C308  S    
C83   O95   S    
C190  C191  S    
C209  H76   S    
O85   C225  S    
C24   C32   A    
C73   C88   A    
C268  H214  S    
C284  H251  S    
C124  C148  A    
O20   Zn5   S    
C110  O58   S    
C75   C86   A    
C15   C27   A    
C186  H22   S    
C299  H287  S    
C11   C27   A    
C139  C140  A    
C50   O40   A    
C243  H155  S    
C84   O96   S    
C309  H309  S    
C306  H303  S    
C237  C238  S    
C14   C26   A    
C269  H216  S    
C195  C196  S    
C276  H232  S    
O80   C210  S    
C125  C149  A    
C291  H268  S    
C277  C278  S    
C70   O82   S    
C178  C179  S    
C193  H39   S    
C64   C97   A    
C20   C172  A    
C12   C28   A    
C286  C287  S    
C235  H137  S    
C83   C100  A    
C310  H312  S    
C228  C229  S    
C317  H328  S    
C214  C215  S    
C209  H77   S    
C185  H19   S    
C1    C32   S    
C39   C171  A    
C208  H73   S    
C24   C176  A    
C23   O131  S    
C56   O36   A    
C131  C143  A    
C241  H150  S    
C328  H370  S    
C283  H248  S    
C272  H222  S    
C264  C265  S    
O30   Zn12  S    
C4    O12   A    
C57   C104  A    
C16   O124  S    
C251  H173  S    
C225  H114  S    
C107  N3    A    
C367  H460  S    
C59   C102  A    
O52   Zn6   S    
C181  C182  S    
C308  H307  S    
C120  O68   S    
C105  N1    A    
C195  H43   S    
C314  H321  S    
C197  H49   S    
C12   O120  S    
C330  C331  S    
C55   O35   A    
C206  H68   S    
O2    Zn2   S    
C245  H159  S    
O21   Zn12  S    
C156  C159  A    
C235  C236  S    
C60   O72   S    
O22   Zn11  S    
C50   C100  S    
C205  C206  S    
C105  C125  A    
C303  C304  S    
O94   C252  S    
C304  H297  S    
C183  H16   S    
C320  H334  S    
C107  C127  A    
C79   C96   A    
O95   C255  S    
O101  C273  S    
C53   O43   A    
O84   C222  S    
C316  H326  S    
C60   C101  A    
C109  C121  A    
C233  H131  S    
C51   O37   A    
C113  O61   S    
C253  H179  S    
C332  H380  S    
C42   C92   S    
C122  C146  A    
C262  H199  S    
C341  H400  S    
C44   C94   S    
C281  H243  S    
C343  C344  S    
O75   C195  S    
C315  H324  S    
C166  H342  S    
C266  H210  S    
C46   C96   S    
C267  H211  S    
C279  H240  S    
C322  H355  S    
C355  H432  S    
C258  C259  S    
C33   N6    S    
C109  N1    A    
C105  O53   S    
C249  H169  S    
C201  H58   S    
C297  H282  S    
C76   O88   S    
C284  H250  S    
C189  H30   S    
C76   C85   A    
C339  C340  S    
O24   Zn13  S    
C191  H34   S    
C66   C95   A    
C274  H228  S    
O97   C261  S    
O25   Zn16  S    
C261  H198  S    
O107  C291  S    
C288  H260  S    
C47   O27   A    
C262  C263  S    
C70   C91   A    
C347  H415  S    
C244  C245  S    
C300  C301  S    
C245  H161  S    
C337  H391  S    
O81   C213  S    
C324  H360  S    
C184  H18   S    
C356  H434  S    
C346  H412  S    
O3    Zn7   S    
C7    C26   S    
C271  C272  S    
C325  C326  S    
O82   C216  S    
C158  O114  S    
C73   C90   A    
C352  H425  S    
C232  H130  S    
C5    O17   A    
C312  H316  S    
C246  C247  S    
C74   O86   S    
C38   C174  A    
C261  C262  S    
C5    C28   S    
C243  C244  S    
C123  C139  A    
C77   C94   A    
C177  H2    S    
C275  H229  S    
C190  H32   S    
O113  C309  S    
C121  C137  A    
C153  C158  A    
C192  H37   S    
O11   Zn14  S    
C276  C277  S    
C127  C151  A    
C293  H271  S    
C232  C233  S    
C361  C362  S    
C128  C152  A    
C113  N5    A    
C256  H185  S    
C275  H230  S    
C315  H323  S    
C340  H398  S    
C249  C250  S    
C173  H349  S    
C119  C131  A    
C350  H420  S    
C352  H426  S    
C72   O84   S    
C74   C87   A    
C14   C166  A    
C117  C129  A    
C301  H291  S    
C6    O14   A    
C145  C150  A    
C225  C226  S    
C241  C242  S    
C112  N4    A    
C362  H450  S    
C268  H213  S    
C207  H71   S    
C135  C143  A    
C326  H366  S    
C334  H384  S    
C38   N1    S    
C48   C90   S    
C240  H148  S    
C298  H284  S    
C15   C167  A    
C360  H444  S    
C263  H203  S    
C239  H146  S    
C248  H166  S    
C256  C257  S    
C221  H104  S    
C65   C96   A    
C53   O33   A    
C364  C365  S    
C321  H354  S    
O28   Zn9   S    
C179  H6    S    
C253  C254  S    
C217  C218  S    
C48   O28   A    
O4    Zn4   S    
C318  C319  S    
O70   C180  S    
C39   C175  A    
C211  H80   S    
C284  H252  S    
C354  H430  S    
C40   C176  A    
O120  C330  S    
O74   C192  S    
C342  C343  S    
C5    O13   A    
C348  H416  S    
C77   C84   A    
C23   C31   A    
C368  H462  S    
O4    Zn9   S    
C319  C320  S    
C45   O25   A    
C326  H364  S    
C67   O79   S    
C145  O101  S    
C360  C361  S    
C271  H221  S    
C236  H138  S    
C294  H275  S    
C119  O67   S    
C215  H89   S    
C49   C99   S    
C69   O81   S    
C309  C310  S    
C187  H25   S    
C266  H208  S    
C267  C268  S    
C112  O60   S    
C322  C323  S    
C313  H318  S    
C270  C271  S    
C11   C163  A    
C300  H288  S    
C114  C134  A    
C130  C154  A    
C36   N7    S    
C119  N7    A    
C343  H404  S    
C108  C128  A    
C80   C95   A    
C9    C161  A    
C120  N8    A    
C273  H226  S    
C274  H227  S    
C332  H379  S    
C271  H220  S    
C207  C208  S    
C80   O92   S    
C162  H338  S    
C159  O115  S    
C219  H99   S    
C41   C91   S    
C299  H286  S    
O100  C270  S    
C288  C289  S    
C331  H377  S    
O128  C354  S    
C48   O50   A    
C338  H394  S    
C247  H165  S    
C8    O16   A    
C61   C100  A    
C244  H157  S    
C45   C95   S    
C348  C349  S    
C323  H357  S    
C277  H235  S    
C213  H85   S    
C20   C32   A    
C206  H70   S    
C282  H247  S    
C238  H143  S    
O96   C258  S    
O27   Zn10  S    
C24   O132  S    
C22   C30   A    
C134  C158  A    
C177  H1    S    
C33   C165  A    
C231  H128  S    
C265  H206  S    
C34   C162  A    
C367  C368  S    
C312  C313  S    
C357  H438  S    
C246  H162  S    
C304  H298  S    
C250  H172  S    
C331  C332  S    
C10   O118  S    
C356  H435  S    
C366  H458  S    
O4    Zn13  S    
C223  H108  S    
C204  C205  S    
C21   O129  S    
C128  C140  A    
C208  C209  S    
O32   Zn10  S    
C212  H82   S    
C198  C199  S    
C129  C153  A    
C62   C99   A    
C126  C150  A    
C333  H381  S    
C71   C90   A    
C115  C135  A    
C60   C69   A    
C363  C364  S    
C216  H92   S    
C116  N8    A    
C289  H263  S    
O122  C336  S    
C132  C156  A    
C205  H67   S    
C133  C157  A    
C1    O9    A    
C319  H332  S    
O88   C234  S    
C130  C142  A    
C194  H42   S    
C293  H272  S    
C357  C358  S    
O92   C246  S    
C76   C91   A    
C362  H448  S    
C136  C160  A    
C86   O98   S    
C196  C197  S    
C310  H311  S    
C231  H127  S    
C10   C162  A    
C226  H115  S    
C18   C170  A    
C269  H215  S    
C305  H299  S    
C278  H236  S    
O40   Zn5   S    
O44   Zn1   S    
C224  H111  S    
C47   O49   A    
O69   C177  S    
C106  N2    A    
C154  O110  S    
C85   C102  A    
O91   C243  S    
C292  H270  S    
C42   O48   A    
C364  H453  S    
O26   Zn15  S    
C17   C29   A    
C4    O8    A    
C318  H330  S    
C317  H329  S    
C349  C350  S    
C19   C31   A    
C339  H396  S    
C200  H54   S    
C234  C235  S    
C9    C25   A    
O79   C207  S    
C254  H181  S    
O38   Zn3   S    
C320  H336  S    
C202  H60   S    
C52   C102  S    
C334  H383  S    
C185  H20   S    
O29   Zn11  S    
C3    C30   S    
C54   C104  S    
O106  C288  S    
C218  H97   S    
C347  H414  S    
C353  H427  S    
C236  H140  S    
O46   Zn4   S    
C193  C194  S    
C172  H348  S    
C80   C81   A    
C365  H456  S    
C58   C71   A    
C356  H436  S    
C129  C141  A    
C81   C98   A    
C368  H464  S    
C282  H246  S    
C313  C314  S    
C358  H439  S    
C222  H107  S    
C52   O32   A    
C248  H168  S    
C359  H441  S    
C34   N5    S    
C325  H363  S    
O116  C318  S    
C350  H422  S    
C260  H195  S    
O8    Zn9   S    
C339  H395  S    
C294  C295  S    
C328  H369  S    
C251  H174  S    
C200  H55   S    
C63   O75   S    
C78   C83   A    
C219  C220  S    
C218  H96   S    
C241  H151  S    
C327  H367  S    
C364  H454  S    
C335  H386  S    
C230  H126  S    
C257  H188  S    
C338  H392  S    
C14   O122  S    
C287  H257  S    
C354  C355  S    
C20   O128  S    
C332  H378  S    
C115  O63   S    
C4    C29   S    
C323  H359  S    
C189  C190  S    
C61   O73   S    
C63   C66   A    
C336  H389  S    
C176  H352  S    
O93   C249  S    
C49   O39   A    
C54   O34   A    
C8    C25   S    
C228  H121  S    
C177  C178  S    
C238  C239  S    
C237  H142  S    
C265  C266  S    
C77   O89   S    
O14   Zn7   S    
C161  H337  S    
C38   C170  A    
C186  C187  S    
C283  H249  S    
C199  H52   S    
C183  C184  S    
C290  H266  S    
C257  H189  S    
C329  H371  S    
C111  C123  A    
O10   Zn11  S    
O9    Zn12  S    
O7    Zn10  S    
C146  O102  S    
C210  H78   S    
C295  H277  S    
O112  C306  S    
C122  C138  A    
C154  C157  A    
C195  H44   S    
C366  H459  S    
C212  H84   S    
C184  H17   S    
C330  H375  S    
C79   O91   S    
C193  H38   S    
C242  H154  S    
C245  H160  S    
C199  C200  S    
C66   O78   S    
C35   N8    S    
C114  N6    A    
C43   O23   A    
C71   O83   S    
C230  H124  S    
C169  H345  S    
C2    O10   A    
C185  H21   S    
C217  H95   S    
O42   Zn7   S    
C320  H335  S    
C232  H129  S    
C287  H259  S    
C9    O117  S    
C118  C130  A    
C79   C82   A    
C283  C284  S    
C19   O127  S    
C233  H132  S    
C196  H45   S    
C179  H7    S    
C109  O57   S    
C226  C227  S    
C55   C97   S    
C234  H135  S    
C182  H14   S    
O48   Zn2   S    
C199  H53   S    
C58   C103  A    
C221  H105  S    
C54   O44   A    
C285  H253  S    
C211  H81   S    
C336  H388  S    
C81   O93   S    
C263  H202  S    
C289  H262  S    
C266  H209  S    
C267  H212  S    
C216  C217  S    
C171  H347  S    
C309  H310  S    
C258  H191  S    
C147  O103  S    
O125  C345  S    
C82   C97   A    
C249  H170  S    
C180  H9    S    
C307  H304  S    
C40   N3    S    
C301  H290  S    
O17   Zn4   S    
C40   C172  A    
C200  H56   S    
C311  H313  S    
C220  H102  S    
C233  H133  S    
C207  H72   S    
C344  H406  S    
C202  H59   S    
C358  C359  S    
C51   O31   A    
C87   O99   S    
C183  H15   S    
C117  O65   S    
O35   Zn13  S    
C84   C99   A    
C124  C140  A    
C251  H175  S    
C234  H134  S    
C45   O51   A    
O41   Zn8   S    
C349  H419  S    
C244  H158  S    
C281  H245  S    
C264  H205  S    
C115  N7    A    
C43   O45   A    
O1    Zn12  S    
C345  H409  S    
C116  C136  A    
C351  H423  S    
O2    Zn11  S    
C51   C101  S    
C82   O94   S    
C346  H411  S    
C106  C126  A    
O3    Zn10  S    
C133  C141  A    
O3    Zn14  S    
C359  H443  S    
C125  C137  A    
C64   C65   A    
O115  C315  S    
C131  C155  A    
C209  H75   S    
C259  H192  S    
C294  H274  S    
C136  C144  A    
C194  H40   S    
O43   Zn2   S    
C110  C122  A    
C268  C269  S    
C37   C169  A    
C246  H163  S    
C55   O41   A    
O73   C189  S    
C114  O62   S    
C107  O55   S    
C53   C103  S    
C327  C328  S    
O2    Zn6   S    
C181  H11   S    
C43   C93   S    
C203  H62   S    
C42   O22   A    
C306  C307  S    
C117  N5    A    
O129  C357  S    
C57   C72   A    
C192  H36   S    
O47   Zn1   S    
C153  O109  S    
C35   C163  A    
C276  H233  S    
C324  H361  S    
C187  C188  S    
C59   C70   A    
C330  H374  S    
C353  H428  S    
O117  C321  S    
O23   Zn14  S    
C229  H122  S    
C363  H452  S    
C340  H397  S    
C106  O54   S    
C310  C311  S    
O127  C351  S    
C36   C164  A    
C317  H327  S    
O13   Zn8   S    
C292  H269  S    
O108  C294  S    
C34   C166  A    
C293  H273  S    
C88   O100  S    
C303  H296  S    
C170  H346  S    
C227  H117  S    
C46   O52   A    
O114  C312  S    
C362  H449  S    
C287  H258  S    
C16   C28   A    
C280  C281  S    
C290  H264  S    
C326  H365  S    
C295  H276  S    
C296  H280  S    
C275  H231  S    
C260  H196  S    
C298  H283  S    
O31   Zn9   S    
C33   C161  A    
C150  O106  S    
C61   C68   A    
C56   C98   S    
C302  H292  S    
C314  H322  S    
O36   Zn14  S    
C345  C346  S    
C224  H110  S    
C242  H152  S    
C256  H186  S    
C188  H26   S    
C203  H61   S    
C23   C175  A    
C134  C142  A    
C272  H223  S    
C321  C322  S    
C301  C302  S    
C62   C67   A    
C74   C89   A    
C211  C212  S    
C253  H178  S    
C318  H331  S    
C19   C171  A    
C6    O18   A    
C368  H463  S    
C315  C316  S    
C17   O125  S    
C316  C317  S    
C17   C169  A    
C342  H403  S    
C214  H88   S    
C12   C164  A    
C50   O30   A    
C78   C93   A    
C167  H343  S    
C146  C149  A    
C44   O24   A    
O118  C324  S    
C108  N4    A    
C243  H156  S    
C367  H461  S    
C18   O126  S    
C360  H445  S    
C44   O46   A    
C221  H103  S    
C319  H333  S    
C149  O105  S    
C252  H177  S    
C341  H399  S    
C197  H48   S    
C13   C165  A    
C351  H424  S    
O83   C219  S    
C289  C290  S    
O18   Zn3   S    
O1    Zn1   S    
C11   O119  S    
C279  H239  S    
C322  H356  S    
O39   Zn6   S    
C313  H319  S    
C366  C367  S    
C35   C167  A    
C231  C232  S    
C155  O111  S    
C297  H281  S    
C178  H4    S    
C64   O76   S    
C87   C104  A    
C187  H24   S    
O89   C237  S    
C2    C31   S    
C255  C256  S    
C62   O74   S    
O16   Zn1   S    
C222  C223  S    
C13   O121  S    
C10   C26   A    
C342  H402  S    
C261  H197  S    
C288  H261  S    
C335  H385  S    
C41   O21   A    
C335  H387  S    
C338  H393  S    
C247  C248  S    
O4    Zn8   S    
O12   Zn13  S    
C190  H31   S    
C127  C139  A    
O104  C282  S    
C361  H446  S    
C303  H295  S    
C22   C174  A    
C323  H358  S    
C257  H187  S    
C184  C185  S    
C213  H86   S    
C206  H69   S    
C220  C221  S    
C151  O107  S    
C164  H340  S    
O87   C231  S    
C116  O64   S    
O98   C264  S    
C354  H431  S    
C227  H118  S    
C302  H294  S    
C254  H180  S    
C312  H317  S    
O86   C228  S    
C324  C325  S    
C58   O70   S    
O33   Zn15  S    
C180  H8    S    
C321  H353  S    
C235  H136  S    
C203  H63   S    
C210  H79   S    
C346  C347  S    
O130  C360  S    
C341  H401  S    
C192  C193  S    
C278  H237  S    
C3    O7    A    
C198  H51   S    
C353  H429  S    
C208  H74   S    
C333  H382  S    
C6    C27   S    
C229  C230  S    
C65   O77   S    
O51   Zn5   S    
C340  C341  S    
C250  H171  S    
C297  C298  S    
C252  H176  S    
C352  C353  S    
C165  H341  S    
C179  H5    S    
C194  H41   S    
C273  C274  S    
C75   O87   S    
C223  C224  S    
C281  H244  S    
C75   C92   A    
C18   C30   A    
C291  H267  S    
C196  H46   S    
C123  C147  A    
C57   O69   S    
C168  H344  S    
C334  C335  S    
C305  H300  S    
C240  H149  S    
C182  H12   S    
C298  C299  S    
C121  C145  A    
C308  H308  S    
O3    Zn3   S    
C314  H320  S    
C148  O104  S    
C306  H302  S    
C88   C103  A    
O102  C276  S    
C186  H23   S    
C333  C334  S    
C280  H241  S    
C204  H64   S    
C188  H28   S    
O1    Zn5   S    
O72   C186  S    
C126  C138  A    
C343  H405  S    
O123  C339  S    
C270  H219  S    
C155  C160  A    
C120  C132  A    
O109  C297  S    
C363  H451  S    
C351  C352  S    
C215  H90   S    
O126  C348  S    
C258  H190  S    
C296  H279  S    
C278  H238  S    
C328  C329  S    
C316  H325  S    
C311  H315  S    
O15   Zn2   S    
C272  H224  S    
C358  H440  S    
C108  O56   S    
C336  C337  S    
C305  H301  S    
C262  H200  S    
C137  C138  A    
C21   C173  A    
C68   C93   A    
C56   O42   A    
C217  H94   S    
C111  O59   S    
C191  H33   S    
C344  H408  S    
C238  H144  S    
C147  C152  A    
O105  C285  S    
C236  H139  S    
C198  H50   S    
C141  C142  A    
C227  H119  S    
C72   C89   A    
C365  H457  S    
O76   C198  S    
C188  H27   S    
C355  H433  S    
C16   C168  A    
C279  C280  S    
C219  H100  S    
C239  H145  S    
C248  H167  S    
C359  H442  S    
C286  H256  S    
C214  H87   S    
C350  H421  S    
C7    O15   A    
C201  H57   S    
C223  H109  S    
O19   Zn6   S    
C300  H289  S    
C73   O85   S    
C37   C173  A    
C222  H106  S    
C265  H207  S    
C156  O112  S    
C160  O116  S    
C299  H285  S    
C327  H368  S    
C331  H376  S    
C237  H141  S    
C230  H125  S    
C247  H164  S    
C213  C214  S    
C204  H65   S    
O121  C333  S    
C308  H306  S    
C86   C101  A    
O132  C366  S    
C337  C338  S    
C78   O90   S    
O103  C279  S    
O1    Zn16  S    
C1    O5    A    
C277  H234  S    
C355  C356  S    
C178  H3    S    
