data_mof_unit_41189.cif
_audit_creation_date              2012-10-26T19:52:42-0400
_audit_creation_method            fapswitch 2.2
_symmetry_space_group_name_H-M    P1
_symmetry_Int_Tables_number       1
_space_group_crystal_system       triclinic
_cell_length_a                    15.054627
_cell_length_b                    10.898881
_cell_length_c                    9.548376
_cell_angle_alpha                 91.314517
_cell_angle_beta                  90.305367
_cell_angle_gamma                 91.142887
_cell_volume                      1565.93390933

loop_
_atom_site_label
_atom_site_type_symbol
_atom_type_description
_atom_site_fract_x
_atom_site_fract_y
_atom_site_fract_z
_atom_type_partial_charge
C1    C     C_R   0.498723 0.262340 0.498002 0.543534
C2    C     C_R   0.185373 0.458038 0.617725 -0.132022
C3    C     C_R   0.231725 0.496137 0.498777 -0.007341
C4    C     C_R   0.328630 0.499056 0.499667 0.543763
C5    C     C_R   0.185399 0.530348 0.378514 -0.135309
C6    C     C_R   0.478088 0.067815 0.618686 -0.052198
C7    C     C_R   0.490695 0.129053 0.493437 0.013728
C8    C     C_R   0.491000 0.058668 0.366390 0.210479
C9    C     C_R   0.487817 0.930898 0.371317 -0.105409
C10   C     C_R   0.490913 0.870942 0.500136 0.000374
C11   C     C_R   0.480708 0.941444 0.622833 0.045604
C12   C     C_R   0.906734 0.525961 0.376441 0.008026
C13   C     C_3   0.532464 0.947684 0.757197 0.094295
C14   C     C_3   0.525934 0.086176 0.754634 -0.217154
C15   C     C_R   0.571811 0.543544 0.076259 0.124445
C16   C     C_R   0.498777 0.737824 0.501077 0.586256
C17   C     C_R   0.432638 0.445872 0.072312 -0.000849
C18   C     C_R   0.432370 0.446446 0.923554 -0.021474
C19   C     C_R   0.573802 0.540607 0.928485 0.187977
C20   C     C_3   0.614556 0.667829 0.931345 0.136229
C21   C     C_3   0.608568 0.669967 0.089612 -0.230809
C22   C     C_R   0.671208 0.496409 0.499713 0.583090
C23   C     C_R   0.953223 0.410289 0.733409 -0.103430
C24   C     C_R   0.814311 0.527375 0.378315 -0.126428
C25   C     C_R   0.767868 0.489999 0.497459 -0.000806
C26   C     C_R   0.813864 0.446600 0.613488 -0.092750
C27   C     C_R   0.906489 0.447488 0.614864 0.015761
C28   C     C_R   0.953149 0.487539 0.495915 0.054005
C29   C     C_R   0.045900 0.413998 0.734819 -0.130196
C30   C     C_R   0.092768 0.453644 0.617109 0.013645
C31   C     C_R   0.046280 0.489600 0.496566 0.064390
C32   C     C_R   0.092830 0.528192 0.376881 0.013009
C33   C     C_R   0.046076 0.564414 0.257902 -0.130420
C34   C     C_R   0.953466 0.563748 0.257863 -0.117373
Cu1   Cu    Cu3+1 0.500000 0.499980 0.640670 0.991798
Cu2   Cu    Cu3+1 0.500000 0.500020 0.359330 0.958447
H1    H     H_    0.778677 0.559276 0.287666 0.144879
H2    H     H_    0.777446 0.412768 0.702664 0.172425
H3    H     H_    0.559146 0.736136 0.129246 0.104822
H4    H     H_    0.918120 0.379586 0.825415 0.144081
H5    H     H_    0.080911 0.385932 0.827854 0.110980
H6    H     H_    0.221324 0.430440 0.710167 0.115876
H7    H     H_    0.221349 0.560126 0.286793 0.122867
H8    H     H_    0.081125 0.594013 0.165362 0.117414
H9    H     H_    0.918403 0.593057 0.165388 0.165104
H10   H     H_    0.651897 0.932458 0.826153 0.355518
H11   H     H_    0.797710 0.720649 0.686643 0.364128
H12   H     H_    0.489443 0.879540 0.273181 0.149643
H13   H     H_    0.555814 0.158699 0.239138 0.341658
H14   H     H_    0.497226 0.905328 0.846566 0.107337
H15   H     H_    0.482049 0.123993 0.837647 0.129069
H16   H     H_    0.590922 0.135462 0.743935 0.167707
H17   H     H_    0.377412 0.403611 0.126282 0.131565
H18   H     H_    0.376895 0.404752 0.866565 0.118044
H19   H     H_    0.570976 0.733869 0.881313 0.134230
H20   H     H_    0.672942 0.673054 0.147059 0.177351
N1    N     N_R   0.500570 0.500930 0.147930 -0.243567
N2    N     N_R   0.500570 0.500890 0.852020 -0.266616
O1    O     O_R   0.500000 0.319640 0.618810 -0.517903
O2    O     O_2   0.773996 0.782296 0.954711 -0.305698
O3    O     O_2   0.774630 0.560270 0.911108 -0.338493
O4    O     O_3   0.734104 0.702538 0.704668 -0.468731
O5    O     O_3   0.499386 0.110224 0.236903 -0.696359
O6    O     O_R   0.500010 0.319680 0.381230 -0.481811
O7    O     O_R   0.370250 0.499950 0.618800 -0.520702
O8    O     O_R   0.370260 0.499990 0.381220 -0.514758
O9    O     O_R   0.499990 0.680320 0.618770 -0.470924
O10   O     O_R   0.500000 0.680360 0.381190 -0.525648
O11   O     O_R   0.629740 0.500010 0.618780 -0.446027
O12   O     O_R   0.629750 0.500050 0.381200 -0.516051
O13   O     O_3   0.620048 0.910150 0.737682 -0.638006
S1    S     S_3+6 0.728463 0.676950 0.877141 -0.008292

loop_
_geom_bond_atom_site_label_1
_geom_bond_atom_site_label_2
_ccdc_geom_bond_type
H13   O5    S    
Cu1   Cu2   S    
H11   O4    S    
C7    C8    A    
C15   C19   A    
C26   C27   A    
C12   C28   A    
Cu1   N2    S    
C23   C29   A    
C1    O1    A    
C30   C31   A    
Cu2   O8    S    
O2    S1    D    
C23   H4    S    
Cu1   O1    S    
C18   N2    A    
C14   H16   S    
C31   C32   A    
C8    C9    A    
C22   C25   S    
C16   O10   A    
C23   C27   A    
C9    C10   A    
C22   O11   A    
C5    C32   A    
C5    H7    S    
C13   C14   S    
C15   N1    A    
C20   H19   S    
Cu2   O12   S    
C33   C34   A    
C19   N2    A    
C24   C25   A    
C24   H1    S    
Cu2   N1    S    
C6    C11   A    
C16   O9    A    
C26   H2    S    
C13   O13   S    
C25   C26   A    
C29   C30   A    
C6    C14   S    
C14   H15   S    
C21   H3    S    
Cu1   O9    S    
C17   C18   A    
O4    S1    S    
C34   H9    S    
H10   O13   S    
O3    S1    D    
C12   C34   A    
C3    C4    S    
C1    O6    A    
C17   H17   S    
C29   H5    S    
C1    C7    S    
C33   H8    S    
C28   C31   A    
C3    C5    A    
C21   H20   S    
Cu2   O10   S    
C6    C7    A    
C12   C24   A    
C2    C30   A    
C32   C33   A    
C19   C20   S    
C2    C3    A    
C10   C16   S    
C4    O8    A    
C11   C13   S    
C4    O7    A    
C2    H6    S    
C10   C11   A    
C18   H18   S    
C8    O5    S    
C13   H14   S    
C15   C21   S    
C20   C21   S    
Cu1   O11   S    
C9    H12   S    
C27   C28   A    
Cu1   O7    S    
C20   S1    S    
Cu2   O6    S    
C22   O12   A    
C17   N1    A    
