data_mof_unit_54351.cif
_audit_creation_date              2012-12-11T15:29:42-0500
_audit_creation_method            fapswitch 2.2
_symmetry_space_group_name_H-M    P1
_symmetry_Int_Tables_number       1
_space_group_crystal_system       triclinic
_cell_length_a                    13.476745
_cell_length_b                    13.500308
_cell_length_c                    27.570292
_cell_angle_alpha                 90.565655
_cell_angle_beta                  90.003581
_cell_angle_gamma                 60.028023
_cell_volume                      4345.05445781

loop_
_atom_site_label
_atom_site_type_symbol
_atom_type_description
_atom_site_fract_x
_atom_site_fract_y
_atom_site_fract_z
_atom_type_partial_charge
C1    C     C_R   0.620374 0.101203 0.569882 0.547249
C2    C     C_1   0.649774 0.704367 0.657792 -0.058435
C3    C     C_3   0.090694 0.133047 0.737359 -0.101694
C4    C     C_R   0.599794 0.779207 0.568447 0.546287
C5    C     C_3   0.182848 0.059388 0.775224 -0.100354
C6    C     C_1   0.097830 0.200007 0.900277 -0.015548
C7    C     C_1   0.229518 0.137744 0.617075 -0.015406
C8    C     C_3   0.055483 0.241366 0.768888 -0.101427
C9    C     C_3   0.148069 0.167537 0.805897 0.052628
C10   C     C_3   0.144252 0.262172 0.742098 -0.098990
C11   C     C_3   0.179066 0.154141 0.711342 0.052624
C12   C     C_1   0.631332 0.731678 0.615901 -0.015319
C13   C     C_3   0.236367 0.188607 0.779811 -0.101967
C14   C     C_3   0.271682 0.080269 0.748327 -0.103073
C15   C     C_1   0.125633 0.180779 0.858200 -0.058936
C16   C     C_R   0.277708 0.121673 0.569373 0.544912
C17   C     C_1   0.201565 0.146574 0.659092 -0.058518
C18   C     C_3   0.628835 0.276724 0.738952 -0.101545
C19   C     C_3   0.554825 0.258038 0.776842 -0.100068
C20   C     C_1   0.691503 0.206691 0.901384 -0.016183
C21   C     C_1   0.635640 0.133292 0.617807 -0.015832
C22   C     C_3   0.736970 0.204266 0.769898 -0.101442
C23   C     C_3   0.699348 0.560842 0.766957 -0.101530
C24   C     C_3   0.662803 0.185310 0.806951 0.052797
C25   C     C_3   0.758814 0.094492 0.742483 -0.099209
C26   C     C_3   0.650929 0.167097 0.712309 0.052611
C27   C     C_3   0.684889 0.075753 0.780255 -0.102066
C28   C     C_R   0.621956 0.100125 0.431482 0.536683
C29   C     C_3   0.576726 0.148144 0.749337 -0.103131
C30   C     C_1   0.674479 0.195818 0.859291 -0.058752
C31   C     C_1   0.643972 0.152232 0.659958 -0.058619
C32   C     C_R   0.633037 0.737991 0.379983 -0.006017
C33   C     C_R   0.699738 0.773325 0.354116 -0.118543
C34   C     C_3   0.679657 0.654362 0.804366 0.052706
C35   C     C_R   0.707820 0.763782 0.303751 0.240206
C36   C     C_R   0.653180 0.712527 0.279461 0.070734
C37   C     C_R   0.591882 0.671345 0.305513 -0.158791
C38   C     C_R   0.580610 0.685308 0.355554 -0.133973
C39   C     C_R   0.566276 0.724213 0.198966 -0.130804
C40   C     C_R   0.600783 0.779412 0.429677 0.544835
C41   C     C_R   0.579277 0.692670 0.150290 -0.134022
C42   C     C_R   0.784187 0.619407 0.156431 -0.135739
C43   C     C_R   0.771510 0.648405 0.205130 -0.072196
C44   C     C_R   0.663110 0.697695 0.226918 0.068242
C45   C     C_3   0.590097 0.648468 0.740009 -0.099152
C46   C     C_R   0.689097 0.635554 0.129451 0.015583
C47   C     C_R   0.244766 0.129762 0.380843 -0.013395
C48   C     C_R   0.148629 0.123574 0.366377 -0.072790
C49   C     C_R   0.120530 0.130553 0.317177 0.294651
C50   C     C_R   0.194933 0.137538 0.282435 0.068569
C51   C     C_R   0.293750 0.137969 0.297647 -0.160332
C52   C     C_R   0.279401 0.119960 0.431048 0.534493
C53   C     C_R   0.317730 0.135367 0.346399 -0.134739
C54   C     C_R   0.153509 0.257725 0.211012 -0.165002
C55   C     C_R   0.127129 0.282209 0.162174 0.249332
C56   C     C_3   0.663719 0.682948 0.709933 0.052725
C57   C     C_R   0.127989 0.102045 0.152738 -0.175862
C58   C     C_R   0.160404 0.075322 0.201366 0.228670
C59   C     C_R   0.167956 0.156545 0.230787 0.009563
C60   C     C_R   0.106356 0.207198 0.133500 -0.002480
C61   C     C_R   0.640960 0.138850 0.384799 0.018852
C62   C     C_R   0.548644 0.231716 0.361929 -0.135328
C63   C     C_R   0.555041 0.251115 0.313028 -0.126533
C64   C     C_3   0.772849 0.595718 0.736092 -0.101419
C65   C     C_R   0.654837 0.179737 0.286544 0.039487
C66   C     C_R   0.750828 0.093464 0.310416 -0.094493
C67   C     C_3   0.570622 0.741523 0.778146 -0.102082
C68   C     C_R   0.743746 0.072641 0.359226 -0.120377
C69   C     C_R   0.713761 0.096376 0.203508 -0.114174
C70   C     C_R   0.726380 0.109077 0.154317 -0.123209
C71   C     C_R   0.617101 0.315346 0.164514 -0.134828
C72   C     C_R   0.606512 0.302668 0.213810 -0.128605
C73   C     C_R   0.657737 0.193154 0.233901 0.032395
C74   C     C_R   0.681372 0.218679 0.134910 0.022049
C75   C     C_R   0.049954 0.234816 0.947981 0.541952
C76   C     C_3   0.753404 0.688816 0.774364 -0.100268
C77   C     C_R   0.711982 0.561874 0.946410 0.544537
C78   C     C_3   0.644045 0.776478 0.747333 -0.103077
C79   C     C_R   0.722547 0.224093 0.949108 0.544855
C80   C     C_R   0.047650 0.244147 0.086594 0.561001
C81   C     C_R   0.708761 0.573111 0.083919 0.542412
C82   C     C_R   0.719528 0.233316 0.087379 0.541184
C83   C     C_1   0.697405 0.607380 0.898612 -0.016391
C84   C     C_3   0.207818 0.394330 0.145576 0.010281
C85   C     C_3   0.182839 0.503931 0.172601 -0.263063
C86   C     C_3   0.289408 0.515982 0.175650 -0.486221
C87   C     C_1   0.688433 0.633553 0.856570 -0.059287
Cr1   Cr    Cr6+3 0.417550 0.169090 0.500530 1.023193
Cr2   Cr    Cr6+3 0.669180 0.913420 0.499920 1.022951
Cr3   Cr    Cr6+3 0.413260 0.917540 0.499520 1.033329
Cr4   Cr    Cr6+3 0.909770 0.175810 0.018240 1.019806
Cr5   Cr    Cr6+3 0.913300 0.427650 0.016090 1.039661
Cr6   Cr    Cr6+3 0.657770 0.431010 0.016900 1.016636
H1    H     H_    0.820145 0.705842 0.789129 0.104111
H2    H     H_    0.803253 0.227338 0.778939 0.099423
H3    H     H_    0.738775 0.816450 0.372535 0.128039
H4    H     H_    0.855690 0.535578 0.718305 0.103526
H5    H     H_    0.481758 0.764088 0.215360 0.133681
H6    H     H_    0.504831 0.706540 0.129851 0.128864
H7    H     H_    0.847456 0.625721 0.226341 0.155992
H8    H     H_    0.869941 0.575155 0.141221 0.170417
H9    H     H_    0.551250 0.629949 0.286957 0.114526
H10   H     H_    0.528081 0.658629 0.374882 0.139034
H11   H     H_    0.093710 0.117008 0.393315 0.129848
H12   H     H_    0.296479 0.211013 0.797697 0.103045
H13   H     H_    0.160591 0.319465 0.234014 0.117889
H14   H     H_    0.621228 0.865520 0.738625 0.100617
H15   H     H_    0.115502 0.042571 0.130516 0.121832
H16   H     H_    0.351206 0.143112 0.271570 0.123244
H17   H     H_    0.394650 0.135984 0.357341 0.137222
H18   H     H_    0.468259 0.284534 0.380783 0.132000
H19   H     H_    0.750747 0.010955 0.218014 0.142040
H20   H     H_    0.775769 0.033516 0.131934 0.128764
H21   H     H_    0.479801 0.318147 0.295483 0.100174
H22   H     H_    0.563244 0.378642 0.236487 0.105069
H23   H     H_    0.127913 0.345681 0.727942 0.104498
H24   H     H_    0.487720 0.801660 0.795896 0.103077
H25   H     H_    0.582543 0.400944 0.150434 0.134987
H26   H     H_    0.830114 0.039750 0.290978 0.135207
H27   H     H_    0.816473 0.001180 0.376147 0.131257
H28   H     H_    0.523310 0.631414 0.725314 0.104541
H29   H     H_    0.722077 0.471824 0.775658 0.098837
H30   H     H_    0.199144 0.975966 0.789457 0.104090
H31   H     H_    0.030577 0.110716 0.719430 0.103323
H32   H     H_    0.360991 0.013737 0.739245 0.100501
H33   H     H_    0.796160 0.842162 0.300209 0.314243
H34   H     H_    0.966190 0.307990 0.777937 0.099351
H35   H     H_    0.232462 0.399144 0.107579 0.154199
H36   H     H_    0.283452 0.319747 0.162337 0.117132
H37   H     H_    0.114045 0.579033 0.153508 0.173126
H38   H     H_    0.152355 0.502865 0.209939 0.163856
H39   H     H_    0.357377 0.443994 0.196411 0.147848
H40   H     H_    0.267889 0.597350 0.194556 0.153074
H41   H     H_    0.322051 0.516758 0.138739 0.148594
H42   H     H_    0.001207 0.154047 0.270870 0.342607
H43   H     H_    0.172855 0.925853 0.195542 0.315505
H44   H     H_    0.470873 0.324909 0.791569 0.104194
H45   H     H_    0.606291 0.359072 0.721506 0.102978
H46   H     H_    0.510527 0.124977 0.740263 0.100438
H47   H     H_    0.707499 0.993344 0.797663 0.103187
H48   H     H_    0.842837 0.027589 0.727817 0.104426
O1    O     O_R   0.301780 0.195490 0.553940 -0.505889
O2    O     O_R   0.636050 0.541380 0.962520 -0.507822
O3    O     O_R   0.666480 0.323610 0.968170 -0.494687
O4    O     O_R   0.522450 0.158840 0.550250 -0.493115
O5    O     O_R   0.817280 0.156800 0.072180 -0.514947
O6    O     O_R   0.005110 0.187160 0.067410 -0.514716
O7    O     O_R   0.026450 0.340060 0.069950 -0.458766
O8    O     O_R   0.808300 0.527240 0.065170 -0.499726
O9    O     O_R   0.634070 0.548770 0.069460 -0.523875
O10   O     O_R   0.664650 0.330470 0.067300 -0.506067
O11   O     O_3   0.826940 0.344820 0.017080 -0.248247
O12   O     O_R   0.658840 0.818280 0.449970 -0.508662
O13   O     O_R   0.694460 0.003360 0.553820 -0.505242
O14   O     O_R   0.657750 0.819520 0.549120 -0.493231
O15   O     O_R   0.501990 0.803120 0.552700 -0.506928
O16   O     O_R   0.318230 0.023430 0.549370 -0.495175
O17   O     O_R   0.302950 0.194150 0.446980 -0.514837
O18   O     O_R   0.523540 0.157600 0.451100 -0.507606
O19   O     O_R   0.695630 0.002030 0.446860 -0.523369
O20   O     O_3   0.763347 0.808745 0.277543 -0.728629
O21   O     O_3   0.106877 0.386308 0.144330 -0.556018
O22   O     O_3   0.019262 0.133933 0.305360 -0.690547
O23   O     O_R   0.503160 0.801780 0.445740 -0.507900
O24   O     O_3   0.181894 0.972877 0.221115 -0.687179
O25   O     O_R   0.319320 0.022190 0.450230 -0.491878
O26   O     O_3   0.499990 0.000010 0.499990 -0.249203
O27   O     O_R   0.819250 0.149410 0.965240 -0.507042
O28   O     O_R   0.006940 0.180310 0.968270 -0.495979
O29   O     O_R   0.028420 0.332670 0.963010 -0.510517
O30   O     O_R   0.810130 0.520390 0.966030 -0.496082

loop_
_geom_bond_atom_site_label_1
_geom_bond_atom_site_label_2
_ccdc_geom_bond_type
C53   H17   S    
C84   H35   S    
C83   C87   T    
C63   C65   A    
C1    C21   S    
C23   C45   S    
Cr3   O26   S    
C27   C29   S    
C22   H2    S    
C66   C68   A    
C35   C36   A    
C18   C26   S    
C24   C27   S    
C2    C12   T    
Cr4   O6    S    
Cr2   O13   S    
C65   C73   S    
C6    C75   S    
C39   C41   A    
C20   C30   T    
C85   C86   S    
C5    C9    S    
C21   C31   T    
C72   H22   S    
C37   C38   A    
C14   H32   S    
C50   C59   S    
C36   C37   A    
C76   C78   S    
C40   O23   A    
Cr4   O11   S    
C33   C35   A    
C11   C14   S    
C81   O8    A    
Cr2   O14   S    
Cr5   O7    S    
H43   O24   S    
C77   C83   S    
Cr5   O30   S    
C81   O9    A    
C48   H11   S    
C84   H36   S    
C28   O19   A    
C56   C78   S    
C18   C19   S    
C42   C46   A    
Cr1   O18   S    
C18   H45   S    
C58   O24   S    
C9    C13   S    
C70   C74   A    
Cr2   O26   S    
C86   H40   S    
C52   O25   A    
C6    C15   T    
C63   H21   S    
C1    O4    A    
C86   H41   S    
C80   O6    A    
C11   C17   S    
C62   H18   S    
C79   O3    A    
C45   C56   S    
Cr5   O29   S    
C8    C9    S    
C7    C17   T    
C22   C25   S    
C45   C67   S    
C41   C46   A    
C56   C64   S    
C69   C73   A    
Cr1   O17   S    
C79   O27   A    
C4    C12   S    
H33   O20   S    
C82   O10   A    
Cr6   O2    S    
C77   O30   A    
C47   C53   A    
C84   O21   S    
C76   H1    S    
C28   C61   S    
C23   C34   S    
C26   C31   S    
C51   H16   S    
C55   C60   A    
Cr3   O25   S    
Cr6   O9    S    
C61   C62   A    
C67   C78   S    
C33   H3    S    
C74   C82   S    
Cr1   O1    S    
C82   O5    A    
C23   H29   S    
C54   C59   A    
C70   H20   S    
C52   O17   A    
C29   H46   S    
C25   H48   S    
Cr4   O28   S    
Cr4   O27   S    
C3    C11   S    
C43   H7    S    
C13   H12   S    
C3    C8    S    
C57   C60   A    
C54   H13   S    
C39   H5    S    
C45   H28   S    
C25   C26   S    
C28   O18   A    
Cr3   O23   S    
C78   H14   S    
C51   C53   A    
C16   O1    A    
C43   C44   A    
C77   O2    A    
C75   O28   A    
C38   H10   S    
C85   H37   S    
C46   C81   S    
C8    H34   S    
Cr2   O12   S    
C47   C48   A    
C64   H4    S    
C19   H44   S    
Cr1   O26   S    
C57   H15   S    
C62   C63   A    
C41   H6    S    
C50   C51   A    
C64   C76   S    
Cr1   O4    S    
C35   O20   S    
C84   C85   S    
C67   H24   S    
C5    C14   S    
C47   C52   S    
C75   O29   A    
C23   C64   S    
C4    O15   A    
C49   C50   A    
C32   C38   A    
C66   H26   S    
C22   C24   S    
C40   O12   A    
Cr6   O10   S    
C42   C43   A    
Cr3   O15   S    
C19   C29   S    
C42   H8    S    
C10   H23   S    
C3    H31   S    
Cr2   O19   S    
C54   C55   A    
C60   C80   S    
C71   H25   S    
C16   O16   A    
C18   C22   S    
H42   O22   S    
C7    C16   S    
C55   O21   S    
C72   C73   A    
C3    C5    S    
C10   C13   S    
C34   C67   S    
C71   C74   A    
C1    O13   A    
C39   C44   A    
C25   C27   S    
C5    H30   S    
C27   H47   S    
C32   C33   A    
Cr3   O16   S    
C19   C24   S    
C58   C59   A    
C71   C72   A    
C2    C56   S    
C85   H38   S    
C61   C68   A    
C86   H39   S    
C57   C58   A    
C37   H9    S    
C48   C49   A    
Cr6   O3    S    
C69   H19   S    
C34   C87   S    
C32   C40   S    
C9    C15   S    
C69   C70   A    
C24   C30   S    
C49   O22   S    
C36   C44   S    
C10   C11   S    
Cr5   O11   S    
C80   O7    A    
C4    O14   A    
C26   C29   S    
C8    C10   S    
C65   C66   A    
Cr5   O8    S    
Cr6   O11   S    
C13   C14   S    
Cr4   O5    S    
C68   H27   S    
C34   C76   S    
C20   C79   S    
