data_mof_unit_63024.cif
_audit_creation_date              2012-10-26T18:14:26-0400
_audit_creation_method            fapswitch 2.2
_symmetry_space_group_name_H-M    P1
_symmetry_Int_Tables_number       1
_space_group_crystal_system       triclinic
_cell_length_a                    27.685814
_cell_length_b                    27.786506
_cell_length_c                    27.734642
_cell_angle_alpha                 109.482881
_cell_angle_beta                  109.419221
_cell_angle_gamma                 109.36408
_cell_volume                      16454.3036862

loop_
_atom_site_label
_atom_site_type_symbol
_atom_type_description
_atom_site_fract_x
_atom_site_fract_y
_atom_site_fract_z
_atom_type_partial_charge
C1    C     C_R   0.919929 0.919985 0.500046 0.551724
C2    C     C_3   0.788851 0.728765 0.469197 0.054908
C3    C     C_3   0.710884 0.848709 0.141999 -0.297536
C4    C     C_3   0.680294 0.795378 0.080817 -0.459843
C5    C     C_3   0.310726 0.427421 0.587132 -0.347361
C6    C     C_3   0.161992 0.278573 0.515084 -0.202792
C7    C     C_3   0.159426 0.328782 0.558404 -0.280030
C8    C     C_3   0.110009 0.338166 0.525727 -0.467909
C9    C     C_3   0.102191 0.098801 0.349936 -0.332909
C10   C     C_3   0.223190 0.310985 0.384727 -0.316534
C11   C     C_3   0.295952 0.239880 0.379756 -0.312878
C12   C     C_3   0.355342 0.268090 0.634635 -0.311067
C13   C     C_3   0.733053 0.679374 0.460869 -0.087293
C14   C     C_3   0.264324 0.146643 0.495195 -0.218988
C15   C     C_3   0.319597 0.142711 0.525296 -0.312171
C16   C     C_3   0.311093 0.082041 0.490377 -0.469665
C17   C     C_3   0.199989 0.255026 0.618915 -0.285780
C18   C     C_3   0.369820 0.280549 0.242580 -0.322916
C19   C     C_3   0.331621 0.098890 0.138131 -0.306107
C20   C     C_3   0.406860 0.208266 0.290587 -0.238951
C21   C     C_3   0.412468 0.158508 0.300864 -0.332770
C22   C     C_3   0.395577 0.153768 0.346919 -0.460818
C23   C     C_3   0.636556 0.366461 0.360224 -0.301706
C24   C     C_R   0.919828 0.999985 0.419815 0.557169
C25   C     C_3   0.416567 0.598367 0.731247 -0.329760
C26   C     C_3   0.645524 0.885077 0.908349 -0.323730
C27   C     C_3   0.373680 0.763228 0.694849 -0.304317
C28   C     C_3   0.538145 0.870594 0.755239 -0.217003
C29   C     C_3   0.521446 0.903724 0.723192 -0.314932
C30   C     C_3   0.575968 0.950943 0.730884 -0.468605
C31   C     C_3   0.403712 0.739252 0.587766 -0.304485
C32   C     C_3   0.537773 0.746926 0.619170 -0.321776
C33   C     C_3   0.770089 0.682659 0.607223 -0.315155
C34   C     C_3   0.900761 0.860397 0.666853 -0.303919
C35   C     C_1   0.625099 0.624876 0.500482 -0.058101
C36   C     C_3   0.841323 0.726543 0.411917 -0.314369
C37   C     C_3   0.794473 0.790461 0.502026 0.082770
C38   C     C_3   0.766680 0.755442 0.570297 0.195304
C39   C     C_3   0.712514 0.708460 0.504062 0.046652
C40   C     C_3   0.686306 0.741126 0.477378 -0.258582
C41   C     C_3   0.733415 0.787656 0.473845 0.011319
C42   C     C_1   0.663982 0.662484 0.501798 -0.076425
C43   C     C_3   0.790967 0.999106 0.291447 0.014107
C44   C     C_1   0.839194 0.837220 0.501160 0.022764
C45   C     C_1   0.875861 0.875267 0.500698 -0.018709
C46   C     C_3   0.245851 0.059835 0.766575 -0.207192
C47   C     C_R   0.080306 0.080004 0.500176 0.548080
C48   C     C_3   0.249604 0.982471 0.686254 -0.068484
C49   C     C_3   0.301941 0.989390 0.737678 -0.197463
C50   C     C_1   0.375649 0.999870 0.875447 -0.038364
C51   C     C_3   0.209050 0.999453 0.708299 0.087889
C52   C     C_3   0.294247 0.059891 0.815101 -0.216642
C53   C     C_3   0.292066 0.999849 0.791321 0.060539
C54   C     C_3   0.775698 0.043288 0.240960 -0.135711
C55   C     C_3   0.229681 0.950959 0.770409 -0.221283
C56   C     C_3   0.180759 0.952759 0.724004 -0.233901
C57   C     C_1   0.338037 0.999863 0.837613 -0.079992
C58   C     C_1   0.162445 0.999442 0.662614 -0.079448
C59   C     C_R   0.080100 0.999886 0.580236 0.554512
C60   C     C_1   0.124762 0.999642 0.625087 -0.045477
C61   C     C_3   0.219476 0.273540 0.540749 0.172603
C62   C     C_3   0.185877 0.196232 0.435373 0.028282
C63   C     C_3   0.230772 0.244392 0.428607 0.301279
C64   C     C_1   0.374937 0.374082 0.498351 -0.063281
C65   C     C_3   0.709017 0.999386 0.208571 0.045439
C66   C     C_3   0.209586 0.209263 0.501435 0.084549
C67   C     C_3   0.272609 0.319218 0.540767 0.049971
C68   C     C_3   0.287854 0.288693 0.493229 0.060924
C69   C     C_3   0.313213 0.252263 0.514082 -0.220958
C70   C     C_3   0.271098 0.209369 0.526157 0.165285
C71   C     C_3   0.712957 0.007076 0.267370 0.180656
C72   C     C_1   0.335861 0.335519 0.495841 -0.049715
C73   C     C_1   0.163631 0.162719 0.501536 -0.043105
C74   C     C_1   0.125601 0.124664 0.500697 -0.059258
C75   C     C_R   0.500568 0.079961 0.080689 0.555923
C76   C     C_3   0.788197 0.991375 0.232623 -0.117637
C77   C     C_R   0.580946 0.000014 0.080876 0.554549
C78   C     C_R   0.501042 0.919996 0.920823 0.548734
C79   C     C_R   0.420534 0.999952 0.920456 0.554827
C80   C     C_R   0.499722 0.579812 0.579797 0.551635
C81   C     C_R   0.580082 0.580025 0.500021 0.552527
C82   C     C_R   0.500181 0.419927 0.419933 0.551865
C83   C     C_3   0.724085 0.954916 0.259015 0.043631
C84   C     C_R   0.419940 0.419672 0.499656 0.549491
C85   C     C_3   0.436334 0.178082 0.207688 0.080245
C86   C     C_3   0.503809 0.258192 0.197342 -0.238871
C87   C     C_3   0.721047 0.947586 0.200022 0.014326
C88   C     C_3   0.506545 0.307393 0.247283 -0.218449
C89   C     C_1   0.499078 0.374249 0.375119 -0.058128
C90   C     C_3   0.495968 0.205361 0.207762 0.022245
C91   C     C_3   0.430145 0.228127 0.251176 0.177785
C92   C     C_3   0.493957 0.286937 0.290029 0.093684
C93   C     C_3   0.542147 0.271547 0.318203 0.030098
C94   C     C_3   0.547484 0.228984 0.269671 -0.212829
C95   C     C_1   0.874935 0.999852 0.375017 -0.036507
C96   C     C_1   0.497035 0.335245 0.336936 -0.063043
C97   C     C_1   0.498484 0.160976 0.162447 -0.046248
C98   C     C_1   0.837138 0.999615 0.337333 -0.075878
C99   C     C_1   0.499866 0.124323 0.125215 -0.022129
C100  C     C_3   0.458246 0.733847 0.772129 -0.236746
C101  C     C_3   0.564050 0.798042 0.811999 0.003530
C102  C     C_3   0.564730 0.755195 0.759227 -0.230852
C103  C     C_1   0.500795 0.626089 0.624055 -0.042001
C104  C     C_3   0.502821 0.796383 0.789105 0.067788
C105  C     C_3   0.456306 0.686148 0.721430 0.010636
C106  C     C_3   0.501789 0.714886 0.703729 0.073763
C107  C     C_1   0.625762 0.999983 0.125585 -0.034778
C108  C     C_3   0.484386 0.755047 0.679070 0.315474
C109  C     C_1   0.663375 0.999850 0.163081 -0.063593
C110  C     C_3   0.487121 0.806701 0.733177 0.219178
C111  C     C_1   0.501504 0.665933 0.660040 -0.034616
C112  C     C_1   0.501710 0.839418 0.837238 -0.051354
C113  C     C_1   0.501038 0.875612 0.875620 -0.049205
C114  C     C_3   0.779543 0.051413 0.300608 -0.085197
C115  C     C_3   0.700131 0.907204 0.274219 -0.246392
C116  C     C_3   0.632846 0.868264 0.236856 -0.299998
C117  C     C_3   0.610576 0.822966 0.254912 -0.464119
C118  C     C_3   0.740801 0.626401 0.461731 -0.266728
C119  C     C_3   0.735097 0.585820 0.404093 -0.314421
C120  C     C_3   0.811886 0.807060 0.567561 0.021390
C121  C     C_3   0.737846 0.532016 0.404667 -0.462286
C122  C     C_3   0.677824 0.800211 0.393304 -0.330713
C123  C     C_3   0.745698 0.781392 0.614861 -0.218544
C124  C     C_3   0.743435 0.838910 0.626594 -0.330972
C125  C     C_3   0.707032 0.846163 0.656653 -0.460158
C126  C     C_3   0.684146 0.030521 0.343250 -0.315567
C127  C     C_3   0.268966 0.009160 0.650322 -0.261895
C128  C     C_3   0.300454 0.076541 0.680006 -0.285560
C129  C     C_3   0.327960 0.097746 0.646517 -0.467199
C130  C     C_3   0.688300 0.891798 0.139916 -0.254832
Cu1   Cu    Cu3+1 0.999890 0.041260 0.541240 0.912403
Cu2   Cu    Cu3+1 0.000110 0.958740 0.458760 0.914786
Cu3   Cu    Cu3+1 0.459450 0.958710 0.000750 0.921271
Cu4   Cu    Cu3+1 0.542080 0.041260 0.000670 0.919082
Cu5   Cu    Cu3+1 0.541380 0.499870 0.541250 0.909572
Cu6   Cu    Cu3+1 0.458620 0.499880 0.458500 0.898506
H1    H     H_    0.828145 0.728810 0.497561 0.118801
H2    H     H_    0.344619 0.026543 0.751411 0.119264
H3    H     H_    0.269720 0.345486 0.415656 0.171915
H4    H     H_    0.206055 0.187530 0.341820 0.252134
H5    H     H_    0.302493 0.280049 0.376841 0.149542
H6    H     H_    0.291608 0.207973 0.339327 0.113437
H7    H     H_    0.335847 0.249673 0.417161 0.142627
H8    H     H_    0.272305 0.195894 0.597270 0.243734
H9    H     H_    0.361776 0.268781 0.676636 0.126240
H10   H     H_    0.368077 0.313571 0.643134 0.142267
H11   H     H_    0.384813 0.254329 0.622552 0.123767
H12   H     H_    0.272745 0.047394 0.486222 0.149795
H13   H     H_    0.305553 0.948910 0.722309 0.093325
H14   H     H_    0.303731 0.073187 0.445681 0.149097
H15   H     H_    0.351217 0.080304 0.513685 0.139510
H16   H     H_    0.358447 0.176290 0.529034 0.154614
H17   H     H_    0.328886 0.150401 0.570066 0.168933
H18   H     H_    0.226892 0.113056 0.493159 0.152656
H19   H     H_    0.255509 0.133443 0.449815 0.146626
H20   H     H_    0.260918 0.333270 0.632420 0.237526
H21   H     H_    0.209361 0.284077 0.663599 0.109870
H22   H     H_    0.209028 0.219639 0.620953 0.158595
H23   H     H_    0.152514 0.235483 0.587855 0.147069
H24   H     H_    0.152816 0.963343 0.741881 0.114493
H25   H     H_    0.386879 0.239109 0.178584 0.247094
H26   H     H_    0.400525 0.325375 0.253946 0.144319
H27   H     H_    0.369406 0.281626 0.282721 0.143124
H28   H     H_    0.324767 0.267931 0.210633 0.133273
H29   H     H_    0.381373 0.159722 0.120637 0.246554
H30   H     H_    0.299104 0.071551 0.090181 0.134403
H31   H     H_    0.312762 0.121332 0.160837 0.163833
H32   H     H_    0.339440 0.069174 0.154327 0.135985
H33   H     H_    0.426217 0.195011 0.390191 0.149559
H34   H     H_    0.349675 0.145381 0.332775 0.145069
H35   H     H_    0.151233 0.908426 0.683795 0.103990
H36   H     H_    0.398332 0.116752 0.352311 0.142371
H37   H     H_    0.381773 0.115672 0.259253 0.152180
H38   H     H_    0.457654 0.165124 0.316014 0.139984
H39   H     H_    0.426740 0.247102 0.334367 0.134125
H40   H     H_    0.358625 0.192364 0.269964 0.158960
H41   H     H_    0.600629 0.338298 0.407236 0.251635
H42   H     H_    0.682905 0.388666 0.396003 0.138429
H43   H     H_    0.622949 0.400319 0.364459 0.133211
H44   H     H_    0.635650 0.347740 0.317666 0.140287
H45   H     H_    0.505406 0.662597 0.776509 0.248725
H46   H     H_    0.222621 0.956730 0.808727 0.116034
H47   H     H_    0.429002 0.567453 0.741564 0.139605
H48   H     H_    0.379482 0.573045 0.685089 0.143082
H49   H     H_    0.402073 0.617661 0.761833 0.131378
H50   H     H_    0.643960 0.864542 0.828786 0.244500
H51   H     H_    0.677295 0.932302 0.927888 0.145374
H52   H     H_    0.670175 0.863434 0.922565 0.127376
H53   H     H_    0.614009 0.882138 0.925080 0.158855
H54   H     H_    0.437402 0.849706 0.742839 0.241037
H55   H     H_    0.364078 0.769830 0.731658 0.118390
H56   H     H_    0.367613 0.718723 0.674036 0.168631
H57   H     H_    0.216057 0.068653 0.782497 0.107784
H58   H     H_    0.340363 0.765683 0.661388 0.135616
H59   H     H_    0.608215 0.982559 0.778483 0.154909
H60   H     H_    0.597194 0.930408 0.710012 0.147143
H61   H     H_    0.562879 0.975364 0.709475 0.139917
H62   H     H_    0.489697 0.873900 0.675562 0.158244
H63   H     H_    0.500121 0.925958 0.742047 0.151883
H64   H     H_    0.554463 0.900878 0.802133 0.166112
H65   H     H_    0.577511 0.868973 0.755013 0.166949
H66   H     H_    0.412592 0.674134 0.602668 0.233070
H67   H     H_    0.355364 0.709827 0.557754 0.124490
H68   H     H_    0.287609 0.069117 0.853950 0.112571
H69   H     H_    0.425127 0.739095 0.560312 0.132122
H70   H     H_    0.411486 0.783968 0.612552 0.172240
H71   H     H_    0.520434 0.812501 0.650705 0.255253
H72   H     H_    0.556175 0.772195 0.599847 0.114436
H73   H     H_    0.496701 0.705835 0.582205 0.163041
H74   H     H_    0.571815 0.737554 0.641826 0.148569
H75   H     H_    0.826192 0.720791 0.579967 0.240020
H76   H     H_    0.742944 0.638308 0.567659 0.144935
H77   H     H_    0.742393 0.691695 0.625896 0.144855
H78   H     H_    0.805445 0.682079 0.640556 0.130289
H79   H     H_    0.226232 0.907064 0.750760 0.112136
H80   H     H_    0.890586 0.799571 0.589246 0.236749
H81   H     H_    0.949309 0.878808 0.687710 0.133140
H82   H     H_    0.883389 0.832297 0.684250 0.164359
H83   H     H_    0.892053 0.897700 0.678980 0.136873
H84   H     H_    0.750054 0.681290 0.375184 0.236306
H85   H     H_    0.836929 0.725807 0.370371 0.148928
H86   H     H_    0.850452 0.691128 0.414145 0.114896
H87   H     H_    0.879309 0.769620 0.449549 0.160797
H88   H     H_    0.145688 0.200151 0.424505 0.108152
H89   H     H_    0.358412 0.282448 0.552332 0.103092
H90   H     H_    0.695857 0.659468 0.415638 0.123069
H91   H     H_    0.820098 0.985045 0.219061 0.103237
H92   H     H_    0.312765 0.338263 0.583678 0.147421
H93   H     H_    0.320832 0.226589 0.480173 0.119248
H94   H     H_    0.545278 0.276207 0.195703 0.112405
H95   H     H_    0.467084 0.243892 0.154079 0.108214
H96   H     H_    0.474968 0.320845 0.227920 0.109807
H97   H     H_    0.549685 0.347685 0.270495 0.116701
H98   H     H_    0.546231 0.191719 0.277144 0.089179
H99   H     H_    0.796266 0.079282 0.232867 0.107816
H100  H     H_    0.590368 0.250589 0.271763 0.145639
H101  H     H_    0.739482 0.831537 0.500651 0.113628
H102  H     H_    0.525351 0.246597 0.338164 0.114712
H103  H     H_    0.440120 0.147438 0.223837 0.123630
H104  H     H_    0.471609 0.728255 0.811602 0.112186
H105  H     H_    0.567452 0.779820 0.842545 0.133989
H106  H     H_    0.582029 0.728171 0.772659 0.102894
H107  H     H_    0.803956 0.093937 0.342390 0.103763
H108  H     H_    0.595697 0.779459 0.747753 0.133601
H109  H     H_    0.413617 0.726852 0.761537 0.105235
H110  H     H_    0.411365 0.661689 0.682353 0.140889
H111  H     H_    0.630360 0.794110 0.248780 0.147877
H112  H     H_    0.668243 0.761582 0.502718 0.104200
H113  H     H_    0.622091 0.845365 0.301823 0.143992
H114  H     H_    0.561812 0.795191 0.227086 0.139271
H115  H     H_    0.611482 0.895570 0.242367 0.162873
H116  H     H_    0.619419 0.844561 0.189583 0.158552
H117  H     H_    0.721155 0.879618 0.267785 0.136131
H118  H     H_    0.713547 0.928847 0.321703 0.139838
H119  H     H_    0.780794 0.545806 0.441525 0.148086
H120  H     H_    0.701404 0.506269 0.409754 0.146192
H121  H     H_    0.733288 0.503379 0.362465 0.136570
H122  H     H_    0.692358 0.570510 0.365882 0.149105
H123  H     H_    0.808643 0.847145 0.584611 0.120708
H124  H     H_    0.771458 0.609839 0.398108 0.170832
H125  H     H_    0.784125 0.641268 0.498320 0.137735
H126  H     H_    0.706106 0.598700 0.467305 0.159687
H127  H     H_    0.697293 0.732739 0.382584 0.262184
H128  H     H_    0.667328 0.790060 0.347620 0.139861
H129  H     H_    0.702174 0.848818 0.421934 0.148467
H130  H     H_    0.635896 0.780923 0.393688 0.129052
H131  H     H_    0.660494 0.809987 0.627187 0.147121
H132  H     H_    0.725426 0.845771 0.698656 0.146642
H133  H     H_    0.707912 0.888696 0.666489 0.141239
H134  H     H_    0.646985 0.708769 0.432653 0.122474
H135  H     H_    0.788868 0.877301 0.656779 0.146912
H136  H     H_    0.724561 0.840955 0.585933 0.140486
H137  H     H_    0.701846 0.746999 0.601983 0.141260
H138  H     H_    0.776135 0.790834 0.659157 0.151984
H139  H     H_    0.627850 0.987821 0.252329 0.243373
H140  H     H_    0.655312 0.046729 0.353821 0.140799
H141  H     H_    0.730804 0.065317 0.375822 0.149867
H142  H     H_    0.675143 0.990327 0.346950 0.131130
H143  H     H_    0.362608 0.085761 0.647357 0.147971
H144  H     H_    0.293493 0.077653 0.600009 0.152952
H145  H     H_    0.338408 0.095852 0.830189 0.107915
H146  H     H_    0.348476 0.146369 0.667486 0.132208
H147  H     H_    0.267853 0.091482 0.679564 0.160676
H148  H     H_    0.335787 0.096984 0.726168 0.156678
H149  H     H_    0.298367 0.993589 0.639960 0.131917
H150  H     H_    0.229444 0.990734 0.607255 0.142912
H151  H     H_    0.631863 0.771733 0.063192 0.148066
H152  H     H_    0.689275 0.809342 0.050122 0.145952
H153  H     H_    0.697224 0.764770 0.083586 0.139321
H154  H     H_    0.759263 0.870972 0.158989 0.159604
H155  H     H_    0.702192 0.833097 0.171755 0.161208
H156  H     H_    0.266269 0.096986 0.760138 0.103939
H157  H     H_    0.640292 0.870280 0.124529 0.133790
H158  H     H_    0.694904 0.905028 0.107942 0.141161
H159  H     H_    0.246730 0.365936 0.498714 0.290771
H160  H     H_    0.296449 0.459440 0.582956 0.138169
H161  H     H_    0.352721 0.439429 0.586240 0.157949
H162  H     H_    0.317965 0.430182 0.630063 0.130180
H163  H     H_    0.118394 0.352148 0.494821 0.152371
H164  H     H_    0.066814 0.296902 0.500623 0.148402
H165  H     H_    0.108016 0.373097 0.557940 0.136359
H166  H     H_    0.150843 0.318150 0.590874 0.153197
H167  H     H_    0.222281 0.934345 0.653750 0.107249
H168  H     H_    0.201536 0.370881 0.583610 0.193840
H169  H     H_    0.156886 0.284845 0.476673 0.150554
H170  H     H_    0.122135 0.236752 0.498412 0.111550
H171  H     H_    0.190266 0.124491 0.377698 0.264346
H172  H     H_    0.091115 0.052444 0.325124 0.144469
H173  H     H_    0.091774 0.115224 0.318558 0.127646
H174  H     H_    0.074808 0.099738 0.371433 0.156919
H175  H     H_    0.155668 0.247511 0.379659 0.225636
H176  H     H_    0.197690 0.334006 0.378057 0.122324
H177  H     H_    0.216986 0.283573 0.341139 0.141568
N1    N     N_2   0.713742 0.775705 0.413264 -0.488298
N2    N     N_2   0.386082 0.141537 0.147559 -0.510424
N3    N     N_2   0.599543 0.321594 0.367369 -0.518913
N4    N     N_2   0.466825 0.644285 0.737847 -0.518715
N5    N     N_2   0.614981 0.857431 0.844629 -0.541547
N6    N     N_2   0.431995 0.809969 0.715961 -0.506214
N7    N     N_2   0.424829 0.717670 0.626674 -0.505281
N8    N     N_2   0.526200 0.781983 0.661196 -0.528720
N9    N     N_2   0.797131 0.726744 0.593171 -0.512564
N10   N     N_2   0.874160 0.826226 0.603479 -0.527998
N11   N     N_2   0.787130 0.717573 0.412999 -0.513853
N12   N     N_2   0.671486 0.017463 0.284019 -0.515923
N13   N     N_2   0.265439 0.368602 0.538925 -0.539500
N14   N     N_2   0.164410 0.134620 0.393814 -0.536021
N15   N     N_2   0.200656 0.274324 0.407633 -0.538749
N16   N     N_2   0.243104 0.213596 0.383295 -0.508802
N17   N     N_2   0.293768 0.227947 0.589245 -0.476129
N18   N     N_2   0.237956 0.288677 0.602756 -0.484250
N19   N     N_2   0.386074 0.238687 0.215270 -0.512475
O1    O     O_R   0.939620 0.974560 0.534830 -0.503948
O2    O     O_R   0.464910 0.560090 0.525130 -0.509641
O3    O     O_R   0.595230 0.560150 0.534820 -0.509507
O4    O     O_R   0.939810 0.904870 0.465170 -0.506409
O5    O     O_R   0.525340 0.560160 0.464940 -0.502586
O6    O     O_R   0.535090 0.439670 0.474620 -0.504038
O7    O     O_R   0.465200 0.439670 0.404750 -0.508073
O8    O     O_R   0.474660 0.439590 0.534810 -0.502198
O9    O     O_R   0.404770 0.439600 0.464940 -0.510568
O10   O     O_R   0.939530 0.034830 0.474440 -0.504409
O11   O     O_R   0.939720 0.965140 0.404790 -0.503432
O12   O     O_R   0.535560 0.095110 0.060860 -0.506429
O13   O     O_R   0.060190 0.095130 0.534830 -0.512392
O14   O     O_R   0.060380 0.025440 0.465170 -0.500904
O15   O     O_R   0.060280 0.034860 0.595210 -0.504104
O16   O     O_R   0.060470 0.965170 0.525560 -0.507235
O17   O     O_R   0.465780 0.025400 0.060920 -0.499739
O18   O     O_R   0.526250 0.965140 0.061120 -0.506246
O19   O     O_R   0.596030 0.034850 0.061050 -0.503792
O20   O     O_R   0.465970 0.904870 0.940560 -0.506251
O21   O     O_R   0.535750 0.974580 0.940490 -0.504986
O22   O     O_R   0.405500 0.965130 0.940370 -0.503796
O23   O     O_R   0.475290 0.034840 0.940300 -0.505383
O24   O     O_R   0.534800 0.560080 0.595010 -0.500229

loop_
_geom_bond_atom_site_label_1
_geom_bond_atom_site_label_2
_ccdc_geom_bond_type
C124  H135  S    
Cu4   O23   S    
C54   C65   S    
C25   N4    S    
C6    H170  S    
C126  H142  S    
C27   N6    S    
C86   H95   S    
C87   C130  S    
C47   O14   A    
C86   C88   S    
C20   H39   S    
C9    H173  S    
C58   C60   T    
C93   N3    S    
C100  C104  S    
Cu5   O6    S    
C35   C42   T    
C4    H153  S    
C64   C84   S    
C18   N19   S    
C100  H109  S    
C97   C99   T    
H20   N18   S    
C9    N14   S    
C29   H63   S    
C34   N10   S    
C80   O2    A    
H127  N1    S    
C23   H43   S    
H175  N15   S    
C123  H138  S    
C117  H111  S    
C119  H124  S    
C59   C60   S    
C21   C22   S    
C50   C79   S    
H41   N3    S    
C19   H31   S    
C62   N14   S    
C65   C87   S    
C59   O16   A    
C85   C90   S    
C122  N1    S    
C80   C103  S    
C110  N6    S    
C86   C90   S    
C1    O4    A    
C33   H77   S    
C34   H83   S    
C94   H98   S    
C41   H101  S    
H45   N4    S    
C5    H162  S    
C12   N17   S    
C18   H27   S    
C30   H59   S    
C115  H117  S    
C68   C72   S    
C61   N18   S    
C22   H34   S    
C25   H49   S    
C88   H96   S    
C21   H37   S    
C56   H35   S    
C78   C113  S    
C102  H108  S    
C19   H32   S    
Cu6   O5    S    
Cu4   O21   S    
C91   C92   S    
C101  N5    S    
C126  H140  S    
C50   C57   T    
C47   C74   S    
C117  H114  S    
C6    C7    S    
C40   H134  S    
C10   H176  S    
C130  H158  S    
C37   C44   S    
C48   C127  S    
C104  C110  S    
C32   H73   S    
C66   C70   S    
C89   C96   T    
C49   C53   S    
C54   C114  S    
H159  N13   S    
C16   H15   S    
C69   C70   S    
C10   H177  S    
C20   C21   S    
Cu5   O3    S    
C63   N16   S    
C11   H7    S    
C77   O19   A    
C84   O8    A    
C43   C83   S    
C127  H149  S    
C128  C129  S    
C13   C118  S    
C34   H81   S    
C123  C124  S    
H29   N2    S    
C88   H97   S    
C82   C89   S    
C28   H65   S    
C6    C61   S    
C31   H69   S    
C55   H79   S    
C38   C39   S    
C115  C116  S    
C92   C96   S    
C26   H52   S    
C8    H164  S    
C102  H106  S    
C62   H88   S    
C32   H72   S    
Cu6   O7    S    
C17   H21   S    
Cu3   O18   S    
C26   N5    S    
C14   H18   S    
H8    N17   S    
C26   H53   S    
C121  H119  S    
C71   C83   S    
C106  C111  S    
C119  C121  S    
C4    H151  S    
C62   C66   S    
C83   C115  S    
C75   O12   A    
Cu4   O12   S    
C63   N15   S    
Cu1   O15   S    
C82   O7    A    
C5    H160  S    
C39   C40   S    
C104  C112  S    
C28   C110  S    
C46   C51   S    
C12   H9    S    
C29   C30   S    
C69   H93   S    
C1    O1    A    
C61   C67   S    
C79   O22   A    
C119  H122  S    
C75   C99   S    
C27   H58   S    
Cu1   O10   S    
C11   H5    S    
C76   C87   S    
Cu2   O14   S    
C27   H56   S    
C128  H148  S    
C3    C4    S    
C52   C53   S    
C122  H130  S    
C63   C68   S    
C124  H136  S    
C108  N8    S    
C38   N9    S    
C78   O20   A    
H84   N11   S    
C70   N17   S    
H54   N6    S    
C116  H115  S    
H71   N8    S    
C80   O24   A    
C47   O13   A    
C1    C45   S    
C20   H40   S    
C9    H172  S    
C106  C108  S    
C126  N12   S    
C55   H46   S    
C108  C110  S    
C100  H104  S    
C37   C41   S    
C129  H146  S    
C17   H23   S    
C15   H17   S    
Cu3   O20   S    
C29   H62   S    
C14   C15   S    
C16   H14   S    
C3    H154  S    
C36   H85   S    
C123  H137  S    
C121  H121  S    
C83   C87   S    
C55   C56   S    
C101  C102  S    
C36   H86   S    
C107  C109  T    
C73   C74   T    
Cu1   O13   S    
C48   H167  S    
Cu5   Cu6   S    
C59   O15   A    
C5    N13   S    
C46   H57   S    
C12   H11   S    
C28   C29   S    
C43   C114  S    
C33   H76   S    
C75   O17   A    
C129  H144  S    
C103  C111  T    
Cu4   O19   S    
C5    H161  S    
C52   H145  S    
C8    H165  S    
C18   H28   S    
C31   N7    S    
C30   H60   S    
C68   C69   S    
Cu2   O16   S    
H50   N5    S    
C36   N11   S    
Cu2   O4    S    
C90   C97   S    
C25   H48   S    
C38   C120  S    
C76   H91   S    
C14   C70   S    
H80   N10   S    
H171  N14   S    
C15   H16   S    
C24   O11   A    
C90   C94   S    
C39   C42   S    
C6    H169  S    
C85   C91   S    
C20   C91   S    
C67   C68   S    
C86   H94   S    
C7    C8    S    
C24   C95   S    
C13   H90   S    
C53   C57   S    
C9    H174  S    
C71   C114  S    
C52   H68   S    
C62   C63   S    
C32   H74   S    
C51   C58   S    
C28   H64   S    
C36   H87   S    
C65   C109  S    
C23   H44   S    
C79   O23   A    
C48   C49   S    
C71   N12   S    
C101  C104  S    
C2    N11   S    
Cu3   Cu4   S    
Cu5   O24   S    
C127  C128  S    
C77   O18   A    
C44   C45   T    
C43   C76   S    
C117  H113  S    
C2    H1    S    
C69   H89   S    
C85   N2    S    
C33   H78   S    
C34   H82   S    
C120  H123  S    
C105  C106  S    
C126  H141  S    
C18   H26   S    
C115  H118  S    
C92   C93   S    
C33   N9    S    
C22   H33   S    
C21   H38   S    
C38   C123  S    
C19   N2    S    
Cu3   O17   S    
C93   C94   S    
C14   H19   S    
C3    C130  S    
C91   N19   S    
C43   C98   S    
C3    H155  S    
C94   H100  S    
C78   O21   A    
C35   C81   S    
C95   C98   T    
C116  C117  S    
C118  H125  S    
C130  H157  S    
C100  C105  S    
C4    H152  S    
H66   N7    S    
C120  N10   S    
C15   C16   S    
C46   C52   S    
Cu3   O22   S    
C51   C56   S    
C12   H10   S    
C2    C13   S    
C118  C119  S    
C23   H42   S    
C61   C66   S    
C48   C51   S    
C88   C92   S    
C81   O5    A    
C129  H143  S    
C19   H30   S    
C101  H105  S    
C31   H67   S    
C67   N13   S    
C7    H168  S    
H75   N9    S    
C114  H107  S    
Cu2   O11   S    
C49   H2    S    
C127  H150  S    
C23   N3    S    
C27   H55   S    
C54   H99   S    
C112  C113  T    
C40   H112  S    
C53   C55   S    
C77   C107  S    
C31   H70   S    
Cu6   O9    S    
C17   N18   S    
C46   H156  S    
C116  H116  S    
C65   C71   S    
C66   C73   S    
C24   O10   A    
C125  H133  S    
C32   N8    S    
C85   H103  S    
C10   N15   S    
C26   H51   S    
C118  H126  S    
C8    H163  S    
C93   H102  S    
C81   O3    A    
Cu5   O8    S    
H4    N16   S    
Cu6   O2    S    
C17   H22   S    
C54   C76   S    
C40   C41   S    
C41   N1    S    
C125  H132  S    
C11   N16   S    
H139  N12   S    
C105  N4    S    
C121  H120  S    
C108  N7    S    
C82   O6    A    
H25   N19   S    
C49   H13   S    
C16   H12   S    
C56   H24   S    
C2    C37   S    
C122  H128  S    
C37   C120  S    
C67   H92   S    
C102  C106  S    
C64   C72   T    
Cu1   Cu2   S    
C11   H6    S    
C22   H36   S    
C105  H110  S    
C13   C39   S    
Cu1   O1    S    
C7    H166  S    
C30   H61   S    
C84   O9    A    
C10   H3    S    
C128  H147  S    
C125  H131  S    
C25   H47   S    
C122  H129  S    
C124  C125  S    
