data_mof_unit_45488.cif
_audit_creation_date              2012-12-11T15:08:51-0500
_audit_creation_method            fapswitch 2.2
_symmetry_space_group_name_H-M    P1
_symmetry_Int_Tables_number       1
_space_group_crystal_system       triclinic
_cell_length_a                    19.451199
_cell_length_b                    11.371708
_cell_length_c                    18.699345
_cell_angle_alpha                 90.245908
_cell_angle_beta                  90.018086
_cell_angle_gamma                 90.236819
_cell_volume                      4136.09720652

loop_
_atom_site_label
_atom_site_type_symbol
_atom_type_description
_atom_site_fract_x
_atom_site_fract_y
_atom_site_fract_z
_atom_type_partial_charge
C1    C     C_R   0.272795 0.042028 0.854920 0.530377
C2    C     C_3   0.691036 0.514411 0.959452 -0.233093
C3    C     C_R   0.227764 0.547797 0.352339 0.528226
C4    C     C_R   0.467819 0.821745 0.645158 0.538514
C5    C     C_R   0.531019 0.821656 0.354181 0.533424
C6    C     C_R   0.967819 0.321745 0.645158 0.538514
C7    C     C_R   0.031019 0.321656 0.354181 0.533424
C8    C     C_R   0.260246 0.640040 0.643775 0.521021
C9    C     C_R   0.740049 0.639469 0.355728 0.519647
C10   C     C_R   0.760246 0.140040 0.643775 0.521020
C11   C     C_R   0.240049 0.139469 0.355728 0.519647
C12   C     C_3   0.472282 0.910513 0.039331 -0.110298
C13   C     C_3   0.816557 0.039965 0.045575 -0.237194
C14   C     C_3   0.511358 0.923576 0.967533 -0.112659
C15   C     C_3   0.972283 0.410512 0.039331 -0.110296
C16   C     C_3   0.011359 0.423577 0.967534 -0.112660
C17   C     C_3   0.429382 0.808291 0.007270 -0.160913
C18   C     C_3   0.565298 0.833948 0.992721 -0.162215
C19   C     C_3   0.929383 0.308290 0.007269 -0.160911
C20   C     C_3   0.065299 0.333949 0.992722 -0.162218
C21   C     C_3   0.469027 0.822096 0.936471 0.054322
C22   C     C_3   0.526085 0.821616 0.063937 0.060052
C23   C     C_3   0.969029 0.322096 0.936472 0.054324
C24   C     C_3   0.191037 0.014408 0.959453 -0.233094
C25   C     C_3   0.026086 0.321615 0.063937 0.060054
C26   C     C_2   0.116694 0.653918 0.572716 0.200078
C27   C     C_2   0.884550 0.642476 0.420798 0.205294
C28   C     C_2   0.616694 0.153918 0.572716 0.200079
C29   C     C_2   0.384550 0.142477 0.420798 0.205293
C30   C     C_3   0.323849 0.559341 0.964102 -0.231473
C31   C     C_3   0.686655 0.523004 0.041807 -0.240479
C32   C     C_3   0.823849 0.059342 0.964102 -0.231474
C33   C     C_3   0.186657 0.022997 0.041808 -0.240483
C34   C     C_3   0.187008 0.512533 0.026191 -0.212349
C35   C     C_3   0.823206 0.530238 0.974148 -0.209433
C36   C     C_3   0.687006 0.012539 0.026191 -0.212345
C37   C     C_R   0.728436 0.044569 0.146606 0.527174
C38   C     C_3   0.323206 0.030241 0.974147 -0.209433
C39   C     C_3   0.235691 0.706786 0.056431 -0.254540
C40   C     C_3   0.752572 0.702650 0.945169 -0.253503
C41   C     C_3   0.735693 0.206787 0.056432 -0.254542
C42   C     C_3   0.252570 0.202650 0.945169 -0.253502
C43   C     C_3   0.243391 0.575606 0.070978 0.065529
C44   C     C_3   0.758933 0.571206 0.931221 0.063166
C45   C     C_3   0.743391 0.075607 0.070978 0.065531
C46   C     C_3   0.258932 0.071206 0.931221 0.063166
C47   C     C_3   0.256301 0.610816 0.932578 0.055356
C48   C     C_R   0.772795 0.542028 0.854921 0.530377
C49   C     C_3   0.745236 0.604126 0.069698 0.059778
C50   C     C_3   0.756301 0.110817 0.932578 0.055356
C51   C     C_3   0.245236 0.104126 0.069698 0.059780
C52   C     C_3   0.199486 0.520536 0.945015 -0.256205
C53   C     C_3   0.814101 0.544446 0.055069 -0.247362
C54   C     C_3   0.699486 0.020536 0.945015 -0.256207
C55   C     C_3   0.314102 0.044453 0.055069 -0.247359
C56   C     C_3   0.236146 0.723892 0.974759 -0.224101
C57   C     C_3   0.740988 0.719531 0.026283 -0.221624
C58   C     C_3   0.736146 0.223893 0.974759 -0.224101
C59   C     C_R   0.228436 0.544569 0.146606 0.527173
C60   C     C_3   0.240982 0.219530 0.026283 -0.221629
C61   C     C_3   0.495733 0.694323 0.457896 -0.222369
C62   C     C_3   0.490515 0.694189 0.538189 -0.217626
C63   C     C_3   0.995733 0.194323 0.457896 -0.222369
C64   C     C_3   0.990514 0.194189 0.538189 -0.217626
C65   C     C_R   0.443052 0.817361 0.862159 0.534879
C66   C     C_R   0.554327 0.817437 0.137560 0.535836
C67   C     C_R   0.943052 0.317361 0.862160 0.534877
C68   C     C_R   0.054328 0.317437 0.137561 0.535839
C69   C     C_3   0.568898 0.876817 0.474520 -0.222315
C70   C     C_3   0.522276 0.732637 0.961744 -0.108880
C71   C     C_3   0.438742 0.903885 0.526617 -0.214549
C72   C     C_3   0.068898 0.376816 0.474520 -0.222315
C73   C     C_3   0.938742 0.403885 0.526617 -0.214549
C74   C     C_3   0.447006 0.891995 0.445127 -0.260134
C75   C     C_3   0.559271 0.870196 0.556285 -0.262330
C76   C     C_3   0.947006 0.391996 0.445127 -0.260134
C77   C     C_3   0.059271 0.370196 0.556285 -0.262330
C78   C     C_3   0.510047 0.821412 0.430715 0.043729
C79   C     C_3   0.488196 0.822299 0.568799 0.051330
C80   C     C_3   0.010047 0.321412 0.430715 0.043728
C81   C     C_3   0.483485 0.719691 0.032800 -0.110999
C82   C     C_3   0.988196 0.322299 0.568799 0.051330
C83   C     C_3   0.180141 0.662167 0.455832 -0.190447
C84   C     C_3   0.825609 0.642693 0.540909 -0.190483
C85   C     C_3   0.680141 0.162167 0.455832 -0.190447
C86   C     C_3   0.325609 0.142693 0.540909 -0.190483
C87   C     C_3   0.185120 0.676106 0.536150 -0.078811
C88   C     C_3   0.819584 0.664481 0.461703 -0.080296
C89   C     C_3   0.685120 0.176106 0.536150 -0.078811
C90   C     C_3   0.319584 0.164481 0.461703 -0.080296
C91   C     C_3   0.238261 0.466423 0.470551 -0.229048
C92   C     C_3   0.022278 0.232637 0.961744 -0.108880
C93   C     C_3   0.748282 0.459070 0.526446 -0.224226
C94   C     C_3   0.738261 0.966423 0.470551 -0.229048
C95   C     C_3   0.248282 0.959070 0.526446 -0.224226
C96   C     C_3   0.306335 0.643474 0.443258 -0.271745
C97   C     C_3   0.700071 0.650520 0.557858 -0.273913
C98   C     C_3   0.806335 0.143474 0.443258 -0.271745
C99   C     C_3   0.200072 0.150520 0.557858 -0.273913
C100  C     C_3   0.238748 0.581689 0.428299 0.030061
C101  C     C_3   0.762154 0.573403 0.569889 0.035362
C102  C     C_3   0.738748 0.081688 0.428299 0.030061
C103  C     C_3   0.983486 0.219690 0.032800 -0.110997
C104  C     C_3   0.262154 0.073402 0.569889 0.035362
C105  C     C_3   0.249631 0.609371 0.567086 0.026477
C106  C     C_3   0.751723 0.607277 0.431832 0.022446
C107  C     C_3   0.749631 0.109371 0.567086 0.026477
C108  C     C_3   0.251723 0.107277 0.431832 0.022446
C109  C     C_3   0.238126 0.479813 0.552533 -0.274796
C110  C     C_3   0.752834 0.476426 0.445217 -0.267908
C111  C     C_3   0.738126 0.979813 0.552533 -0.274796
C112  C     C_3   0.252835 0.976426 0.445217 -0.267908
C113  C     C_R   0.262464 0.642850 0.855243 0.532612
C114  C     C_3   0.316558 0.539965 0.045575 -0.237196
C115  C     C_R   0.738651 0.638106 0.146461 0.530443
C116  C     C_R   0.762464 0.142850 0.855243 0.532611
C117  C     C_R   0.238651 0.138106 0.146461 0.530442
C118  C     C_3   0.316389 0.643862 0.525139 -0.231924
C119  C     C_3   0.692513 0.661390 0.475988 -0.238627
C120  C     C_3   0.816389 0.143862 0.525139 -0.231924
C121  C     C_3   0.192513 0.161390 0.475988 -0.238627
C122  C     C_R   0.273679 0.042897 0.645679 0.537665
C123  C     C_R   0.727764 0.047797 0.352339 0.528226
C124  C     C_R   0.773679 0.542897 0.645679 0.537665
Cr1   Cr    Cr6+3 0.229620 0.836040 0.749110 1.003879
Cr2   Cr    Cr6+3 0.613980 0.676590 0.250790 1.003249
Cr3   Cr    Cr6+3 0.886020 0.176590 0.749210 1.003139
Cr4   Cr    Cr6+3 0.113980 0.176590 0.250790 1.003248
Cr5   Cr    Cr6+3 0.770380 0.836040 0.250890 1.006929
Cr6   Cr    Cr6+3 0.729620 0.336040 0.749110 1.003880
Cr7   Cr    Cr6+3 0.270380 0.336040 0.250890 1.006929
Cr8   Cr    Cr6+3 0.387630 0.990680 0.750730 1.011359
Cr9   Cr    Cr6+3 0.612370 0.990680 0.249270 1.014374
Cr10  Cr    Cr6+3 0.887630 0.490680 0.750730 1.011360
Cr11  Cr    Cr6+3 0.112370 0.490680 0.249270 1.014374
Cr12  Cr    Cr6+3 0.386020 0.676590 0.749210 1.003138
H1    H     H_    0.374516 0.792233 0.017249 0.091888
H2    H     H_    0.708698 0.738004 0.914046 0.101028
H3    H     H_    0.193578 0.938373 0.537254 0.144746
H4    H     H_    0.279680 0.425993 0.576637 0.118693
H5    H     H_    0.708273 0.434681 0.418013 0.127632
H6    H     H_    0.779680 0.925993 0.576637 0.118693
H7    H     H_    0.208274 0.934681 0.418013 0.127632
H8    H     H_    0.328935 0.448008 0.058590 0.128354
H9    H     H_    0.684263 0.424242 0.941233 0.133609
H10   H     H_    0.828934 0.948008 0.058590 0.128354
H11   H     H_    0.184263 0.924241 0.941232 0.133610
H12   H     H_    0.355261 0.594007 0.074612 0.113174
H13   H     H_    0.777524 0.257598 0.082719 0.102970
H14   H     H_    0.646569 0.561178 0.935760 0.109193
H15   H     H_    0.855261 0.094006 0.074612 0.113173
H16   H     H_    0.146569 0.061176 0.935763 0.109193
H17   H     H_    0.367854 0.618355 0.953008 0.137494
H18   H     H_    0.635266 0.558356 0.056553 0.139818
H19   H     H_    0.867853 0.118356 0.953008 0.137493
H20   H     H_    0.135267 0.058341 0.056556 0.139818
H21   H     H_    0.335870 0.474054 0.937613 0.118689
H22   H     H_    0.690946 0.435179 0.066312 0.112852
H23   H     H_    0.835870 0.974055 0.937613 0.118689
H24   H     H_    0.208696 0.238003 0.914045 0.101027
H25   H     H_    0.190953 0.935172 0.066312 0.112852
H26   H     H_    0.684485 0.923018 0.044666 0.099528
H27   H     H_    0.335748 0.940302 0.959102 0.100301
H28   H     H_    0.184497 0.423010 0.044664 0.099528
H29   H     H_    0.835749 0.440300 0.959101 0.100300
H30   H     H_    0.715080 0.934576 0.922658 0.108969
H31   H     H_    0.316169 0.957623 0.081913 0.105267
H32   H     H_    0.215079 0.434576 0.922655 0.108967
H33   H     H_    0.816164 0.457615 0.081912 0.105268
H34   H     H_    0.114630 0.607262 0.623082 0.129566
H35   H     H_    0.270489 0.796071 0.960050 0.108164
H36   H     H_    0.883397 0.588898 0.372621 0.119744
H37   H     H_    0.614630 0.107262 0.623082 0.129566
H38   H     H_    0.383398 0.088899 0.372620 0.119745
H39   H     H_    0.688107 0.747690 0.035337 0.101931
H40   H     H_    0.770489 0.296072 0.960049 0.108165
H41   H     H_    0.188098 0.247676 0.035334 0.101933
H42   H     H_    0.182584 0.745349 0.959140 0.132347
H43   H     H_    0.777655 0.785459 0.046676 0.137503
H44   H     H_    0.682584 0.245351 0.959141 0.132347
H45   H     H_    0.617500 0.837485 0.971835 0.096446
H46   H     H_    0.277643 0.285467 0.046677 0.137500
H47   H     H_    0.635607 0.051126 0.037829 0.141967
H48   H     H_    0.369281 0.082653 0.958430 0.139980
H49   H     H_    0.135607 0.551109 0.037832 0.141970
H50   H     H_    0.869281 0.582651 0.958433 0.139980
H51   H     H_    0.151176 0.546792 0.917580 0.125356
H52   H     H_    0.856808 0.599435 0.076636 0.131501
H53   H     H_    0.651177 0.046789 0.917578 0.125357
H54   H     H_    0.356808 0.099447 0.076633 0.131504
H55   H     H_    0.535385 0.629781 0.442568 0.147394
H56   H     H_    0.874518 0.292232 0.017249 0.091888
H57   H     H_    0.447339 0.640240 0.554484 0.144402
H58   H     H_    0.035385 0.129781 0.442568 0.147394
H59   H     H_    0.947339 0.140240 0.554484 0.144402
H60   H     H_    0.448067 0.660609 0.433648 0.124405
H61   H     H_    0.535444 0.646614 0.560678 0.125858
H62   H     H_    0.948067 0.160609 0.433648 0.124405
H63   H     H_    0.035444 0.146614 0.560678 0.125858
H64   H     H_    0.609817 0.822520 0.459874 0.108640
H65   H     H_    0.385616 0.893819 0.543211 0.101442
H66   H     H_    0.109817 0.322520 0.459874 0.108640
H67   H     H_    0.117500 0.337484 0.971834 0.096447
H68   H     H_    0.885616 0.393819 0.543211 0.101443
H69   H     H_    0.598654 0.814385 0.581919 0.102474
H70   H     H_    0.401494 0.851654 0.419331 0.093235
H71   H     H_    0.098654 0.314384 0.581919 0.102474
H72   H     H_    0.901494 0.351655 0.419331 0.093235
H73   H     H_    0.453881 0.984298 0.072908 0.115849
H74   H     H_    0.522525 0.008421 0.940716 0.114946
H75   H     H_    0.953882 0.484298 0.072908 0.115849
H76   H     H_    0.022528 0.508422 0.940717 0.114945
H77   H     H_    0.458344 0.976995 0.421144 0.166877
H78   H     H_    0.186220 0.739323 0.078592 0.131659
H79   H     H_    0.562752 0.956974 0.581065 0.130833
H80   H     H_    0.958345 0.476995 0.421144 0.166878
H81   H     H_    0.062752 0.456974 0.581065 0.130833
H82   H     H_    0.455120 0.994425 0.540303 0.177205
H83   H     H_    0.577627 0.968442 0.458249 0.155304
H84   H     H_    0.955121 0.494425 0.540303 0.177205
H85   H     H_    0.077627 0.468441 0.458249 0.155304
H86   H     H_    0.128687 0.628540 0.441369 0.193147
H87   H     H_    0.873114 0.597990 0.552919 0.168384
H88   H     H_    0.628687 0.128540 0.441369 0.193147
H89   H     H_    0.799801 0.750476 0.928097 0.126527
H90   H     H_    0.373114 0.097990 0.552919 0.168384
H91   H     H_    0.183406 0.748773 0.429322 0.111513
H92   H     H_    0.830235 0.728632 0.569527 0.125709
H93   H     H_    0.683406 0.248773 0.429322 0.111513
H94   H     H_    0.330235 0.228632 0.569527 0.125709
H95   H     H_    0.193852 0.766455 0.546751 0.140298
H96   H     H_    0.815006 0.758290 0.456528 0.141253
H97   H     H_    0.693852 0.266455 0.546751 0.140298
H98   H     H_    0.315006 0.258290 0.456528 0.141253
H99   H     H_    0.693092 0.923050 0.452387 0.110513
H100  H     H_    0.686222 0.239328 0.078594 0.131657
H101  H     H_    0.279847 0.885814 0.544297 0.104295
H102  H     H_    0.193092 0.423050 0.452387 0.110513
H103  H     H_    0.779847 0.385814 0.544297 0.104295
H104  H     H_    0.689067 0.949501 0.575876 0.100990
H105  H     H_    0.300316 0.937760 0.423342 0.097226
H106  H     H_    0.189067 0.449501 0.575876 0.100990
H107  H     H_    0.800316 0.437760 0.423342 0.097226
H108  H     H_    0.347894 0.593826 0.416306 0.127852
H109  H     H_    0.653029 0.610932 0.581619 0.124787
H110  H     H_    0.847894 0.093826 0.416306 0.127852
H111  H     H_    0.299798 0.250478 0.928099 0.126528
H112  H     H_    0.153029 0.110932 0.581619 0.124787
H113  H     H_    0.305699 0.734007 0.421795 0.107237
H114  H     H_    0.708005 0.737670 0.583658 0.106319
H115  H     H_    0.805699 0.234007 0.421795 0.107237
H116  H     H_    0.208005 0.237670 0.583658 0.106319
H117  H     H_    0.542626 0.658021 0.929961 0.124704
H118  H     H_    0.473184 0.634030 0.058944 0.121497
H119  H     H_    0.042630 0.158022 0.929962 0.124701
H120  H     H_    0.973186 0.134029 0.058944 0.121497
H121  H     H_    0.338487 0.726874 0.543845 0.116468
H122  H     H_    0.277521 0.757599 0.082720 0.102969
H123  H     H_    0.699601 0.751631 0.464716 0.105990
H124  H     H_    0.838487 0.226874 0.543845 0.116468
H125  H     H_    0.199601 0.251631 0.464716 0.105990
H126  H     H_    0.353515 0.572989 0.536457 0.138055
H127  H     H_    0.642534 0.626063 0.458334 0.142437
H128  H     H_    0.853515 0.072989 0.536457 0.138055
H129  H     H_    0.142534 0.126063 0.458334 0.142437
H130  H     H_    0.285161 0.421604 0.454794 0.142020
H131  H     H_    0.693578 0.438373 0.537254 0.144746
H132  H     H_    0.785161 0.921604 0.454794 0.142020
O1    O     O_R   0.214130 0.708570 0.829890 -0.528650
O2    O     O_R   0.542830 0.717300 0.331620 -0.526717
O3    O     O_R   0.957170 0.217300 0.668380 -0.526706
O4    O     O_R   0.042830 0.217300 0.331620 -0.526717
O5    O     O_R   0.320870 0.624890 0.673130 -0.502571
O6    O     O_R   0.679130 0.624890 0.326870 -0.504363
O7    O     O_R   0.820870 0.124890 0.673130 -0.502571
O8    O     O_R   0.179130 0.124890 0.326870 -0.504363
O9    O     O_3   0.334430 0.834430 0.749680 -0.291461
O10   O     O_3   0.665570 0.834430 0.250320 -0.285786
O11   O     O_3   0.834430 0.334430 0.749680 -0.291460
O12   O     O_R   0.785870 0.708570 0.170110 -0.529874
O13   O     O_3   0.165570 0.334430 0.250320 -0.285786
O14   O     O_R   0.236050 0.959150 0.825270 -0.515092
O15   O     O_R   0.763950 0.959150 0.174730 -0.514567
O16   O     O_R   0.736050 0.459150 0.825270 -0.515092
O17   O     O_R   0.263950 0.459150 0.174730 -0.514568
O18   O     O_R   0.332100 0.076650 0.832310 -0.531706
O19   O     O_R   0.667900 0.076650 0.167690 -0.532478
O20   O     O_R   0.832100 0.576650 0.832310 -0.531706
O21   O     O_R   0.167900 0.576650 0.167690 -0.532478
O22   O     O_R   0.446500 0.918620 0.826240 -0.505062
O23   O     O_R   0.714130 0.208570 0.829890 -0.528649
O24   O     O_R   0.553500 0.918620 0.173760 -0.504635
O25   O     O_R   0.946500 0.418620 0.826240 -0.505061
O26   O     O_R   0.053500 0.418620 0.173760 -0.504636
O27   O     O_R   0.457310 0.715830 0.831280 -0.523440
O28   O     O_R   0.542690 0.715830 0.168720 -0.523954
O29   O     O_R   0.957310 0.215830 0.831280 -0.523438
O30   O     O_R   0.042690 0.215830 0.168720 -0.523954
O31   O     O_R   0.321000 0.623520 0.824130 -0.519085
O32   O     O_R   0.679000 0.623520 0.175870 -0.519455
O33   O     O_R   0.821000 0.123520 0.824130 -0.519085
O34   O     O_R   0.285870 0.208570 0.170110 -0.529873
O35   O     O_R   0.179000 0.123520 0.175870 -0.519455
O36   O     O_R   0.213990 0.710040 0.667000 -0.540960
O37   O     O_R   0.786010 0.710040 0.333000 -0.535082
O38   O     O_R   0.713990 0.210040 0.667000 -0.540960
O39   O     O_R   0.286010 0.210040 0.333000 -0.535083
O40   O     O_R   0.235920 0.960520 0.674260 -0.504644
O41   O     O_R   0.764080 0.960520 0.325740 -0.505969
O42   O     O_R   0.735920 0.460520 0.674260 -0.504644
O43   O     O_R   0.264080 0.460520 0.325740 -0.505969
O44   O     O_R   0.331960 0.078120 0.669410 -0.530360
O45   O     O_R   0.446360 0.919990 0.675230 -0.503672
O46   O     O_R   0.668040 0.078120 0.330590 -0.530303
O47   O     O_R   0.831960 0.578120 0.669410 -0.530360
O48   O     O_R   0.168040 0.578120 0.330590 -0.530303
O49   O     O_2   0.063802 0.696990 0.549479 -0.494270
O50   O     O_2   0.938039 0.691498 0.438325 -0.491006
O51   O     O_2   0.563802 0.196991 0.549479 -0.494269
O52   O     O_2   0.438039 0.191497 0.438325 -0.491006
O53   O     O_R   0.553640 0.919990 0.324770 -0.501450
O54   O     O_R   0.946360 0.419990 0.675230 -0.503672
O55   O     O_R   0.053640 0.419990 0.324770 -0.501450
O56   O     O_R   0.457170 0.717300 0.668380 -0.526706

loop_
_geom_bond_atom_site_label_1
_geom_bond_atom_site_label_2
_ccdc_geom_bond_type
C8    O36   A    
C54   H53   S    
C35   C53   S    
Cr7   O34   S    
C83   C87   S    
C10   O7    A    
C48   O16   A    
C33   H20   S    
C20   C92   S    
Cr10  O11   S    
C13   H10   S    
C14   C21   S    
Cr11  O26   S    
C97   H109  S    
C98   H115  S    
C1    C46   S    
C41   H13   S    
C10   O38   A    
C64   H59   S    
C94   C111  S    
Cr10  O54   S    
Cr5   O15   S    
C96   H108  S    
C111  H6    S    
Cr1   O36   S    
Cr5   O37   S    
C3    C100  S    
C38   C55   S    
C40   H2    S    
Cr10  O20   S    
C52   H51   S    
C91   C100  S    
C108  C121  S    
C93   C110  S    
C99   C121  S    
C103  H120  S    
C96   H113  S    
C1    O18   A    
Cr2   O28   S    
C7    O55   A    
C85   H93   S    
C13   H15   S    
C86   C90   S    
C121  H129  S    
Cr7   O17   S    
Cr6   O38   S    
C60   H41   S    
C98   C102  S    
Cr7   O43   S    
C17   C21   S    
C19   C23   S    
C55   H54   S    
Cr2   O10   S    
C9    O6    A    
C39   C56   S    
C66   O28   A    
C16   C20   S    
C123  O46   A    
Cr11  O21   S    
C61   H60   S    
C49   C115  S    
C83   C100  S    
C56   H35   S    
C105  C118  S    
C37   C45   S    
C102  C123  S    
C107  C120  S    
Cr2   O2    S    
C84   C88   S    
C20   H67   S    
Cr3   O7    S    
C84   H87   S    
C98   C120  S    
C47   C52   S    
C59   O21   A    
C95   H3    S    
C24   C46   S    
Cr1   O40   S    
C13   C45   S    
C75   H69   S    
C77   H81   S    
C109  H106  S    
C49   C53   S    
C75   H79   S    
C51   C55   S    
C28   H37   S    
C85   H88   S    
C92   H119  S    
C26   H34   S    
C61   H55   S    
C41   C45   S    
C17   H1    S    
C75   C79   S    
C44   C48   S    
C115  O12   A    
C2    H14   S    
C110  H5    S    
C13   C32   S    
Cr12  O5    S    
C86   C104  S    
C8    C105  S    
C37   O19   A    
C71   C79   S    
C56   H42   S    
C59   O17   A    
C5    O2    A    
C71   H82   S    
Cr1   O9    S    
C77   C82   S    
C7    O4    A    
C113  O1    A    
C41   C58   S    
C34   H28   S    
C77   H71   S    
C15   C25   S    
C104  C122  S    
C12   C22   S    
C38   H48   S    
C95   H101  S    
C89   H97   S    
Cr6   O11   S    
C57   H39   S    
C2    C44   S    
C26   C87   S    
Cr6   O23   S    
C28   C89   S    
C43   C59   S    
Cr2   O6    S    
Cr3   O3    S    
C122  O40   A    
Cr4   O4    S    
C117  O35   A    
C63   C80   S    
C101  C124  S    
C11   O39   A    
Cr5   O41   S    
Cr4   O35   S    
C18   H45   S    
C97   C119  S    
C124  O47   A    
C39   H122  S    
C87   C105  S    
C64   C82   S    
C63   H58   S    
Cr5   O10   S    
C36   H47   S    
C94   C102  S    
C38   H27   S    
C16   C23   S    
Cr7   O13   S    
C31   H18   S    
C72   H66   S    
Cr6   O42   S    
Cr7   O39   S    
C6    O3    A    
C18   C22   S    
C107  C111  S    
C42   H24   S    
C34   C43   S    
C76   C80   S    
C62   H61   S    
C24   H11   S    
C4    O45   A    
C58   H44   S    
C111  H104  S    
C90   C108  S    
C72   C80   S    
C93   H103  S    
C35   H50   S    
C72   H85   S    
C96   C100  S    
C51   C117  S    
C61   C62   S    
C11   O8    A    
C38   C46   S    
C36   C54   S    
C63   C64   S    
C76   H72   S    
C40   C44   S    
C5    O53   A    
C11   C108  S    
C23   C92   S    
C51   C60   S    
Cr3   O11   S    
Cr10  O47   S    
C85   C102  S    
C47   C56   S    
C65   O22   A    
C30   H21   S    
C119  H123  S    
C106  C119  S    
C55   H31   S    
C29   H38   S    
C2    H9    S    
C15   C19   S    
C50   C54   S    
C109  H4    S    
Cr9   O46   S    
C112  H7    S    
C53   H52   S    
C31   C49   S    
C98   H110  S    
C95   C112  S    
C43   C114  S    
C106  C110  S    
C94   H99   S    
C20   C25   S    
Cr11  O55   S    
Cr5   O12   S    
C42   C46   S    
C105  C109  S    
C24   H16   S    
C110  H107  S    
C12   C17   S    
C69   H64   S    
C124  O42   A    
C37   O15   A    
C8    O5    A    
Cr12  O31   S    
C53   H33   S    
C32   H23   S    
C99   C104  S    
C113  O31   A    
C67   O29   A    
C36   H26   S    
C25   C68   S    
C54   H30   S    
C29   C90   S    
C50   C58   S    
C22   C81   S    
C6    O54   A    
C57   H43   S    
C85   C89   S    
Cr9   O10   S    
C108  C112  S    
C73   H84   S    
C115  O32   A    
C86   H94   S    
Cr8   O45   S    
C34   H49   S    
C28   O51   D    
C30   C47   S    
Cr3   O29   S    
C76   H80   S    
C89   C107  S    
C122  O44   A    
C123  O41   A    
Cr4   O30   S    
C112  H105  S    
C74   H77   S    
C73   C76   S    
Cr8   O22   S    
C93   C101  S    
C73   C82   S    
Cr9   O53   S    
C30   C114  S    
C47   C113  S    
C40   C57   S    
C21   C65   S    
C69   H83   S    
C3    O43   A    
C99   H116  S    
C12   H73   S    
C71   C74   S    
C97   H114  S    
C93   H131  S    
C33   C51   S    
C94   H132  S    
C34   C52   S    
C24   C33   S    
C63   H62   S    
C29   O52   D    
C114  H12   S    
C120  H124  S    
C48   O20   A    
C68   O30   A    
C116  O33   A    
C91   H102  S    
C69   C75   S    
C17   C81   S    
C31   H22   S    
Cr11  O48   S    
C9    O37   A    
C74   C78   S    
C64   H63   S    
C62   H57   S    
C5    C78   S    
C114  H8    S    
C7    C80   S    
C18   C70   S    
C6    C82   S    
C27   O50   D    
C14   C18   S    
C33   H25   S    
Cr11  O13   S    
C49   C57   S    
C118  H121  S    
C83   H91   S    
Cr8   O9    S    
C96   C118  S    
C1    O14   A    
Cr2   O32   S    
C23   C67   S    
C15   C16   S    
C90   H98   S    
C40   H89   S    
C70   C81   S    
C65   O27   A    
Cr4   O8    S    
Cr6   O16   S    
C92   C103  S    
C121  H125  S    
C83   H86   S    
C19   C103  S    
C30   H17   S    
Cr8   O18   S    
Cr9   O19   S    
C68   O26   A    
C15   H75   S    
C81   H118  S    
C91   H130  S    
C19   H56   S    
C66   O24   A    
C84   C101  S    
C69   C78   S    
Cr4   O13   S    
C70   H117  S    
C60   H46   S    
C73   H68   S    
C119  H127  S    
C42   H111  S    
C14   H74   S    
Cr9   O24   S    
C62   C79   S    
C16   H76   S    
C4    C79   S    
C42   C60   S    
C25   C103  S    
C39   C43   S    
C120  H128  S    
C9    C106  S    
Cr1   O1    S    
C2    C31   S    
C117  O34   A    
C72   C77   S    
Cr12  O27   S    
C32   H19   S    
C88   C106  S    
C118  H126  S    
C61   C78   S    
C67   O25   A    
C36   C45   S    
Cr8   O44   S    
C35   C44   S    
C32   C50   S    
C26   O49   D    
C12   C14   S    
C86   H90   S    
C84   H92   S    
C10   C107  S    
C95   C104  S    
C74   H70   S    
C71   H65   S    
C39   H78   S    
C88   H96   S    
C58   H40   S    
Cr3   O33   S    
C22   C66   S    
C41   H100  S    
C116  O23   A    
C21   C70   S    
C3    O48   A    
C91   C109  S    
Cr12  O9    S    
Cr10  O25   S    
C52   H32   S    
C87   H95   S    
C27   H36   S    
C35   H29   S    
Cr12  O56   S    
C50   C116  S    
C27   C88   S    
Cr1   O14   S    
C4    O56   A    
C99   H112  S    
C97   C101  S    
