data_mof_unit_10230.cif
_audit_creation_date              2012-12-10T16:54:32-0500
_audit_creation_method            fapswitch 2.2
_symmetry_space_group_name_H-M    P1
_symmetry_Int_Tables_number       1
_space_group_crystal_system       triclinic
_cell_length_a                    15.061495
_cell_length_b                    10.932237
_cell_length_c                    9.694233
_cell_angle_alpha                 89.374221
_cell_angle_beta                  89.714498
_cell_angle_gamma                 90.260618
_cell_volume                      1596.08007837

loop_
_atom_site_label
_atom_site_type_symbol
_atom_type_description
_atom_site_fract_x
_atom_site_fract_y
_atom_site_fract_z
_atom_type_partial_charge
C1    C     C_R   0.495989 0.265657 0.500940 0.877721
C2    C     C_R   0.907837 0.553203 0.392230 0.109968
C3    C     C_R   0.948958 0.366376 0.708742 -0.217666
C4    C     C_R   0.041219 0.361160 0.708167 -0.162934
C5    C     C_R   0.091192 0.420366 0.603347 0.081513
C6    C     C_R   0.046085 0.486780 0.499082 0.035198
C7    C     C_R   0.093843 0.550945 0.395599 0.113358
C8    C     C_R   0.048654 0.614042 0.290838 -0.200236
C9    C     C_R   0.956162 0.614372 0.288555 -0.199655
C10   C     C_R   0.184921 0.417452 0.601887 -0.033259
C11   C     C_R   0.231803 0.488669 0.502194 -0.132554
C12   C     C_R   0.328782 0.495534 0.500646 0.803872
C13   C     C_R   0.186050 0.552863 0.399365 -0.263246
C14   C     C_2   0.469952 0.935544 0.399932 0.263508
C15   C     C_2   0.515566 0.866073 0.493301 -0.212852
C16   C     C_2   0.485796 0.068125 0.391152 -0.107423
C17   C     C_2   0.482339 0.134894 0.505284 -0.282411
C18   C     C_2   0.461111 0.416045 0.923535 -0.146739
C19   C     C_2   0.452413 0.423704 0.079026 0.336827
C20   C     C_R   0.501541 0.734671 0.498911 0.761938
C21   C     C_R   0.671142 0.499893 0.499626 0.822004
C22   C     C_R   0.815224 0.554961 0.392188 -0.235086
C23   C     C_R   0.767593 0.497058 0.498947 -0.068176
C24   C     C_R   0.812046 0.435352 0.605015 -0.222838
C25   C     C_R   0.904406 0.429997 0.604523 0.107358
C26   C     C_R   0.952800 0.489745 0.498464 0.070924
Cu1   Cu    Cu3+1 0.500020 0.500020 0.638630 0.945596
Cu2   Cu    Cu3+1 0.499980 0.499980 0.361370 0.977589
H1    H     H_    0.780184 0.603245 0.310842 0.151683
H2    H     H_    0.496318 0.110672 0.290652 0.155184
H3    H     H_    0.468266 0.092032 0.604835 0.147399
H4    H     H_    0.430716 0.338270 0.873462 0.162405
H5    H     H_    0.522041 0.576568 0.893217 0.193105
H6    H     H_    0.546300 0.551799 0.104434 0.163680
H7    H     H_    0.774574 0.389724 0.686585 0.158342
H8    H     H_    0.912402 0.320685 0.791123 0.153731
H9    H     H_    0.072722 0.312503 0.792288 0.179032
H10   H     H_    0.222627 0.605753 0.322446 0.149006
H11   H     H_    0.084902 0.663199 0.210678 0.145106
H12   H     H_    0.922439 0.663490 0.206617 0.149374
N1    N     N_2   0.499020 0.498660 0.846910 -0.292751
N2    N     N_2   0.499000 0.498630 0.153040 -0.286420
O1    O     O_R   0.500020 0.321960 0.617040 -0.581742
O2    O     O_R   0.499980 0.321920 0.382900 -0.560419
O3    O     O_R   0.370270 0.499990 0.617090 -0.595034
O4    O     O_R   0.370240 0.499950 0.382940 -0.548261
O5    O     O_R   0.500020 0.678080 0.617100 -0.590414
O6    O     O_R   0.499980 0.678040 0.382960 -0.550826
O7    O     O_R   0.629760 0.500050 0.617060 -0.575766
O8    O     O_R   0.629730 0.500010 0.382910 -0.581612
C27   C     C_2   0.591092 0.911082 0.578253 0.311043
H13   H     H_    0.606406 0.865358 0.675147 0.090783
O9    O     O_2   0.640092 0.993296 0.537568 -0.528730
N3    N     N_2   0.393658 0.340409 0.146859 -0.365856
H14   H     H_    0.409203 0.250439 0.127501 0.221011
C28   C     C_3   0.300548 0.364522 0.123718 -0.653947
H15   H     H_    0.259981 0.307156 0.195442 0.232861
H16   H     H_    0.282213 0.341758 0.016224 0.195661
H17   H     H_    0.285210 0.462165 0.142970 0.237488
C29   C     C_2   0.233345 0.335308 0.698304 0.300783
H18   H     H_    0.283063 0.371410 0.767077 0.093992
O10   O     O_2   0.217833 0.225585 0.700546 -0.548386
N4    N     N_2   0.402328 0.881366 0.315504 -0.408331
H19   H     H_    0.362156 0.818082 0.365426 0.246840
C30   C     C_3   0.355094 0.957807 0.217690 -0.677670
H20   H     H_    0.306965 0.901042 0.159776 0.227210
H21   H     H_    0.402158 0.999375 0.141942 0.224377
H22   H     H_    0.318011 0.030435 0.272510 0.233769

loop_
_geom_bond_atom_site_label_1
_geom_bond_atom_site_label_2
_ccdc_geom_bond_type
C2    C22   A    
N3    H14   S    
C10   C29   S    
C11   C12   S    
N4    C30   S    
C24   C25   A    
C6    C7    A    
C8    H11   S    
C15   C27   S    
C1    O1    A    
Cu1   N1    S    
C1    O2    A    
C1    C17   S    
H6    N2    S    
C28   H17   S    
C7    C13   A    
C23   C24   A    
C30   H22   S    
H5    N1    S    
Cu1   O3    S    
C21   O7    A    
C8    C9    A    
C5    C10   A    
C2    C26   A    
C6    C26   A    
C4    H9    S    
C11   C13   A    
C19   N2    D    
Cu2   O4    S    
C13   H10   S    
C20   O6    A    
C3    H8    S    
C29   H18   S    
C5    C6    A    
C14   N4    S    
C19   N3    S    
Cu2   N2    S    
C21   O8    A    
C22   H1    S    
C28   H16   S    
C30   H20   S    
C14   C16   S    
C21   C23   S    
C15   C20   S    
C17   H3    S    
N3    C28   S    
C24   H7    S    
C18   H4    S    
C10   C11   A    
N4    H19   S    
C16   H2    S    
C3    C4    A    
C20   O5    A    
Cu1   O1    S    
C3    C25   A    
C27   H13   S    
C28   H15   S    
C29   O10   D    
C18   C19   S    
C18   N1    D    
Cu1   O5    S    
Cu1   Cu2   S    
C7    C8    A    
C22   C23   A    
C4    C5    A    
C30   H21   S    
C25   C26   A    
C14   C15   D    
C2    C9    A    
Cu2   O8    S    
Cu2   O2    S    
C9    H12   S    
Cu2   O6    S    
Cu1   O7    S    
C16   C17   D    
C12   O3    A    
C27   O9    D    
C12   O4    A    
