data_mof_unit_48359.cif
_audit_creation_date              2012-12-11T16:28:16-0500
_audit_creation_method            fapswitch 2.2
_symmetry_space_group_name_H-M    P1
_symmetry_Int_Tables_number       1
_space_group_crystal_system       triclinic
_cell_length_a                    30.562075
_cell_length_b                    23.543173
_cell_length_c                    18.176088
_cell_angle_alpha                 90.056269
_cell_angle_beta                  123.544393
_cell_angle_gamma                 89.876913
_cell_volume                      10900.1108587

loop_
_atom_site_label
_atom_site_type_symbol
_atom_type_description
_atom_site_fract_x
_atom_site_fract_y
_atom_site_fract_z
_atom_type_partial_charge
C1    C     C_R   0.543396 0.589028 0.737058 0.535586
C2    C     C_R   0.462983 0.395804 0.284899 0.557665
C3    C     C_R   0.456048 0.587524 0.261377 0.541353
C4    C     C_R   0.536966 0.395757 0.714804 0.557359
C5    C     C_R   0.043178 0.088747 0.737185 0.538145
C6    C     C_R   0.962362 0.896792 0.282883 0.554663
C7    C     C_R   0.957254 0.089968 0.264201 0.543251
C8    C     C_R   0.037436 0.896381 0.716147 0.553772
C9    C     C_R   0.347593 0.692567 0.580781 0.484540
C10   C     C_R   0.699359 0.392996 0.422851 0.495133
C11   C     C_R   0.651476 0.693187 0.418809 0.485826
C12   C     C_R   0.301404 0.392368 0.576929 0.497446
C13   C     C_R   0.854964 0.199330 0.583847 0.489944
C14   C     C_R   0.199169 0.891774 0.423076 0.494212
C15   C     C_R   0.156411 0.190476 0.423221 0.501262
C16   C     C_R   0.801807 0.890404 0.578561 0.497123
C17   C     C_R   0.308679 0.730248 0.561933 0.321333
C18   C     C_R   0.749181 0.371865 0.445239 0.280469
C19   C     C_R   0.689757 0.731320 0.436052 0.306042
C20   C     C_R   0.253344 0.367973 0.556757 0.278733
C21   C     C_R   0.815806 0.236263 0.567570 0.295862
C22   C     C_R   0.247866 0.868599 0.444624 0.275194
C23   C     C_R   0.195159 0.228038 0.441858 0.327073
C24   C     C_R   0.752675 0.868465 0.556170 0.280790
C25   C     C_R   0.296581 0.774495 0.501942 -0.219010
C26   C     C_R   0.775206 0.331687 0.512855 -0.176667
C27   C     C_R   0.702728 0.775306 0.497041 -0.225556
C28   C     C_R   0.229632 0.326014 0.491536 -0.172416
C29   C     C_R   0.800183 0.279177 0.504298 -0.219112
C30   C     C_R   0.272398 0.827247 0.510618 -0.161835
C31   C     C_R   0.206916 0.272556 0.501478 -0.234907
C32   C     C_R   0.727466 0.827865 0.489242 -0.180294
C33   C     C_R   0.367976 0.611479 0.111412 -0.158094
C34   C     C_R   0.610043 0.329188 0.833654 -0.049289
C35   C     C_R   0.631052 0.614521 0.885898 -0.159535
C36   C     C_R   0.389778 0.329725 0.165910 -0.048744
C37   C     C_R   0.870184 0.115144 0.113749 -0.157759
C38   C     C_R   0.110860 0.830438 0.835452 -0.052211
C39   C     C_R   0.130379 0.114138 0.887349 -0.156035
C40   C     C_R   0.888595 0.831778 0.162546 -0.051343
C41   C     C_R   0.353538 0.642202 0.972613 -0.311544
C42   C     C_R   0.600227 0.262597 0.925907 -0.271425
C43   C     C_R   0.644897 0.647486 0.023106 -0.306274
C44   C     C_R   0.398794 0.264205 0.071506 -0.272285
C45   C     C_R   0.857634 0.150054 0.978098 -0.306760
C46   C     C_R   0.101763 0.765969 0.930710 -0.271404
C47   C     C_R   0.143533 0.147723 0.024155 -0.309160
C48   C     C_R   0.896757 0.768341 0.064969 -0.274214
C49   C     C_R   0.388548 0.620593 0.059168 0.652864
C50   C     C_R   0.580877 0.309993 0.868286 0.627770
C51   C     C_R   0.610346 0.624992 0.937513 0.645234
C52   C     C_R   0.418466 0.311097 0.130088 0.627962
C53   C     C_R   0.891952 0.128194 0.064483 0.643947
C54   C     C_R   0.082348 0.812841 0.872193 0.630551
C55   C     C_R   0.109111 0.125371 0.937917 0.645360
C56   C     C_R   0.916590 0.814667 0.124621 0.632218
C57   C     C_R   0.312511 0.609693 0.066468 0.558134
C58   C     C_R   0.661462 0.306935 0.874803 0.415644
C59   C     C_R   0.686548 0.612460 0.931033 0.557547
C60   C     C_R   0.338383 0.307663 0.125142 0.415062
C61   C     C_R   0.814632 0.111472 0.066398 0.557057
C62   C     C_R   0.161904 0.807396 0.875494 0.417529
C63   C     C_R   0.186003 0.111996 0.933496 0.559425
C64   C     C_R   0.837520 0.809144 0.122619 0.416460
C65   C     C_R   0.283292 0.648776 0.998596 -0.040906
C66   C     C_R   0.669386 0.249401 0.899176 -0.002441
C67   C     C_R   0.715647 0.651753 0.998216 -0.038078
C68   C     C_R   0.330440 0.250359 0.099952 -0.002370
C69   C     C_R   0.785081 0.150517 0.998620 -0.037487
C70   C     C_R   0.169432 0.750100 0.901097 -0.002869
C71   C     C_R   0.214950 0.151507 0.000693 -0.042328
C72   C     C_R   0.829807 0.752067 0.096162 -0.003898
C73   C     C_R   0.302463 0.659248 0.945246 -0.078522
C74   C     C_R   0.644532 0.232071 0.941867 -0.078382
C75   C     C_R   0.696440 0.663003 0.051055 -0.079618
C76   C     C_R   0.354715 0.233617 0.055975 -0.079024
C77   C     C_R   0.805271 0.163563 0.947720 -0.079283
C78   C     C_R   0.145341 0.734449 0.945851 -0.078693
C79   C     C_R   0.195185 0.163464 0.052765 -0.078659
C80   C     C_R   0.853332 0.736740 0.050377 -0.077527
C81   C     C_R   0.234240 0.673012 0.976496 -0.149016
C82   C     C_R   0.712478 0.217462 0.909928 -0.126877
C83   C     C_R   0.764857 0.675463 0.020522 -0.148639
C84   C     C_R   0.287442 0.218365 0.089339 -0.125034
C85   C     C_R   0.735079 0.173115 0.974845 -0.148760
C86   C     C_R   0.211682 0.716960 0.910947 -0.128106
C87   C     C_R   0.264608 0.174600 0.023653 -0.146205
C88   C     C_R   0.787605 0.719068 0.086426 -0.126390
C89   C     C_R   0.637609 0.594212 0.567838 0.497260
C90   C     C_R   0.355263 0.425221 0.436825 0.515170
C91   C     C_R   0.362141 0.593925 0.432340 0.498396
C92   C     C_R   0.644735 0.424747 0.563192 0.515720
C93   C     C_R   0.137621 0.094079 0.567963 0.503226
C94   C     C_R   0.855286 0.925262 0.437095 0.516621
C95   C     C_R   0.863409 0.096043 0.431532 0.490100
C96   C     C_R   0.144809 0.925682 0.563056 0.518826
C97   C     C_R   0.732691 0.226169 0.855761 0.480032
C98   C     C_R   0.209614 0.658580 0.021692 0.539732
C99   C     C_R   0.267704 0.226480 0.144410 0.478336
C100  C     C_R   0.789341 0.660943 0.975128 0.537202
C101  C     C_R   0.231106 0.723971 0.855261 0.483728
C102  C     C_R   0.709595 0.156837 0.017908 0.538238
C103  C     C_R   0.768379 0.726028 0.142485 0.480718
C104  C     C_R   0.289452 0.158977 0.979236 0.537456
C105  C     C_R   0.772824 0.189763 0.867256 0.324636
C106  C     C_R   0.168699 0.692932 0.011666 0.313154
C107  C     C_R   0.227756 0.189875 0.133158 0.324665
C108  C     C_R   0.829823 0.695381 0.984369 0.312604
C109  C     C_R   0.269849 0.685874 0.865078 0.325873
C110  C     C_R   0.667586 0.189721 0.006523 0.314168
C111  C     C_R   0.729191 0.688589 0.131690 0.326060
C112  C     C_R   0.331278 0.192008 0.990274 0.315450
C113  C     C_R   0.587777 0.590451 0.422063 0.524172
C114  C     C_R   0.407925 0.422947 0.580976 0.536622
C115  C     C_R   0.412041 0.590099 0.578029 0.525524
C116  C     C_R   0.592097 0.422669 0.419002 0.544389
C117  C     C_R   0.087512 0.090856 0.422023 0.525863
C118  C     C_R   0.908001 0.923243 0.581185 0.538807
C119  C     C_R   0.912671 0.092047 0.577374 0.538337
C120  C     C_R   0.092157 0.923192 0.418937 0.537262
C121  C     C_R   0.383581 0.586010 0.260870 0.483107
C122  C     C_R   0.614032 0.404681 0.729926 0.489269
C123  C     C_R   0.616174 0.586770 0.738127 0.481480
C124  C     C_R   0.386036 0.404677 0.270375 0.489548
C125  C     C_R   0.883845 0.086502 0.260913 0.483210
C126  C     C_R   0.114249 0.904880 0.730004 0.481918
C127  C     C_R   0.116180 0.085999 0.739377 0.487636
C128  C     C_R   0.885713 0.905110 0.269818 0.482961
C129  C     C_R   0.597213 0.600419 0.789179 -0.153938
C130  C     C_R   0.410406 0.377224 0.233788 -0.153114
C131  C     C_R   0.402063 0.598443 0.208808 -0.156893
C132  C     C_R   0.589577 0.377098 0.766316 -0.153681
C133  C     C_R   0.097174 0.099294 0.790467 -0.153797
C134  C     C_R   0.909703 0.878347 0.231924 -0.153068
C135  C     C_R   0.903254 0.100459 0.210637 -0.147550
C136  C     C_R   0.090055 0.877660 0.767123 -0.151432
C137  C     C_R   0.628889 0.619635 0.491867 -0.047871
C138  C     C_R   0.358431 0.410571 0.514267 -0.068023
C139  C     C_R   0.370670 0.619052 0.508364 -0.042696
C140  C     C_R   0.641652 0.409537 0.485760 -0.075434
C141  C     C_R   0.128946 0.119652 0.492116 -0.054436
C142  C     C_R   0.858451 0.910158 0.514683 -0.069533
C143  C     C_R   0.872759 0.122614 0.507436 -0.059072
C144  C     C_R   0.141875 0.910794 0.485706 -0.070945
C145  C     C_R   0.306013 0.765247 0.434563 0.463610
C146  C     C_R   0.766779 0.335603 0.580872 0.531270
C147  C     C_R   0.693345 0.766031 0.564646 0.461885
C148  C     C_R   0.237386 0.330384 0.423111 0.529123
C149  C     C_R   0.807266 0.268992 0.434193 0.460939
C150  C     C_R   0.264153 0.831251 0.578791 0.520292
C151  C     C_R   0.197252 0.263760 0.568551 0.464027
C152  C     C_R   0.735941 0.832147 0.421210 0.535601
C153  C     C_R   0.335507 0.716203 0.441061 0.424284
C154  C     C_R   0.715525 0.344293 0.554633 0.438489
C155  C     C_R   0.664391 0.716901 0.559039 0.426281
C156  C     C_R   0.287605 0.342382 0.447483 0.419390
C157  C     C_R   0.835822 0.219464 0.438640 0.423141
C158  C     C_R   0.213974 0.843677 0.554505 0.428541
C159  C     C_R   0.166727 0.215658 0.561119 0.428426
C160  C     C_R   0.786684 0.842716 0.446573 0.434673
C161  C     C_R   0.352508 0.676874 0.511652 -0.266682
C162  C     C_R   0.684207 0.380765 0.482679 -0.262881
C163  C     C_R   0.647232 0.677436 0.488542 -0.267960
C164  C     C_R   0.317202 0.380318 0.517828 -0.266907
C165  C     C_R   0.855292 0.181126 0.511043 -0.254049
C166  C     C_R   0.183612 0.880794 0.483039 -0.258294
C167  C     C_R   0.149247 0.176336 0.490247 -0.280892
C168  C     C_R   0.817139 0.879697 0.518039 -0.265014
H1    H     H_    0.366566 0.650361 0.929288 0.182729
H2    H     H_    0.581103 0.250136 0.958569 0.187898
H3    H     H_    0.630919 0.657934 0.064609 0.181646
H4    H     H_    0.417375 0.252212 0.037637 0.187781
H5    H     H_    0.872221 0.161988 0.938092 0.181432
H6    H     H_    0.083180 0.754678 0.964816 0.186747
H7    H     H_    0.129692 0.157708 0.065932 0.183096
H8    H     H_    0.914712 0.757329 0.029819 0.185626
N1    N     N_R   0.532910 0.558440 0.665240 -0.143961
N2    N     N_R   0.467090 0.441560 0.334760 -0.130644
N3    N     N_R   0.467090 0.558440 0.334760 -0.144301
N4    N     N_R   0.532910 0.441560 0.665240 -0.129719
N5    N     N_R   0.032910 0.058440 0.665240 -0.145657
N6    N     N_R   0.967090 0.941560 0.334760 -0.130139
N7    N     N_R   0.967090 0.058440 0.334760 -0.143418
N8    N     N_R   0.032910 0.941560 0.665240 -0.129901
N9    N     N_R   0.597030 0.558910 0.545540 -0.159604
N10   N     N_R   0.402970 0.441090 0.454460 -0.122508
N11   N     N_R   0.402970 0.558910 0.454460 -0.159679
N12   N     N_R   0.597030 0.441090 0.545540 -0.122799
N13   N     N_R   0.097030 0.058910 0.545540 -0.157990
N14   N     N_R   0.902970 0.941090 0.454460 -0.123287
N15   N     N_R   0.902970 0.058910 0.454460 -0.157917
N16   N     N_R   0.097030 0.941090 0.545540 -0.123974
N17   N     N_R   0.566200 0.559270 0.454460 -0.152945
N18   N     N_R   0.433800 0.440730 0.545540 -0.124996
N19   N     N_R   0.433800 0.559270 0.545540 -0.153087
N20   N     N_R   0.566200 0.440730 0.454460 -0.126398
N21   N     N_R   0.066200 0.059270 0.454460 -0.150817
N22   N     N_R   0.933800 0.940730 0.545540 -0.126927
N23   N     N_R   0.933800 0.059270 0.545540 -0.153128
N24   N     N_R   0.066200 0.940730 0.454460 -0.127690
N25   N     N_R   0.421050 0.559750 0.334770 -0.160665
N26   N     N_R   0.578950 0.440250 0.665230 -0.140198
N27   N     N_R   0.578950 0.559750 0.665230 -0.160976
N28   N     N_R   0.421050 0.440250 0.334770 -0.141057
N29   N     N_R   0.921050 0.059750 0.334770 -0.160357
N30   N     N_R   0.078950 0.940250 0.665230 -0.140808
N31   N     N_R   0.078950 0.059750 0.665230 -0.159925
N32   N     N_R   0.921050 0.940250 0.334770 -0.140742
Ni1   Ni    Ni4+2 0.483090 0.500000 0.604440 0.293695
Ni2   Ni    Ni4+2 0.516910 0.500000 0.395560 0.295783
Ni3   Ni    Ni4+2 0.983090 0.000000 0.604440 0.294303
Ni4   Ni    Ni4+2 0.016910 0.000000 0.395560 0.293067
Ni5   Ni    Ni4+2 0.586780 0.500000 0.604440 0.234184
Ni6   Ni    Ni4+2 0.413220 0.500000 0.395560 0.233966
Ni7   Ni    Ni4+2 0.086780 0.000000 0.604440 0.234077
Ni8   Ni    Ni4+2 0.913220 0.000000 0.395560 0.234887
Cl1   Cl    Cl    0.505353 0.649366 0.722958 -0.657283
Cl2   Cl    Cl    0.507147 0.337980 0.334371 -0.673755
Cl3   Cl    Cl    0.493586 0.647215 0.271946 -0.665652
Cl4   Cl    Cl    0.493100 0.337983 0.664299 -0.685033
Cl5   Cl    Cl    0.006560 0.150550 0.722049 -0.651482
Cl6   Cl    Cl    0.006778 0.838974 0.328845 -0.673539
Cl7   Cl    Cl    0.992875 0.153112 0.283584 -0.674037
Cl8   Cl    Cl    0.992997 0.838831 0.668767 -0.683414
Cl9   Cl    Cl    0.705564 0.344196 0.974658 -0.664979
Cl10  Cl    Cl    0.286422 0.541298 0.026451 -0.635650
Cl11  Cl    Cl    0.293904 0.345361 0.025772 -0.664768
Cl12  Cl    Cl    0.712832 0.544218 0.972422 -0.641508
Cl13  Cl    Cl    0.207203 0.844803 0.974491 -0.665181
Cl14  Cl    Cl    0.790723 0.042470 0.026158 -0.633836
Cl15  Cl    Cl    0.792059 0.847237 0.024359 -0.662555
Cl16  Cl    Cl    0.211962 0.043569 0.974355 -0.636101
O1    O     O_3   0.539720 0.343469 0.856378 -0.592074
C169  C     C_3   0.499556 0.311082 0.852267 -0.005522
H9    H     H_    0.509078 0.302564 0.919694 0.099542
H10   H     H_    0.491484 0.270925 0.814440 0.128663
H11   H     H_    0.462765 0.336342 0.817486 0.204036
O2    O     O_3   0.440964 0.606147 0.094752 -0.566301
C170  C     C_3   0.458180 0.615255 0.038023 -0.113147
H12   H     H_    0.456082 0.661022 0.021184 0.096490
H13   H     H_    0.436041 0.588207 0.978063 0.140863
H14   H     H_    0.499977 0.602407 0.073329 0.179788
O3    O     O_3   0.459544 0.344711 0.142124 -0.591695
C171  C     C_3   0.498670 0.312926 0.141728 0.001723
H15   H     H_    0.487575 0.306114 0.072965 0.098611
H16   H     H_    0.507271 0.271875 0.177721 0.126388
H17   H     H_    0.535545 0.337854 0.176010 0.205122
O4    O     O_3   0.557219 0.614763 0.900977 -0.570968
C172  C     C_3   0.544867 0.605169 0.964087 -0.117787
H18   H     H_    0.542746 0.646107 0.992555 0.096384
H19   H     H_    0.572822 0.575000 0.016439 0.147215
H20   H     H_    0.505358 0.585597 0.930051 0.185751
O5    O     O_3   0.042158 0.847531 0.861416 -0.592297
C173  C     C_3   0.001866 0.816443 0.858990 -0.008750
H21   H     H_    0.012025 0.808512 0.926911 0.095789
H22   H     H_    0.992707 0.776057 0.821281 0.130946
H23   H     H_    0.965554 0.842488 0.824948 0.206067
O6    O     O_3   0.945847 0.121166 0.104321 -0.569475
C174  C     C_3   0.961144 0.115687 0.044352 -0.129250
H24   H     H_    0.961470 0.157861 0.017212 0.099321
H25   H     H_    0.936205 0.084674 0.991042 0.146279
H26   H     H_    0.001973 0.099236 0.080929 0.189470
O7    O     O_3   0.956930 0.849237 0.136109 -0.593104
C175  C     C_3   0.995822 0.818674 0.133349 -0.005543
H27   H     H_    0.983939 0.812861 0.063998 0.095906
H28   H     H_    0.005216 0.777200 0.168450 0.128883
H29   H     H_    0.032439 0.844053 0.167171 0.204213
O8    O     O_3   0.055833 0.113913 0.900040 -0.565666
C176  C     C_3   0.039557 0.116661 0.959368 -0.113903
H30   H     H_    0.039464 0.161512 0.979466 0.095784
H31   H     H_    0.063733 0.088136 0.017391 0.141209
H32   H     H_    0.998430 0.101253 0.924469 0.185988
O9    O     O_3   0.711755 0.267641 0.790238 -0.615615
C177  C     C_3   0.752785 0.295618 0.789321 0.034795
H33   H     H_    0.762772 0.273383 0.747163 0.251483
H34   H     H_    0.788559 0.302767 0.856685 0.036221
H35   H     H_    0.739569 0.337636 0.758414 0.235886
O10   O     O_3   0.226243 0.611722 0.076969 -0.558627
C178  C     C_3   0.183447 0.574365 0.051193 0.056098
H36   H     H_    0.150296 0.578324 0.979609 0.068712
H37   H     H_    0.168475 0.580751 0.094528 0.188748
H38   H     H_    0.197609 0.529615 0.061085 0.129669
O11   O     O_3   0.289272 0.267329 0.210934 -0.614675
C179  C     C_3   0.248923 0.294805 0.214752 0.039829
H39   H     H_    0.240873 0.272249 0.259034 0.258178
H40   H     H_    0.212101 0.301639 0.148505 0.033260
H41   H     H_    0.261993 0.337006 0.244995 0.231661
O12   O     O_3   0.773297 0.613609 0.920761 -0.554960
C180  C     C_3   0.816551 0.576326 0.948677 0.062337
H42   H     H_    0.847519 0.578723 0.021144 0.067550
H43   H     H_    0.834339 0.584275 0.910155 0.182667
H44   H     H_    0.802544 0.531872 0.934794 0.128404
O13   O     O_3   0.210810 0.765692 0.790146 -0.614354
C181  C     C_3   0.252144 0.791909 0.788180 0.019951
H45   H     H_    0.260006 0.769449 0.743483 0.254390
H46   H     H_    0.288911 0.797154 0.854933 0.036966
H47   H     H_    0.240466 0.834681 0.759603 0.228920
O14   O     O_3   0.726688 0.109703 0.072787 -0.557393
C182  C     C_3   0.684684 0.070736 0.044404 0.059439
H48   H     H_    0.653842 0.072985 0.972340 0.070147
H49   H     H_    0.666848 0.076737 0.082901 0.184400
H50   H     H_    0.699906 0.026817 0.057614 0.126667
O15   O     O_3   0.789130 0.767060 0.208640 -0.617820
C183  C     C_3   0.748135 0.793153 0.212120 0.037690
H51   H     H_    0.740342 0.770004 0.256275 0.253521
H52   H     H_    0.711277 0.799287 0.145729 0.037797
H53   H     H_    0.760182 0.835508 0.241990 0.231573
O16   O     O_3   0.271436 0.113042 0.922069 -0.558796
C184  C     C_3   0.313227 0.074333 0.943525 0.064593
H54   H     H_    0.351003 0.082748 0.007902 0.069171
H55   H     H_    0.320148 0.074910 0.889010 0.196744
H56   H     H_    0.302027 0.030388 0.948830 0.124896
Cl17  Cl    Cl    0.702426 0.589215 0.660321 -0.455175
Cl18  Cl    Cl    0.294174 0.447301 0.346102 -0.663183
Cl19  Cl    Cl    0.297380 0.589425 0.339615 -0.458893
Cl20  Cl    Cl    0.705660 0.447019 0.654107 -0.651339
Cl21  Cl    Cl    0.202191 0.089351 0.661236 -0.466726
Cl22  Cl    Cl    0.794439 0.948839 0.347459 -0.645494
Cl23  Cl    Cl    0.798673 0.091809 0.338573 -0.445726
Cl24  Cl    Cl    0.205522 0.948653 0.653508 -0.661502
Cl25  Cl    Cl    0.587456 0.563349 0.331434 -0.430347
Cl26  Cl    Cl    0.432469 0.430647 0.693905 -0.539464
Cl27  Cl    Cl    0.413668 0.563519 0.670006 -0.434457
Cl28  Cl    Cl    0.567100 0.431210 0.306016 -0.522261
Cl29  Cl    Cl    0.083198 0.067528 0.326113 -0.441107
Cl30  Cl    Cl    0.932529 0.934387 0.693392 -0.524689
Cl31  Cl    Cl    0.911934 0.067404 0.668190 -0.420190
Cl32  Cl    Cl    0.067878 0.933598 0.306542 -0.526587
O17   O     O_3   0.331312 0.582041 0.227544 -0.549348
C185  C     C_3   0.319868 0.524356 0.218094 0.114045
H57   H     H_    0.334914 0.505165 0.282622 0.162347
H58   H     H_    0.338675 0.502198 0.188531 0.061513
H59   H     H_    0.277107 0.519065 0.176359 0.185153
O18   O     O_3   0.660856 0.388965 0.740782 -0.577170
C186  C     C_3   0.704450 0.403482 0.825844 -0.165546
H60   H     H_    0.726938 0.365627 0.861233 0.199973
H61   H     H_    0.695152 0.425569 0.869420 0.178247
H62   H     H_    0.733141 0.428054 0.820244 0.161024
O19   O     O_3   0.668466 0.582084 0.772228 -0.549322
C187  C     C_3   0.679716 0.524290 0.782638 0.117923
H63   H     H_    0.665579 0.504829 0.718641 0.163753
H64   H     H_    0.660056 0.502522 0.810971 0.058724
H65   H     H_    0.722401 0.518694 0.826150 0.183642
O20   O     O_3   0.339547 0.388650 0.260464 -0.575545
C188  C     C_3   0.295516 0.403264 0.175824 -0.165975
H66   H     H_    0.304360 0.425287 0.131785 0.180009
H67   H     H_    0.267100 0.428032 0.182033 0.160918
H68   H     H_    0.272910 0.365444 0.140601 0.199181
O21   O     O_3   0.831406 0.081364 0.225196 -0.548153
C189  C     C_3   0.820941 0.023502 0.215473 0.111383
H69   H     H_    0.833702 0.004670 0.279325 0.165660
H70   H     H_    0.842050 0.001502 0.189704 0.058019
H71   H     H_    0.778535 0.017365 0.169797 0.179751
O22   O     O_3   0.160609 0.888466 0.739471 -0.575144
C190  C     C_3   0.204903 0.902695 0.823985 -0.160119
H72   H     H_    0.227287 0.864666 0.858952 0.199049
H73   H     H_    0.196456 0.924921 0.868468 0.175471
H74   H     H_    0.233317 0.927148 0.817529 0.160299
O23   O     O_3   0.168589 0.081646 0.773725 -0.546788
C191  C     C_3   0.179917 0.023858 0.783713 0.105580
H75   H     H_    0.164787 0.004347 0.719346 0.163090
H76   H     H_    0.161284 0.002198 0.813924 0.066038
H77   H     H_    0.222659 0.018218 0.825018 0.180151
O24   O     O_3   0.839519 0.888545 0.260689 -0.576028
C192  C     C_3   0.794941 0.903248 0.176656 -0.165468
H78   H     H_    0.803026 0.925912 0.132154 0.175103
H79   H     H_    0.766693 0.927531 0.184018 0.164223
H80   H     H_    0.772489 0.865465 0.141130 0.199469
O25   O     O_3   0.274918 0.794716 0.355335 -0.594037
C193  C     C_3   0.302601 0.813054 0.318199 0.130788
H81   H     H_    0.300098 0.780917 0.271344 0.175633
H82   H     H_    0.343802 0.825244 0.368849 0.089076
H83   H     H_    0.282758 0.851562 0.278137 0.154759
O26   O     O_3   0.803770 0.319164 0.667003 -0.585064
C194  C     C_3   0.845298 0.358669 0.705555 -0.220157
H84   H     H_    0.831069 0.402284 0.705194 0.188064
H85   H     H_    0.867001 0.358179 0.672515 0.147446
H86   H     H_    0.873603 0.346641 0.775618 0.150849
O27   O     O_3   0.723877 0.795894 0.643552 -0.590587
C195  C     C_3   0.694765 0.816261 0.677242 0.119403
H87   H     H_    0.695643 0.785226 0.723915 0.174021
H88   H     H_    0.654057 0.828890 0.624481 0.086539
H89   H     H_    0.714514 0.854888 0.716834 0.158753
O28   O     O_3   0.200164 0.312830 0.338176 -0.587878
C196  C     C_3   0.163035 0.356870 0.296132 -0.246607
H90   H     H_    0.181942 0.396290 0.292511 0.195444
H91   H     H_    0.142469 0.365642 0.329880 0.162382
H92   H     H_    0.133095 0.343522 0.227531 0.157565
O29   O     O_3   0.775418 0.298409 0.355268 -0.593697
C197  C     C_3   0.802892 0.317965 0.318351 0.112638
H93   H     H_    0.801116 0.286278 0.271564 0.175785
H94   H     H_    0.843894 0.330827 0.369156 0.089271
H95   H     H_    0.782467 0.356251 0.278220 0.157806
O30   O     O_3   0.300879 0.812412 0.663265 -0.592551
C198  C     C_3   0.335947 0.857320 0.709669 -0.249745
H96   H     H_    0.315214 0.894053 0.715901 0.197357
H97   H     H_    0.356636 0.870782 0.677816 0.165222
H98   H     H_    0.366091 0.842421 0.777275 0.155126
O31   O     O_3   0.228980 0.292347 0.648470 -0.594922
C199  C     C_3   0.201709 0.312280 0.685566 0.134128
H99   H     H_    0.203775 0.280880 0.732852 0.173792
H100  H     H_    0.160664 0.325316 0.634852 0.092599
H101  H     H_    0.222273 0.350698 0.725386 0.153787
O32   O     O_3   0.698463 0.816746 0.334988 -0.588484
C200  C     C_3   0.656712 0.856075 0.299814 -0.222051
H102  H     H_    0.670692 0.899788 0.300102 0.190082
H103  H     H_    0.637028 0.855218 0.336056 0.151013
H104  H     H_    0.627098 0.844482 0.230158 0.153549
O33   O     O_3   0.346286 0.706332 0.377508 -0.559833
C201  C     C_3   0.399868 0.718153 0.413792 -0.253296
H105  H     H_    0.425680 0.684143 0.459703 0.138227
H106  H     H_    0.412278 0.759769 0.448709 0.118786
H107  H     H_    0.406084 0.719943 0.359246 0.190796
O34   O     O_3   0.698446 0.322661 0.605020 -0.601904
C202  C     C_3   0.658002 0.282710 0.555141 -0.015560
H108  H     H_    0.673740 0.243714 0.543590 0.189800
H109  H     H_    0.625191 0.299862 0.490963 0.123248
H110  H     H_    0.641063 0.270576 0.593371 0.198247
O35   O     O_3   0.654923 0.706688 0.624006 -0.553543
C203  C     C_3   0.601409 0.717827 0.589642 -0.248743
H111  H     H_    0.575311 0.685006 0.541324 0.132229
H112  H     H_    0.588783 0.760402 0.558060 0.115108
H113  H     H_    0.595709 0.716831 0.644850 0.192806
O36   O     O_3   0.305821 0.320549 0.398586 -0.605525
C204  C     C_3   0.347862 0.282785 0.451388 0.016433
H114  H     H_    0.337547 0.250360 0.485002 0.160925
H115  H     H_    0.384294 0.306389 0.501884 0.130634
H116  H     H_    0.357078 0.259482 0.407531 0.200854
O37   O     O_3   0.843055 0.208309 0.371336 -0.553678
C205  C     C_3   0.896008 0.219260 0.401725 -0.233069
H117  H     H_    0.922952 0.186719 0.449766 0.131768
H118  H     H_    0.909066 0.262062 0.432174 0.112257
H119  H     H_    0.899848 0.217544 0.344541 0.195026
O38   O     O_3   0.196844 0.824183 0.606095 -0.604100
C206  C     C_3   0.154989 0.785642 0.557464 -0.015973
H120  H     H_    0.169869 0.743788 0.552869 0.199788
H121  H     H_    0.124445 0.800861 0.490074 0.119737
H122  H     H_    0.135224 0.779541 0.592961 0.194411
O39   O     O_3   0.155299 0.206686 0.624015 -0.560262
C207  C     C_3   0.101909 0.219984 0.587145 -0.241802
H123  H     H_    0.075571 0.186223 0.541436 0.140602
H124  H     H_    0.090250 0.261542 0.551926 0.117855
H125  H     H_    0.095492 0.222838 0.641504 0.190475
O40   O     O_3   0.803750 0.822981 0.394916 -0.603410
C208  C     C_3   0.846050 0.784674 0.443709 -0.026330
H126  H     H_    0.831357 0.742736 0.451518 0.196181
H127  H     H_    0.877554 0.801589 0.510580 0.125077
H128  H     H_    0.864734 0.777244 0.405822 0.198585
O41   O     O_3   0.374950 0.666543 0.662317 -0.508640
C209  C     C_3   0.402751 0.708097 0.728926 0.073739
H129  H     H_    0.376925 0.727759 0.747179 0.148564
H130  H     H_    0.420122 0.741785 0.709389 0.068078
H131  H     H_    0.435681 0.687184 0.788890 0.177142
O42   O     O_3   0.666952 0.426297 0.348074 -0.545048
C210  C     C_3   0.674896 0.419293 0.278797 0.141214
H132  H     H_    0.690429 0.376661 0.277222 0.105556
H133  H     H_    0.701184 0.453575 0.283877 0.186137
H134  H     H_    0.636752 0.424045 0.214159 0.140567
O43   O     O_3   0.623483 0.667347 0.337326 -0.505105
C211  C     C_3   0.594192 0.708967 0.271729 0.052586
H135  H     H_    0.619554 0.732016 0.255559 0.144032
H136  H     H_    0.574764 0.739866 0.291649 0.072739
H137  H     H_    0.562858 0.687635 0.210639 0.177170
O44   O     O_3   0.330407 0.429815 0.647256 -0.537609
C212  C     C_3   0.327873 0.417726 0.721464 0.146081
H138  H     H_    0.317590 0.372775 0.725127 0.090294
H139  H     H_    0.299598 0.447313 0.720990 0.181667
H140  H     H_    0.367012 0.425374 0.783307 0.145369
O45   O     O_3   0.887451 0.176731 0.667421 -0.507010
C213  C     C_3   0.911836 0.221001 0.730359 0.059261
H141  H     H_    0.884931 0.238229 0.747826 0.148318
H142  H     H_    0.925927 0.255929 0.706831 0.058092
H143  H     H_    0.946666 0.203665 0.791802 0.175025
O46   O     O_3   0.168321 0.926857 0.349905 -0.541698
C214  C     C_3   0.173925 0.916114 0.278527 0.140666
H144  H     H_    0.187047 0.872054 0.277113 0.101498
H145  H     H_    0.201364 0.947775 0.280964 0.184496
H146  H     H_    0.135282 0.921837 0.214985 0.141373
O47   O     O_3   0.126230 0.168610 0.339173 -0.506391
C215  C     C_3   0.093747 0.212536 0.281377 0.037326
H147  H     H_    0.116041 0.239920 0.263312 0.136858
H148  H     H_    0.076496 0.239221 0.310149 0.085783
H149  H     H_    0.060766 0.193480 0.219613 0.190431
O48   O     O_3   0.833585 0.923675 0.653532 -0.541446
C216  C     C_3   0.827262 0.912803 0.724163 0.132810
H150  H     H_    0.812777 0.869280 0.723807 0.104455
H151  H     H_    0.800768 0.945474 0.722776 0.185382
H152  H     H_    0.865951 0.916852 0.788190 0.139194
Cl33  Cl    Cl    0.774311 0.209331 0.598522 -0.492389
Cl34  Cl    Cl    0.289912 0.910108 0.428590 -0.615214
Cl35  Cl    Cl    0.237424 0.204672 0.410312 -0.485222
Cl36  Cl    Cl    0.711102 0.911942 0.571041 -0.616074
Cl37  Cl    Cl    0.263994 0.704818 0.586931 -0.496332
Cl38  Cl    Cl    0.790104 0.414874 0.428546 -0.619342
Cl39  Cl    Cl    0.731851 0.707175 0.404298 -0.496773
Cl40  Cl    Cl    0.210573 0.408859 0.572026 -0.616118
Cl41  Cl    Cl    0.777318 0.168600 0.778261 -0.520189
Cl42  Cl    Cl    0.155506 0.691760 0.095328 -0.586417
Cl43  Cl    Cl    0.223994 0.168237 0.222673 -0.514704
Cl44  Cl    Cl    0.842169 0.694563 0.899652 -0.583508
Cl45  Cl    Cl    0.273251 0.664670 0.774986 -0.528480
Cl46  Cl    Cl    0.652299 0.185942 0.087525 -0.582794
Cl47  Cl    Cl    0.725891 0.665761 0.221187 -0.526460
Cl48  Cl    Cl    0.346671 0.188048 0.908814 -0.591700

loop_
_geom_bond_atom_site_label_1
_geom_bond_atom_site_label_2
_ccdc_geom_bond_type
O43   C211  S    
C92   Cl20  S    
C93   Cl21  S    
C119  C143  A    
C204  H114  S    
C120  C144  A    
C95   Cl23  S    
C215  H147  S    
C121  O17   S    
C11   O43   S    
O45   C213  S    
C158  C166  A    
C3    C131  A    
C203  H111  S    
N5    N31   A    
N19   Ni1   S    
C1    C129  A    
C153  O33   S    
C212  H140  S    
C171  H15   S    
C62   C70   A    
C177  H33   S    
C127  N31   A    
C191  H75   S    
C173  H22   S    
C42   H2    S    
C211  H136  S    
C183  H53   S    
C170  H12   S    
O44   C212  S    
C46   H6    S    
C38   C136  S    
C147  C155  A    
N32   Ni8   S    
C81   C86   A    
C97   C105  A    
C125  C135  A    
C127  O23   S    
C83   C88   A    
C126  C136  A    
C10   C162  A    
C147  O27   S    
C169  H10   S    
C41   C49   A    
C179  H41   S    
C43   C75   A    
C34   C50   A    
C185  H57   S    
O7    C175  S    
C187  H63   S    
C186  H61   S    
C115  Cl27  S    
C197  H94   S    
C90   N10   A    
C21   C29   A    
C157  O37   S    
C169  H11   S    
C23   C31   A    
C50   O1    S    
C94   N14   A    
C74   C110  A    
C36   C130  S    
N15   Ni8   S    
C66   C82   A    
C7    Cl7   S    
C146  O26   S    
O15   C183  S    
C146  C154  A    
C12   C20   A    
N6    Ni4   S    
C61   Cl14  S    
C13   C21   A    
C188  H68   S    
C59   Cl12  S    
C199  H100  S    
C63   C71   A    
C83   C100  A    
C176  H31   S    
C35   C51   A    
O29   C197  S    
C204  H116  S    
C113  C137  A    
C192  H80   S    
O14   C182  S    
C215  H149  S    
C2    C130  A    
C137  C163  S    
N13   N21   A    
C179  H39   S    
C53   O6    S    
C114  N18   A    
C213  H141  S    
N27   Ni5   S    
C203  H113  S    
C21   Cl33  S    
C174  H25   S    
C128  O24   S    
C64   Cl15  S    
C194  H84   S    
C123  N27   A    
C82   C85   A    
C98   C106  A    
C171  H17   S    
C7    N7    A    
C78   C106  A    
C17   C25   A    
C110  Cl46  S    
C121  N25   A    
C192  H78   S    
C101  O13   S    
O46   C214  S    
C10   C18   A    
C153  C161  A    
C10   O42   S    
C125  N29   A    
C159  C167  A    
N6    N32   A    
C203  H112  S    
N16   N24   A    
C189  H69   S    
C205  H118  S    
N25   Ni6   S    
O30   C198  S    
C142  C168  S    
C186  H60   S    
O23   C191  S    
C34   C58   A    
C128  N32   A    
O33   C201  S    
C115  C139  A    
C101  C109  A    
C151  C159  A    
C195  H87   S    
C196  H91   S    
C123  O19   S    
C209  H130  S    
C67   C83   A    
O21   C189  S    
C40   C56   A    
C69   C77   A    
O35   C203  S    
C187  H65   S    
C107  Cl43  S    
C96   Cl24  S    
C71   C79   A    
C193  H81   S    
C4    C132  A    
O37   C205  S    
C5    C133  A    
C172  H18   S    
C216  H150  S    
C6    N6    A    
C149  O29   S    
C106  Cl42  S    
O5    C173  S    
C209  H131  S    
C140  C162  S    
O31   C199  S    
C66   C74   A    
N28   Ni6   S    
O24   C192  S    
N2    Ni2   S    
C152  O32   S    
C26   C146  A    
O26   C194  S    
C59   C67   A    
C143  C165  S    
N29   Ni8   S    
C175  H27   S    
C214  H146  S    
C94   Cl22  S    
O42   C210  S    
C14   C166  A    
N13   Ni7   S    
O1    C169  S    
C20   C28   A    
C36   C52   A    
C37   C53   A    
C44   C52   A    
C183  H52   S    
C45   C53   A    
C15   C167  A    
C208  H126  S    
C11   C163  A    
O48   C216  S    
C90   C138  A    
C212  H138  S    
C184  H55   S    
C192  H79   S    
C15   O47   S    
C100  C108  A    
C94   C142  A    
C56   O7    S    
O32   C200  S    
C124  O20   S    
C200  H104  S    
C157  C165  A    
C104  C112  A    
C43   H3    S    
O18   C186  S    
C173  H23   S    
C155  C163  A    
N7    Ni4   S    
C40   C134  S    
O40   C208  S    
C17   Cl37  S    
C208  H128  S    
O13   C181  S    
C128  C134  A    
C31   C151  A    
C150  O30   S    
C32   C152  A    
C37   C135  S    
C180  H42   S    
C170  H13   S    
C211  H135  S    
C9    C161  A    
C201  H105  S    
C42   C50   A    
C195  H89   S    
C12   O44   S    
C3    Cl3   S    
O36   C204  S    
C190  H73   S    
N7    N29   A    
C9    O41   S    
C67   C75   A    
C118  N22   A    
C191  H76   S    
C52   O3    S    
C69   C85   A    
N8    Ni3   S    
C210  H133  S    
C194  H86   S    
C91   N11   A    
C172  H20   S    
C22   C30   A    
C89   N9    A    
N10   N18   A    
C55   O8    S    
C199  H99   S    
C213  H143  S    
C215  H148  S    
C102  O14   S    
C92   N12   A    
C93   N13   A    
C68   C76   A    
C80   C108  A    
C14   C22   A    
C179  H40   S    
O6    C174  S    
N20   Ni2   S    
C72   C80   A    
N17   Ni2   S    
N14   Ni8   S    
C175  H29   S    
C212  H139  S    
N9    Ni5   S    
C177  H34   S    
C114  C138  A    
C182  H50   S    
C41   C73   A    
C116  N20   A    
C117  Cl29  S    
O20   C188  S    
O22   C190  S    
O11   C179  S    
O10   C178  S    
C45   C77   A    
C2    N2    A    
C206  H121  S    
C113  Cl25  S    
C191  H77   S    
C47   H7    S    
C85   C102  A    
C48   H8    S    
C116  Cl28  S    
N30   Ni7   S    
C95   C143  A    
C8    C136  A    
C177  H35   S    
O47   C215  S    
C18   C26   A    
C108  Cl44  S    
O38   C206  S    
O27   C195  S    
C160  C168  A    
N3    Ni2   S    
C11   C19   A    
C185  H58   S    
C119  N23   A    
C187  H64   S    
C216  H152  S    
N4    N26   A    
C181  H45   S    
C198  H98   S    
C30   C150  A    
C81   C98   A    
C160  O40   S    
C33   C49   A    
O3    C171  S    
C180  H44   S    
N8    N30   A    
C207  H123  S    
C103  C111  A    
C112  Cl48  S    
C16   O48   S    
C90   Cl18  S    
C39   C55   A    
N3    N25   A    
C4    Cl4   S    
C185  H59   S    
C178  H36   S    
N1    N27   A    
C188  H67   S    
C138  C164  S    
N16   Ni7   S    
C8    Cl8   S    
C158  O38   S    
N11   Ni6   S    
C210  H132  S    
C176  H30   S    
C204  H115  S    
C4    N4    A    
C199  H101  S    
C5    N5    A    
C154  C162  A    
C148  O28   S    
C141  C167  S    
C42   C74   A    
C68   C84   A    
C139  C161  S    
C181  H47   S    
C98   O10   S    
C46   C78   A    
C189  H71   S    
C159  O39   S    
C38   C62   A    
C117  C141  A    
C182  H48   S    
C173  H21   S    
C12   C164  A    
C13   C165  A    
O19   C187  S    
C38   C54   A    
C46   C54   A    
N31   Ni7   S    
C79   C107  A    
C104  O16   S    
C189  H70   S    
C205  H119  S    
C126  O22   S    
C58   Cl9   S    
C91   C139  A    
C154  O34   S    
C89   C137  A    
O34   C202  S    
C82   C97   A    
C102  C110  A    
C169  H9    S    
C156  O36   S    
C92   C140  A    
C93   C141  A    
O4    C172  S    
N14   N22   A    
C195  H88   S    
C196  H90   S    
C39   C133  S    
C13   O45   S    
C25   C30   S    
C115  N19   A    
O2    C170  S    
C150  C158  A    
C27   C32   S    
C22   Cl34  S    
C84   C99   A    
C113  N17   A    
C28   C31   S    
C127  C133  A    
C57   C65   A    
C49   O2    S    
C186  H62   S    
C193  H82   S    
C198  H96   S    
C73   C109  A    
C197  H93   S    
C99   C107  A    
C75   C111  A    
C2    Cl2   S    
C207  H125  S    
C122  N26   A    
C77   C105  A    
C51   O4    S    
C109  Cl45  S    
N21   Ni4   S    
C178  H37   S    
C43   C51   A    
C41   H1    S    
C126  N30   A    
C119  Cl31  S    
C105  Cl41  S    
C120  N24   A    
N26   Ni5   S    
N4    Ni1   S    
C193  H83   S    
C125  O21   S    
C87   C104  A    
O8    C176  S    
C60   C68   A    
C175  H28   S    
C176  H32   S    
C144  C166  S    
C1    Cl1   S    
C148  C156  A    
C155  O35   S    
C149  C157  A    
C5    Cl5   S    
C152  C160  A    
C24   Cl36  S    
N2    N28   A    
C70   C78   A    
O17   C185  S    
C84   C87   A    
C47   C79   A    
O39   C207  S    
C174  H26   S    
O28   C196  S    
C197  H95   S    
C24   C32   A    
C184  H54   S    
C151  O31   S    
N24   Ni4   S    
C124  N28   A    
C6    Cl6   S    
N15   N23   A    
C19   Cl39  S    
C45   H5    S    
C200  H103  S    
C213  H142  S    
C96   C144  A    
C65   C73   A    
N23   Ni3   S    
C44   C76   A    
C178  H38   S    
N1    Ni1   S    
C44   H4    S    
C208  H127  S    
C3    N3    A    
C205  H117  S    
C65   C81   A    
C58   C66   A    
C190  H72   S    
C171  H16   S    
C210  H134  S    
C19   C27   A    
C35   C129  S    
C201  H106  S    
C95   N15   A    
C196  H92   S    
C145  C153  A    
C33   C131  S    
C15   C23   A    
C209  H129  S    
C34   C132  S    
C16   C24   A    
C123  C129  A    
C1    N1    A    
C121  C131  A    
C122  C132  A    
C72   C88   A    
C194  H85   S    
C35   C59   A    
C172  H19   S    
C124  C130  A    
C201  H107  S    
C111  Cl47  S    
C214  H144  S    
C91   Cl19  S    
C14   O46   S    
C48   C80   A    
C18   Cl38  S    
C7    C135  A    
C89   Cl17  S    
C202  H108  S    
C211  H137  S    
C76   C112  A    
C62   Cl13  S    
C202  H109  S    
O9    C177  S    
C202  H110  S    
N22   Ni3   S    
C182  H49   S    
N12   N20   A    
C57   Cl10  S    
C9    C17   A    
C183  H51   S    
C120  Cl32  S    
O41   C209  S    
C54   O5    S    
C71   C87   A    
C174  H24   S    
C70   C86   A    
C88   C103  A    
C117  N21   A    
O16   C184  S    
C47   C55   A    
O25   C193  S    
C184  H56   S    
C61   C69   A    
C48   C56   A    
C122  O18   S    
C33   C57   A    
N11   N19   A    
C28   C148  A    
N9    N17   A    
C118  C142  A    
C37   C61   A    
N12   Ni5   S    
C39   C63   A    
C214  H145  S    
C40   C64   A    
N5    Ni3   S    
C60   Cl11  S    
C23   Cl35  S    
O12   C180  S    
C206  H122  S    
C100  O12   S    
C216  H151  S    
N18   Ni1   S    
C181  H46   S    
C198  H97   S    
C8    N8    A    
C16   C168  A    
N10   Ni6   S    
C103  O15   S    
C180  H43   S    
C207  H124  S    
C170  H14   S    
C200  H102  S    
C64   C72   A    
C96   N16   A    
C29   C149  A    
C145  O25   S    
C206  H120  S    
C118  Cl30  S    
C6    C134  A    
C190  H74   S    
C156  C164  A    
C26   C29   S    
C27   C147  A    
C36   C60   A    
C25   C145  A    
C114  Cl26  S    
C188  H66   S    
C20   Cl40  S    
C86   C101  A    
C97   O9    S    
C63   Cl16  S    
C116  C140  A    
C99   O11   S    
