data_mof_unit_64887.cif
_audit_creation_date              2012-12-10T18:10:04-0500
_audit_creation_method            fapswitch 2.2
_symmetry_space_group_name_H-M    P1
_symmetry_Int_Tables_number       1
_space_group_crystal_system       monoclinic
_cell_length_a                    18.381052
_cell_length_b                    18.381344
_cell_length_c                    32.008707
_cell_angle_alpha                 90.0
_cell_angle_beta                  90.0
_cell_angle_gamma                 89.999939
_cell_volume                      10814.7318971

loop_
_atom_site_label
_atom_site_type_symbol
_atom_type_description
_atom_site_fract_x
_atom_site_fract_y
_atom_site_fract_z
_atom_type_partial_charge
C1    C     C_R   0.639861 0.500019 0.000000 0.843619
C2    C     C_R   0.360139 0.500019 0.000000 0.843505
C3    C     C_R   0.139861 0.000019 0.500000 0.843513
C4    C     C_R   0.860139 0.000019 0.500000 0.843611
C5    C     C_3   0.500650 0.570894 0.736221 -0.460520
C6    C     C_3   0.500613 0.570895 0.263779 -0.460516
C7    C     C_3   0.999395 0.070895 0.236221 -0.460517
C8    C     C_3   0.999508 0.070896 0.763779 -0.460520
C9    C     C_1   0.499994 0.499694 0.837279 0.089129
C10   C     C_1   0.499995 0.499694 0.162720 0.089128
C11   C     C_1   0.000005 0.999694 0.337280 0.089129
C12   C     C_1   0.000004 0.999694 0.662720 0.089130
C13   C     C_1   0.500003 0.500611 0.662720 0.089020
C14   C     C_1   0.500003 0.500611 0.337280 0.089019
C15   C     C_1   0.999997 0.000611 0.162720 0.089020
C16   C     C_1   0.999998 0.000611 0.837280 0.089021
C17   C     C_1   0.717326 0.500051 0.000000 -0.165945
C18   C     C_1   0.282673 0.500051 0.000000 -0.166061
C19   C     C_1   0.217326 0.000051 0.500000 -0.166052
C20   C     C_1   0.782674 0.000051 0.500000 -0.165953
C21   C     C_1   0.782569 0.500043 0.000000 -0.166896
C22   C     C_1   0.217431 0.500043 0.000000 -0.167000
C23   C     C_1   0.282569 0.000043 0.500000 -0.166993
C24   C     C_1   0.717431 0.000043 0.500000 -0.166904
C25   C     C_R   0.500000 0.360017 0.500000 0.848493
C26   C     C_R   0.000000 0.860017 0.000000 0.848493
C27   C     C_R   0.500000 0.499912 0.580210 0.812840
C28   C     C_R   0.500000 0.499912 0.419790 0.812840
C29   C     C_R   1.000000 0.999912 0.080210 0.812840
C30   C     C_R   1.000000 0.999912 0.919790 0.812840
C31   C     C_R   0.500000 0.639715 0.500000 0.834975
C32   C     C_R   1.000000 0.139715 0.000000 0.834975
C33   C     C_R   0.000000 0.639923 0.000000 0.845984
C34   C     C_R   0.500000 0.139923 0.500000 0.845984
C35   C     C_R   0.860035 0.500016 0.000000 0.843928
C36   C     C_R   0.139965 0.500016 0.000000 0.843918
C37   C     C_R   0.360035 0.000016 0.500000 0.843919
C38   C     C_R   0.639965 0.000016 0.500000 0.843928
C39   C     C_R   0.500000 0.499998 0.919790 0.814835
C40   C     C_R   0.500000 0.499998 0.080210 0.814835
C41   C     C_R   0.000000 0.999998 0.419790 0.814835
C42   C     C_R   0.000000 0.999998 0.580210 0.814835
C43   C     C_R   1.000000 0.360019 0.000000 0.841670
C44   C     C_R   0.500000 0.860019 0.500000 0.841670
C45   C     C_1   0.500000 0.282582 0.500000 -0.160725
C46   C     C_1   0.000000 0.782582 0.000000 -0.160725
C47   C     C_1   0.000000 0.717358 0.000000 -0.162043
C48   C     C_1   0.500000 0.217358 0.500000 -0.162043
C49   C     C_1   0.500000 0.717231 0.500000 -0.173994
C50   C     C_1   1.000000 0.217230 0.000000 -0.173994
C51   C     C_1   1.000000 0.282502 0.000000 -0.173816
C52   C     C_1   0.500000 0.782502 0.500000 -0.173816
C53   C     C_3   0.558665 0.465424 0.736227 0.453523
C54   C     C_3   0.558684 0.465455 0.263773 0.453518
C55   C     C_3   0.440702 0.466511 0.736227 0.453506
C56   C     C_3   0.440719 0.466479 0.263773 0.453507
C57   C     C_3   0.059277 0.966472 0.236227 0.453508
C58   C     C_3   0.059222 0.966378 0.763773 0.453512
C59   C     C_3   0.941312 0.965462 0.236227 0.453519
C60   C     C_3   0.941257 0.965556 0.763773 0.453517
C61   C     C_3   0.559296 0.533872 0.763775 0.453948
C62   C     C_3   0.559279 0.533903 0.236225 0.453951
C63   C     C_3   0.441332 0.534958 0.763775 0.453945
C64   C     C_3   0.441313 0.534928 0.236225 0.453942
C65   C     C_3   0.058691 0.034921 0.263775 0.453942
C66   C     C_3   0.058745 0.034827 0.736225 0.453941
C67   C     C_3   0.940726 0.033910 0.263775 0.453952
C68   C     C_3   0.940779 0.034004 0.736225 0.453952
C69   C     C_1   0.499997 0.499928 0.874944 -0.155213
C70   C     C_1   0.499997 0.499928 0.125056 -0.155213
C71   C     C_1   0.000002 0.999928 0.374944 -0.155213
C72   C     C_1   0.000002 0.999928 0.625056 -0.155213
C73   C     C_1   0.500001 0.500236 0.625056 -0.154964
C74   C     C_1   0.500001 0.500237 0.374944 -0.154964
C75   C     C_1   0.999999 0.000237 0.125056 -0.154964
C76   C     C_1   0.999999 0.000236 0.874944 -0.154964
C77   C     C_3   0.499347 0.429490 0.763779 -0.461233
C78   C     C_3   0.499384 0.429489 0.236221 -0.461233
C79   C     C_3   0.000607 0.929489 0.263779 -0.461235
C80   C     C_3   0.000494 0.929489 0.736221 -0.461232
C81   C     C_3   0.499990 0.499234 0.791454 -0.068839
C82   C     C_3   0.499990 0.499234 0.208545 -0.068843
C83   C     C_3   0.000010 0.999234 0.291455 -0.068839
C84   C     C_3   0.000007 0.999234 0.708545 -0.068837
C85   C     C_3   0.500007 0.501148 0.708546 -0.069261
C86   C     C_3   0.500007 0.501148 0.291454 -0.069264
C87   C     C_3   0.999993 0.001148 0.208546 -0.069261
C88   C     C_3   0.999994 0.001148 0.791454 -0.069258
Cu1   Cu    Cu3+1 0.500000 0.427500 0.000000 0.965735
Cu2   Cu    Cu3+1 0.000000 0.927500 0.500000 0.965735
Cu3   Cu    Cu3+1 0.500000 0.572500 0.000000 0.996788
Cu4   Cu    Cu3+1 0.000000 0.072500 0.500000 0.996789
Cu5   Cu    Cu3+1 0.572520 0.499840 0.500000 0.982784
Cu6   Cu    Cu3+1 0.427480 0.499840 0.500000 0.983012
Cu7   Cu    Cu3+1 0.072520 0.999840 0.000000 0.982996
Cu8   Cu    Cu3+1 0.927480 0.999840 0.000000 0.982800
Cu9   Cu    Cu3+1 1.000000 0.500000 0.958560 0.973351
Cu10  Cu    Cu3+1 1.000000 0.500000 0.041440 0.973351
Cu11  Cu    Cu3+1 0.500000 0.000000 0.458560 0.973351
Cu12  Cu    Cu3+1 0.500000 0.000000 0.541440 0.973351
H1    H     H_    0.501173 0.627706 0.724496 0.169311
H2    H     H_    0.501106 0.627708 0.275504 0.169312
H3    H     H_    0.998909 0.127707 0.224496 0.169311
H4    H     H_    0.999112 0.127708 0.775504 0.169311
H5    H     H_    0.498824 0.372677 0.775503 0.170248
H6    H     H_    0.498891 0.372676 0.224497 0.170247
H7    H     H_    0.001094 0.872676 0.275503 0.170248
H8    H     H_    0.000890 0.872675 0.724497 0.170247
O1    O     O_R   0.605840 0.438770 0.000000 -0.584514
O2    O     O_R   0.394160 0.438770 0.000000 -0.584546
O3    O     O_R   0.105840 0.938770 0.500000 -0.584543
O4    O     O_R   0.894160 0.938770 0.500000 -0.584517
O5    O     O_R   0.000000 0.394210 0.965010 -0.585120
O6    O     O_R   0.000000 0.394210 0.034990 -0.585120
O7    O     O_R   0.500000 0.894210 0.465010 -0.585120
O8    O     O_R   0.500000 0.894210 0.534990 -0.585120
O9    O     O_R   0.605760 0.561230 0.000000 -0.577179
O10   O     O_R   0.394240 0.561230 0.000000 -0.577169
O11   O     O_R   0.105760 0.061230 0.500000 -0.577169
O12   O     O_R   0.894240 0.061230 0.500000 -0.577179
O13   O     O_R   0.500000 0.438780 0.939540 -0.586694
O14   O     O_R   0.500000 0.438780 0.060460 -0.586694
O15   O     O_R   0.000000 0.938780 0.439540 -0.586694
O16   O     O_R   0.000000 0.938780 0.560460 -0.586694
O17   O     O_R   0.500000 0.561230 0.939540 -0.569735
O18   O     O_R   0.500000 0.561230 0.060460 -0.569735
O19   O     O_R   0.000000 0.061230 0.439540 -0.569735
O20   O     O_R   0.000000 0.061230 0.560460 -0.569735
O21   O     O_R   0.561200 0.394070 0.500000 -0.578204
O22   O     O_R   0.438800 0.394070 0.500000 -0.578206
O23   O     O_R   0.061200 0.894070 0.000000 -0.578206
O24   O     O_R   0.938800 0.894070 0.000000 -0.578203
O25   O     O_R   0.561230 0.499860 0.560460 -0.576953
O26   O     O_R   0.561230 0.499860 0.439540 -0.576948
O27   O     O_R   0.438770 0.499860 0.560460 -0.576800
O28   O     O_R   0.438770 0.499860 0.439540 -0.576805
O29   O     O_R   0.061230 0.999860 0.060460 -0.576806
O30   O     O_R   0.061230 0.999860 0.939540 -0.576820
O31   O     O_R   0.938770 0.999860 0.060460 -0.576947
O32   O     O_R   0.938770 0.999860 0.939540 -0.576934
O33   O     O_R   0.561270 0.605640 0.500000 -0.583327
O34   O     O_R   0.438730 0.605640 0.500000 -0.583287
O35   O     O_R   0.061270 0.105640 0.000000 -0.583290
O36   O     O_R   0.938730 0.105640 0.000000 -0.583323
O37   O     O_R   0.000000 0.605780 0.965000 -0.580758
O38   O     O_R   0.000000 0.605780 0.035000 -0.580759
O39   O     O_R   0.500000 0.105780 0.465000 -0.580759
O40   O     O_R   0.500000 0.105780 0.535000 -0.580758
O41   O     O_R   0.894200 0.500000 0.965010 -0.582633
O42   O     O_R   0.894200 0.500000 0.034990 -0.582635
O43   O     O_R   0.105800 0.500000 0.965010 -0.582684
O44   O     O_R   0.105800 0.500000 0.034990 -0.582682
O45   O     O_R   0.394200 0.000000 0.465010 -0.582684
O46   O     O_R   0.394200 0.000000 0.534990 -0.582677
O47   O     O_R   0.605800 0.000000 0.465010 -0.582633
O48   O     O_R   0.605800 0.000000 0.534990 -0.582641
O49   O     O_3   0.621583 0.566666 0.781354 -0.569028
C89   C     C_3   0.660969 0.602791 0.749834 -0.281339
H9    H     H_    0.630433 0.650807 0.738098 0.158848
H10   H     H_    0.675201 0.565740 0.723603 0.189055
H11   H     H_    0.712682 0.622960 0.763424 0.185266
O50   O     O_3   0.621549 0.566730 0.218645 -0.569022
C90   C     C_3   0.660917 0.602875 0.250165 -0.281345
H12   H     H_    0.675169 0.565831 0.276396 0.189059
H13   H     H_    0.630356 0.650875 0.261903 0.158848
H14   H     H_    0.712619 0.623071 0.236575 0.185256
O51   O     O_3   0.379659 0.568895 0.781354 -0.568966
C91   C     C_3   0.340943 0.605735 0.749834 -0.281323
H15   H     H_    0.326025 0.568948 0.723606 0.189013
H16   H     H_    0.372358 0.653177 0.738093 0.158861
H17   H     H_    0.289612 0.626857 0.763425 0.185270
O52   O     O_3   0.379622 0.568832 0.218645 -0.568967
C92   C     C_3   0.340885 0.605651 0.250166 -0.281311
H18   H     H_    0.372276 0.653107 0.261910 0.158857
H19   H     H_    0.325983 0.568854 0.276392 0.189015
H20   H     H_    0.289546 0.626750 0.236574 0.185276
O53   O     O_3   0.120385 0.068818 0.281355 -0.568969
C93   C     C_3   0.159127 0.105630 0.249834 -0.281309
H21   H     H_    0.127742 0.153089 0.238089 0.158856
H22   H     H_    0.174027 0.068830 0.223609 0.189016
H23   H     H_    0.210468 0.126725 0.263426 0.185277
O54   O     O_3   0.120493 0.068625 0.718645 -0.568977
C94   C     C_3   0.159292 0.105378 0.750166 -0.281303
H24   H     H_    0.174127 0.068558 0.776394 0.189016
H25   H     H_    0.127983 0.152890 0.761907 0.158856
H26   H     H_    0.210669 0.126386 0.736575 0.185285
O55   O     O_3   0.878459 0.066744 0.281355 -0.569022
C95   C     C_3   0.839096 0.102894 0.249834 -0.281347
H27   H     H_    0.824839 0.065850 0.223604 0.189059
H28   H     H_    0.869662 0.150889 0.238097 0.158848
H29   H     H_    0.787396 0.123096 0.263424 0.185257
O56   O     O_3   0.878565 0.066938 0.718646 -0.569020
C96   C     C_3   0.839261 0.103150 0.750166 -0.281368
H30   H     H_    0.869904 0.151098 0.761903 0.158854
H31   H     H_    0.824945 0.066130 0.776397 0.189054
H32   H     H_    0.787593 0.123435 0.736576 0.185253
O57   O     O_3   0.620340 0.431484 0.718652 -0.567909
C97   C     C_3   0.659055 0.394653 0.750177 -0.281451
H33   H     H_    0.627638 0.347216 0.761924 0.158784
H34   H     H_    0.673974 0.431448 0.776402 0.188270
H35   H     H_    0.710384 0.373523 0.736589 0.185483
O58   O     O_3   0.620377 0.431548 0.281347 -0.567909
C98   C     C_3   0.659108 0.394732 0.249823 -0.281439
H36   H     H_    0.674001 0.431530 0.223595 0.188262
H37   H     H_    0.627718 0.347274 0.238082 0.158785
H38   H     H_    0.710454 0.373637 0.263409 0.185490
O59   O     O_3   0.378411 0.433713 0.718653 -0.567901
C99   C     C_3   0.339030 0.397594 0.750177 -0.281451
H39   H     H_    0.324804 0.434649 0.776408 0.188273
H40   H     H_    0.369566 0.349578 0.761914 0.158755
H41   H     H_    0.287313 0.377426 0.736592 0.185492
O60   O     O_3   0.378445 0.433649 0.281347 -0.567898
C100  C     C_3   0.339083 0.397509 0.249823 -0.281466
H42   H     H_    0.369644 0.349508 0.238087 0.158759
H43   H     H_    0.324838 0.434555 0.223591 0.188273
H44   H     H_    0.287376 0.377314 0.263407 0.185484
O61   O     O_3   0.121546 0.933635 0.218653 -0.567900
C101  C     C_3   0.160903 0.897490 0.250177 -0.281470
H45   H     H_    0.130337 0.849493 0.261913 0.158760
H46   H     H_    0.175153 0.934535 0.276409 0.188274
H47   H     H_    0.212608 0.877288 0.236593 0.185484
O62   O     O_3   0.121439 0.933442 0.781347 -0.567899
C102  C     C_3   0.160739 0.897235 0.749822 -0.281476
H48   H     H_    0.175048 0.934258 0.723591 0.188276
H49   H     H_    0.130096 0.849287 0.738085 0.158762
H50   H     H_    0.212410 0.876950 0.763407 0.185478
O63   O     O_3   0.879615 0.931562 0.218652 -0.567910
C103  C     C_3   0.840880 0.894752 0.250177 -0.281440
H51   H     H_    0.825991 0.931552 0.276405 0.188263
H52   H     H_    0.872264 0.847290 0.261918 0.158785
H53   H     H_    0.789532 0.873663 0.236591 0.185492
O64   O     O_3   0.879507 0.931753 0.781348 -0.567912
C104  C     C_3   0.840709 0.895011 0.749822 -0.281429
H54   H     H_    0.872019 0.847507 0.738073 0.158776
H55   H     H_    0.825867 0.931843 0.723600 0.188271
H56   H     H_    0.789334 0.873993 0.763411 0.185499

loop_
_geom_bond_atom_site_label_1
_geom_bond_atom_site_label_2
_ccdc_geom_bond_type
C15   C75   T    
C98   H36   S    
C67   C83   S    
Cu5   Cu6   S    
C30   O30   A    
Cu3   O18   S    
C2    C18   S    
Cu2   O15   S    
C57   C79   S    
C53   C77   S    
Cu7   Cu8   S    
Cu12  O8    S    
C38   O48   A    
C93   H23   S    
C80   C84   S    
C25   O21   A    
Cu8   O31   S    
C103  H52   S    
Cu9   Cu10  S    
C60   C88   S    
C102  H50   S    
C26   O24   A    
Cu10  O44   S    
C100  H42   S    
Cu7   O35   S    
C98   H37   S    
C5    C63   S    
Cu6   O22   S    
C40   C70   S    
C63   C81   S    
C95   H29   S    
C28   O26   A    
C14   C74   T    
C90   H13   S    
Cu4   O11   S    
C9    C69   T    
C56   O60   S    
Cu5   O25   S    
C94   H25   S    
C43   O6    A    
Cu11  O7    S    
C55   C77   S    
C11   C71   T    
C55   C85   S    
C65   C83   S    
C7    C65   S    
Cu1   O14   S    
C68   O56   S    
Cu1   O1    S    
C56   C78   S    
C12   C84   S    
C95   H28   S    
C6    C64   S    
C41   O19   A    
O54   C94   S    
C32   O35   A    
C89   H11   S    
C1    O1    A    
C43   C51   S    
C34   O40   A    
C58   C66   S    
C91   H17   S    
C7    C87   S    
C102  H48   S    
C44   O7    A    
C3    O3    A    
C99   H39   S    
C96   H31   S    
C55   C63   S    
C24   C38   S    
Cu3   O9    S    
C3    C19   S    
C97   H33   S    
C35   O42   A    
Cu2   O4    S    
Cu1   Cu3   S    
C59   O63   S    
C104  H54   S    
C58   C80   S    
Cu8   O24   S    
C5    C85   S    
Cu12  O48   S    
C63   O51   S    
C39   C69   S    
C66   O54   S    
C28   C74   S    
C7    H3    S    
Cu7   O23   S    
C53   C85   S    
C57   O61   S    
O57   C97   S    
C53   C61   S    
C38   O47   A    
C31   C49   S    
Cu5   O21   S    
C25   O22   A    
Cu4   O20   S    
C103  H51   S    
C67   O55   S    
C50   C51   T    
C92   H19   S    
C58   O62   S    
Cu2   Cu4   S    
C29   O31   A    
C98   H38   S    
C5    H1    S    
Cu7   O29   S    
C30   O32   A    
O58   C98   S    
C79   H7    S    
O59   C99   S    
C68   C84   S    
C37   O45   A    
C90   H14   S    
C14   C86   S    
C54   O58   S    
Cu5   O26   S    
C94   H26   S    
C59   C79   S    
O51   C91   S    
C54   C86   S    
C36   O44   A    
C54   C62   S    
C42   O16   A    
C28   O28   A    
O61   C101  S    
C92   H18   S    
C7    C67   S    
Cu1   O2    S    
C10   C82   S    
C8    C66   S    
C17   C21   T    
C57   C87   S    
O49   C89   S    
Cu11  O47   S    
C95   H27   S    
C8    C88   S    
Cu6   O34   S    
C31   O33   A    
C19   C23   T    
C94   H24   S    
C2    O10   A    
C56   C86   S    
C60   C68   S    
C61   O49   S    
Cu8   O36   S    
C104  H55   S    
C34   O39   A    
C78   C82   S    
C59   C67   S    
Cu6   O28   S    
O63   C103  S    
Cu1   O13   S    
C77   C81   S    
C96   H32   S    
C40   O18   A    
C97   H35   S    
C42   C72   S    
Cu6   O27   S    
Cu9   O43   S    
Cu3   O10   S    
C5    C61   S    
C1    O9    A    
C8    H4    S    
C64   C82   S    
C6    C62   S    
C3    O11   A    
O53   C93   S    
C21   C35   S    
C10   C70   T    
C91   H15   S    
C13   C73   T    
C8    C68   S    
C4    O4    A    
C40   O14   A    
C89   H9    S    
C33   C47   S    
Cu9   O37   S    
C34   C48   S    
C30   C76   S    
Cu9   O5    S    
Cu4   O19   S    
C25   C45   S    
Cu5   O33   S    
O52   C92   S    
C39   O17   A    
C101  H47   S    
C15   C87   S    
O50   C90   S    
Cu10  O42   S    
C45   C48   T    
Cu12  O46   S    
Cu11  O39   S    
C46   C47   T    
C2    O2    A    
Cu7   O30   S    
Cu2   O16   S    
Cu3   O17   S    
C60   C80   S    
C16   C76   T    
Cu2   O3    S    
C37   O46   A    
C101  H45   S    
C22   C36   S    
C49   C52   T    
C57   C65   S    
C53   O57   S    
C58   C88   S    
C44   C52   S    
Cu8   O32   S    
C93   H22   S    
C102  H49   S    
C36   O43   A    
C100  H44   S    
C29   C75   S    
C42   O20   A    
C29   O29   A    
C80   H8    S    
C1    C17   S    
C6    C86   S    
Cu11  Cu12  S    
C41   C71   S    
C101  H46   S    
C78   H6    S    
C91   H16   S    
C11   C83   S    
O56   C96   S    
C41   O15   A    
C31   O34   A    
C18   C22   T    
Cu4   O12   S    
C100  H43   S    
C27   O27   A    
C55   O59   S    
C61   C81   S    
C43   O5    A    
C79   C83   S    
C89   H10   S    
C60   O64   S    
C56   C64   S    
C62   O50   S    
C65   O53   S    
Cu12  O40   S    
C99   H41   S    
Cu11  O45   S    
C77   H5    S    
O64   C104  S    
C92   H20   S    
C23   C37   S    
C32   C50   S    
C6    H2    S    
C62   C82   S    
O62   C102  S    
C12   C72   T    
C104  H56   S    
C59   C87   S    
C64   O52   S    
C32   O36   A    
C90   H12   S    
Cu10  O6    S    
C33   O38   A    
C26   C46   S    
C66   C84   S    
C4    C20   S    
O55   C95   S    
O60   C100  S    
C44   O8    A    
C99   H40   S    
C96   H30   S    
Cu10  O38   S    
C27   O25   A    
C13   C85   S    
C16   C88   S    
Cu9   O41   S    
C39   O13   A    
C4    O12   A    
C97   H34   S    
C35   O41   A    
C27   C73   S    
C20   C24   T    
C103  H53   S    
C26   O23   A    
C33   O37   A    
C9    C81   S    
C93   H21   S    
C54   C78   S    
