data_mof_unit_48139.cif
_audit_creation_date              2013-03-05T16:45:24-0500
_audit_creation_method            fapswitch 2.2
_symmetry_space_group_name_H-M    P1
_symmetry_Int_Tables_number       1
_space_group_crystal_system       triclinic
_cell_length_a                    10.860674
_cell_length_b                    15.884101
_cell_length_c                    17.007381
_cell_angle_alpha                 93.153744
_cell_angle_beta                  92.062865
_cell_angle_gamma                 93.634238
_cell_volume                      2921.34741599

loop_
_atom_site_label
_atom_site_type_symbol
_atom_site_description
_atom_site_fract_x
_atom_site_fract_y
_atom_site_fract_z
_atom_type_partial_charge
O1    O     O_R   0.494300 0.420530 0.382500 -0.608123
O2    O     O_R   0.504600 0.563720 0.388950 -0.619039
C1    C     C_R   0.500953 0.492146 0.348493 0.782381
O3    O     O_R   0.312540 0.428400 0.496760 -0.618236
O4    O     O_R   0.322840 0.571590 0.503210 -0.584495
C2    C     C_R   0.260417 0.499611 0.505924 0.822971
Cu1   Cu    Cu3+1 0.493900 0.415220 0.496180 0.972977
Cu2   Cu    Cu3+1 0.506100 0.584780 0.503820 1.037193
O5    O     O_R   0.495400 0.436280 0.611050 -0.554694
O6    O     O_R   0.505700 0.579470 0.617500 -0.519613
O7    O     O_R   0.677160 0.428410 0.496790 -0.519872
O8    O     O_R   0.687460 0.571600 0.503240 -0.488127
C3    C     C_R   0.491771 0.507629 0.651109 0.918223
C4    C     C_R   0.740173 0.501182 0.499717 0.793874
C5    C     C_3   0.066288 0.454481 0.431913 -0.480967
H1    H     H_    0.105735 0.392514 0.423103 0.260918
H2    H     H_    0.097734 0.491346 0.381784 0.163953
C6    C     C_3   0.922370 0.442295 0.431970 0.359131
H3    H     H_    0.877152 0.405027 0.584165 0.187587
C7    C     C_3   0.067571 0.453853 0.583348 0.855363
C8    C     C_3   0.083949 0.594403 0.509869 -0.376759
C9    C     C_3   0.122085 0.500069 0.509859 -0.142963
H4    H     H_    0.127675 0.622608 0.458410 0.136632
C10   C     C_3   0.879119 0.504225 0.501412 -0.208416
C11   C     C_3   0.923954 0.468768 0.581981 -0.235466
C12   C     C_3   0.940428 0.598691 0.496505 0.341081
C13   C     C_R   0.499212 0.493389 0.261803 -0.204488
C14   C     C_R   0.575731 0.551849 0.222122 -0.147125
C15   C     C_R   0.569082 0.550150 0.139335 0.422794
C16   C     C_R   0.487922 0.491528 0.096444 0.172994
C17   C     C_R   0.408859 0.435497 0.135358 0.435899
C18   C     C_R   0.417819 0.435331 0.217750 -0.305798
C19   C     C_R   0.474530 0.431389 0.857896 0.381390
C20   C     C_R   0.497912 0.434769 0.777876 0.311936
C21   C     C_R   0.407150 0.494253 0.895475 0.118524
N1    N     N_2   0.494669 0.487278 0.013747 -0.125263
N2    N     N_2   0.394536 0.496653 0.978330 -0.136737
C22   C     C_R   0.463010 0.504143 0.735538 -0.320762
H5    H     H_    0.360306 0.389876 0.247361 0.163248
C23   C     C_R   0.385102 0.562298 0.770676 0.336023
C24   C     C_R   0.351760 0.554587 0.850137 -0.205630
N3    N     N_R   0.515260 0.712130 0.509560 -0.231251
C25   C     C_R   0.452388 0.754058 0.453535 0.065277
C26   C     C_R   0.461870 0.843796 0.453540 -0.173455
C27   C     C_R   0.538277 0.891390 0.511454 0.233096
C28   C     C_R   0.608865 0.847019 0.565063 -0.237299
C29   C     C_R   0.592838 0.756567 0.564928 0.580864
C30   C     C_R   0.565919 0.159378 0.536181 -0.421679
C31   C     C_R   0.570713 0.249461 0.535510 0.643704
C32   C     C_R   0.471576 0.109267 0.495111 0.270004
N4    N     N_2   0.555664 0.982400 0.511976 -0.171904
N5    N     N_2   0.458733 0.018857 0.498901 -0.173429
N6    N     N_R   0.484730 0.287850 0.490450 -0.251830
H6    H     H_    0.632118 0.127090 0.570210 0.206146
C33   C     C_R   0.392078 0.239342 0.448029 -0.006133
C34   C     C_R   0.383674 0.149580 0.450695 -0.155336
O9    O     O_3   0.891620 0.653221 0.556067 -0.495922
C35   C     C_3   0.924205 0.740981 0.550442 -0.074445
H7    H     H_    0.844125 0.772640 0.526764 0.181071
H8    H     H_    0.002740 0.755250 0.512101 0.148771
H9    H     H_    0.949161 0.769439 0.610350 0.141345
O10   O     O_3   0.130593 0.488293 0.654699 -0.617006
C36   C     C_3   0.096685 0.447338 0.723740 -0.266793
H10   H     H_    0.178104 0.418047 0.749092 0.138677
H11   H     H_    0.019098 0.398184 0.714342 0.143129
H12   H     H_    0.070653 0.495250 0.768932 0.208729
C37   C     C_2   0.871646 0.513637 0.653775 0.404861
H13   H     H_    0.783439 0.489827 0.674630 0.081035
O11   O     O_2   0.922799 0.576783 0.687417 -0.525571
O12   O     O_3   0.554943 0.368752 0.741035 -0.523315
C38   C     C_3   0.468225 0.298255 0.727270 -0.177050
H14   H     H_    0.510600 0.240909 0.746958 0.170743
H15   H     H_    0.445109 0.288522 0.663476 0.166782
H16   H     H_    0.378788 0.303178 0.757000 0.077761
O13   O     O_3   0.525563 0.368549 0.899620 -0.528358
C39   C     C_3   0.432372 0.309989 0.923346 -0.193876
H17   H     H_    0.337730 0.333394 0.923859 0.145722
H18   H     H_    0.456996 0.292271 0.983800 0.223182
H19   H     H_    0.430132 0.251488 0.884511 0.138039
O14   O     O_3   0.332003 0.375849 0.092221 -0.590447
C40   C     C_3   0.208253 0.395009 0.102111 -0.246169
H20   H     H_    0.192845 0.461221 0.087716 0.197966
H21   H     H_    0.179113 0.383476 0.162803 0.170113
H22   H     H_    0.148304 0.352639 0.060780 0.185574
O15   O     O_3   0.328085 0.617642 0.722983 -0.547011
C41   C     C_3   0.362968 0.702670 0.747085 -0.253228
H23   H     H_    0.440859 0.711412 0.791961 0.122258
H24   H     H_    0.282188 0.733723 0.770429 0.162402
H25   H     H_    0.389731 0.736351 0.694341 0.213850
O16   O     O_3   0.644998 0.604997 0.099254 -0.518220
C42   C     C_3   0.580971 0.677542 0.084931 -0.199678
H26   H     H_    0.554666 0.710195 0.140883 0.167410
H27   H     H_    0.497702 0.661789 0.045552 0.180503
H28   H     H_    0.642872 0.722452 0.054658 0.189210
C43   C     C_2   0.255256 0.607046 0.883529 0.414015
H29   H     H_    0.188442 0.633376 0.844589 0.108146
O17   O     O_2   0.247858 0.621008 0.954452 -0.529844
C44   C     C_2   0.664170 0.614541 0.264809 0.479290
H30   H     H_    0.638511 0.648738 0.317633 0.146001
O18   O     O_2   0.766524 0.630396 0.239716 -0.448398
O19   O     O_3   0.655219 0.302377 0.582206 -0.526641
C45   C     C_3   0.739983 0.260424 0.628488 -0.250421
H31   H     H_    0.797449 0.308194 0.665861 0.178036
H32   H     H_    0.802830 0.225149 0.590554 0.181301
H33   H     H_    0.692213 0.219054 0.669992 0.161726
C46   C     C_2   0.704834 0.894483 0.617971 0.388171
H34   H     H_    0.786382 0.864448 0.637216 0.065220
O20   O     O_2   0.693259 0.967311 0.641966 -0.528040
O21   O     O_3   0.668175 0.710583 0.611806 -0.523522
C47   C     C_3   0.659594 0.731344 0.693349 -0.263707
H35   H     H_    0.596059 0.781550 0.708254 0.105802
H36   H     H_    0.752935 0.751729 0.718730 0.179329
H37   H     H_    0.629182 0.673794 0.723206 0.194083
C48   C     C_2   0.295110 0.280172 0.402790 0.345667
H38   H     H_    0.315467 0.336198 0.371982 0.120337
O22   O     O_2   0.187924 0.251622 0.400401 -0.600263
C49   C     C_2   0.399721 0.887459 0.389331 0.546380
H39   H     H_    0.447641 0.940277 0.363013 0.053272
O23   O     O_2   0.293726 0.866240 0.366696 -0.490743
C50   C     C_2   0.286068 0.097009 0.403657 0.477864
H40   H     H_    0.261132 0.112687 0.344111 0.085744
O24   O     O_2   0.230256 0.037421 0.431799 -0.487168
C51   C     C_2   0.382893 0.705506 0.387727 0.522927
H41   H     H_    0.308593 0.659979 0.398292 0.084626
O25   O     O_2   0.408973 0.716408 0.319606 -0.583587
C52   C     C_2   0.860701 0.460365 0.352233 0.283423
H42   H     H_    0.761423 0.463471 0.347048 0.072674
O26   O     O_2   0.919896 0.467916 0.292992 -0.542026
O27   O     O_3   0.887569 0.357379 0.450923 -0.546217
C53   C     C_3   0.892888 0.295729 0.387853 -0.131925
H43   H     H_    0.908878 0.234097 0.412780 0.200707
H44   H     H_    0.968026 0.309863 0.346981 0.180675
H45   H     H_    0.802847 0.288919 0.354297 0.138651
O28   O     O_3   0.077204 0.364121 0.570690 -0.578156
C54   C     C_3   0.182895 0.329804 0.604247 -0.208636
H46   H     H_    0.259747 0.376706 0.622764 0.178595
H47   H     H_    0.217932 0.283745 0.560791 0.208729
H48   H     H_    0.155849 0.293687 0.655598 0.132203
C55   C     C_2   0.139190 0.648347 0.581069 0.543769
H49   H     H_    0.111896 0.637203 0.640056 0.198429
O29   O     O_2   0.213690 0.707647 0.572149 -0.577797
C56   C     C_2   0.912309 0.631303 0.414990 0.294760
H50   H     H_    0.970602 0.617471 0.366089 0.123932
O30   O     O_2   0.825076 0.674371 0.403700 -0.528729

loop_
_geom_bond_atom_site_label_1
_geom_bond_atom_site_label_2
_geom_bond_distance
_ccdc_geom_bond_type
C5    C6    1.562798 S    
C8    C12   1.573403 S    
C36   H11   1.112817 S    
O19   C45   1.412246 S    
C54   H48   1.109214 S    
C43   H29   1.083709 S    
C11   C37   1.525488 S    
C39   H19   1.108493 S    
C33   C34   1.426250 A    
C48   H38   1.072428 S    
O9    C35   1.425549 S    
C51   H41   1.075712 S    
C24   C43   1.488912 S    
O15   C41   1.413754 S    
C50   H40   1.085141 S    
C30   H6    1.079032 S    
O10   C36   1.422114 S    
C6    C10   1.598087 S    
C14   C15   1.405915 A    
C21   N2    1.419353 S    
C39   H18   1.108784 S    
C49   O23   1.221315 D    
C31   O19   1.398512 S    
C16   C17   1.405808 A    
O7    C4    1.303041 A    
C41   H24   1.108609 S    
C51   O25   1.221458 D    
Cu1   N6    2.016095 S    
C46   H34   1.081211 S    
C27   N4    1.445475 S    
C35   H8    1.111700 S    
C5    H1    1.103029 S    
C2    C9    1.506729 S    
C45   H33   1.110599 S    
C5    H2    1.112167 S    
C18   H5    1.081937 S    
C4    C10   1.505936 S    
O5    C3    1.293356 A    
C47   H35   1.111970 S    
C19   O13   1.388101 S    
C5    C9    1.558803 S    
C32   N5    1.439223 S    
O12   C38   1.420323 S    
C54   H46   1.107831 S    
C20   O12   1.383401 S    
C35   H9    1.108962 S    
C30   C32   1.398294 A    
C36   H12   1.108336 S    
O1    Cu1   1.940015 S    
C8    C9    1.579688 S    
C34   C50   1.488039 S    
O3    Cu1   1.994257 S    
C21   C24   1.412760 A    
C15   O16   1.385001 S    
C40   H21   1.111825 S    
C50   O24   1.220799 D    
Cu1   O7    1.987666 S    
C47   H36   1.109216 S    
N6    C33   1.383846 A    
N4    N5    1.252060 D    
C17   O14   1.382691 S    
C10   C11   1.582263 S    
O3    C2    1.300890 A    
C42   H26   1.113652 S    
C38   H15   1.105022 S    
C41   H23   1.115519 S    
C35   H7    1.106334 S    
C29   O21   1.389776 S    
O6    C3    1.306862 A    
C40   H20   1.114346 S    
C37   H13   1.086222 S    
O1    C1    1.303367 A    
C23   O15   1.387622 S    
C53   H44   1.111005 S    
O13   C39   1.415549 S    
C15   C16   1.396795 A    
C42   H27   1.112783 S    
C17   C18   1.401314 A    
Cu2   O8    1.994258 S    
C19   C20   1.396675 A    
C39   H17   1.115151 S    
C45   H32   1.111976 S    
C47   H37   1.107894 S    
C3    C22   1.483692 S    
C23   C24   1.421365 A    
C7    C9    1.597100 S    
C44   O18   1.221378 D    
C8    H4    1.112786 S    
C25   C26   1.422594 A    
C56   O30   1.219002 D    
C27   C28   1.415843 A    
C53   H45   1.110553 S    
N3    C25   1.377790 A    
C8    C55   1.526070 S    
Cu2   N3    2.015780 S    
C25   C51   1.479020 S    
C40   H22   1.109252 S    
C26   C27   1.417743 A    
O27   C53   1.417367 S    
C14   C44   1.479967 S    
C54   H47   1.105592 S    
C28   C29   1.436136 A    
N1    N2    1.245365 D    
C52   O26   1.221863 D    
C13   C18   1.402190 A    
C20   C22   1.413178 A    
O2    Cu2   1.963155 S    
C10   C12   1.610261 S    
O14   C40   1.410596 S    
C41   H25   1.107814 S    
C38   H16   1.116209 S    
C48   O22   1.220700 D    
C55   H49   1.077008 S    
C43   O17   1.220807 D    
O28   C54   1.416633 S    
C33   C48   1.484871 S    
C16   N1    1.409140 S    
C7    O28   1.440683 S    
C1    C13   1.475041 S    
O2    C1    1.293744 A    
O8    C4    1.287912 A    
C38   H14   1.108716 S    
C12   C56   1.533679 S    
C49   H39   1.085275 S    
C6    C52   1.540082 S    
C42   H28   1.109265 S    
C22   C23   1.414612 A    
C55   O29   1.221822 D    
O16   C42   1.411023 S    
O4    C2    1.295663 A    
C46   O20   1.220962 D    
C26   C49   1.489545 S    
C52   H42   1.083129 S    
C30   C31   1.429222 A    
C28   C46   1.490857 S    
C19   C21   1.413213 A    
C53   H43   1.109131 S    
N3    C29   1.374474 A    
C7    O10   1.435271 S    
C45   H31   1.107983 S    
H3    C11   1.106850 S    
C12   O9    1.434478 S    
C32   C34   1.403879 A    
C31   N6    1.379581 A    
Cu1   Cu2   2.683910 S    
C36   H10   1.109542 S    
Cu1   O5    1.963155 S    
Cu2   O6    1.940015 S    
C44   H30   1.078577 S    
C7    C11   1.591983 S    
C13   C14   1.421213 A    
O4    Cu2   1.987666 S    
C56   H50   1.084533 S    
C6    O27   1.434591 S    
C37   O11   1.218768 D    
O21   C47   1.415496 S    
