data_mof_unit_6578.cif
_audit_creation_date              2012-12-10T16:48:05-0500
_audit_creation_method            fapswitch 2.2
_symmetry_space_group_name_H-M    P1
_symmetry_Int_Tables_number       1
_space_group_crystal_system       triclinic
_cell_length_a                    15.828637
_cell_length_b                    8.622639
_cell_length_c                    7.453054
_cell_angle_alpha                 103.081241
_cell_angle_beta                  94.216082
_cell_angle_gamma                 92.180149
_cell_volume                      986.582273656

loop_
_atom_site_label
_atom_site_type_symbol
_atom_type_description
_atom_site_fract_x
_atom_site_fract_y
_atom_site_fract_z
_atom_type_partial_charge
C1    C     C_R   0.486316 0.199919 0.454099 0.853314
C2    C     C_R   0.489624 0.797961 0.546765 0.812688
C3    C     C_R   0.339980 0.499791 0.502289 0.797700
C4    C     C_R   0.660062 0.500118 0.497703 0.841045
C5    C     C_2   0.458614 0.032036 0.428289 -0.041497
C6    C     C_2   0.464446 0.962312 0.573330 -0.086572
C7    C     C_3   0.972317 0.390503 0.583790 0.219405
C8    C     C_3   0.028231 0.611065 0.416805 0.220048
C9    C     C_3   0.023270 0.356133 0.411546 -0.200365
C10   C     C_3   0.977213 0.645465 0.589010 -0.201100
C11   C     C_1   0.250572 0.500533 0.507127 -0.176392
C12   C     C_1   0.749634 0.499820 0.493033 -0.184427
C13   C     C_3   0.033494 0.534448 0.677917 -0.200002
C14   C     C_3   0.967007 0.467155 0.322625 -0.199629
C15   C     C_3   0.083342 0.501247 0.504752 0.107518
C16   C     C_3   0.917088 0.500249 0.495841 0.107895
C17   C     C_1   0.175052 0.500994 0.507755 -0.072073
C18   C     C_1   0.825252 0.499908 0.492664 -0.069468
Cu1   Cu    Cu3+1 0.509330 0.517380 0.684380 0.936791
Cu2   Cu    Cu3+1 0.490670 0.482620 0.315620 0.926933
H1    H     H_    0.043358 0.237547 0.340217 0.140558
H2    H     H_    0.957208 0.764108 0.660342 0.140872
H3    H     H_    0.938851 0.440589 0.177319 0.141961
H4    H     H_    0.061723 0.561082 0.823176 0.141574
H5    H     H_    0.429157 0.388076 0.951388 0.233203
H6    H     H_    0.568978 0.616632 0.049886 0.228945
N1    N     N_2   0.476600 0.456420 0.038510 -0.227848
N2    N     N_2   0.523400 0.543580 0.961490 -0.219628
O1    O     O_R   0.506070 0.286130 0.619780 -0.587670
O2    O     O_R   0.493930 0.713870 0.380220 -0.601965
O3    O     O_R   0.490300 0.256770 0.308360 -0.581285
O4    O     O_R   0.509700 0.743230 0.691640 -0.586794
O5    O     O_R   0.386960 0.514660 0.655680 -0.588536
O6    O     O_R   0.613040 0.485340 0.344320 -0.574755
O7    O     O_R   0.371190 0.485310 0.344260 -0.590883
O8    O     O_R   0.628810 0.514690 0.655740 -0.569045
C19   C     C_3   0.938135 0.264416 0.678749 -0.408639
C20   C     C_3   0.009721 0.176426 0.752898 -0.856135
H7    H     H_    0.046270 0.115143 0.638394 0.256175
H8    H     H_    0.053120 0.261185 0.856896 0.252993
H9    H     H_    0.982615 0.085581 0.820171 0.238505
H10   H     H_    0.901830 0.323281 0.794925 0.200894
H11   H     H_    0.894533 0.177359 0.577868 0.201234
C21   C     C_3   0.063264 0.736868 0.322368 -0.410458
C22   C     C_3   0.992363 0.825997 0.247808 -0.855593
H12   H     H_    0.948822 0.741849 0.143478 0.253231
H13   H     H_    0.955867 0.887867 0.362081 0.256630
H14   H     H_    0.020131 0.916454 0.180846 0.238218
H15   H     H_    0.107045 0.823287 0.423636 0.199274
H16   H     H_    0.099622 0.677577 0.206483 0.200969
C23   C     C_3   0.411380 0.947965 0.243751 -0.364818
C24   C     C_3   0.330519 0.030391 0.203321 -0.873705
H17   H     H_    0.287843 0.034208 0.315872 0.247920
H18   H     H_    0.344620 0.153584 0.189213 0.272531
H19   H     H_    0.296378 0.961942 0.072116 0.245350
H20   H     H_    0.454815 0.943702 0.133266 0.202090
H21   H     H_    0.388382 0.824431 0.240129 0.242247
C25   C     C_3   0.432266 0.040606 0.758286 -0.367896
C26   C     C_3   0.343610 0.102711 0.734383 -0.838258
H22   H     H_    0.343768 0.196132 0.653861 0.255123
H23   H     H_    0.297939 0.003101 0.662564 0.244605
H24   H     H_    0.321435 0.155969 0.871165 0.233387
H25   H     H_    0.425627 0.951582 0.842803 0.216246
H26   H     H_    0.478092 0.135019 0.839683 0.227364

loop_
_geom_bond_atom_site_label_1
_geom_bond_atom_site_label_2
_ccdc_geom_bond_type
C14   H3    S    
C21   H15   S    
C7    C13   S    
C8    C14   S    
C9    C14   S    
C4    O8    A    
C19   H11   S    
C19   C20   S    
C23   H21   S    
Cu2   N1    S    
C4    C12   S    
C6    C25   S    
H6    N2    S    
Cu1   Cu2   S    
C24   H19   S    
C3    O7    A    
C2    O2    A    
Cu2   O6    S    
C1    O1    A    
C7    C19   S    
C26   H22   S    
Cu2   O2    S    
C22   H12   S    
C10   H2    S    
C20   H8    S    
Cu1   N2    S    
C9    H1    S    
C2    C6    S    
C1    C5    S    
Cu1   O4    S    
C16   C18   S    
C7    C16   S    
C24   H18   S    
C8    C15   S    
C14   C16   S    
Cu1   O8    S    
C22   H13   S    
C13   C15   S    
C25   H26   S    
C5    C6    D    
Cu2   O3    S    
C4    O6    A    
C26   H23   S    
C3    C11   S    
C3    O5    A    
C12   C18   T    
C23   C24   S    
Cu1   O1    S    
C25   H25   S    
C1    O3    A    
C20   H7    S    
C21   C22   S    
C13   H4    S    
C20   H9    S    
C2    O4    A    
C23   H20   S    
Cu1   O5    S    
C22   H14   S    
C21   H16   S    
C19   H10   S    
C7    C9    S    
C11   C17   T    
C26   H24   S    
C10   C16   S    
C25   C26   S    
C15   C17   S    
Cu2   O7    S    
C10   C13   S    
C8    C10   S    
C5    C23   S    
C8    C21   S    
C9    C15   S    
C24   H17   S    
N1    N2    D    
H5    N1    S    
