data_mof_unit_27996.cif
_audit_creation_date              2012-10-26T18:44:08-0400
_audit_creation_method            fapswitch 2.2
_symmetry_space_group_name_H-M    P1
_symmetry_Int_Tables_number       1
_space_group_crystal_system       triclinic
_cell_length_a                    19.275208
_cell_length_b                    9.079322
_cell_length_c                    7.784455
_cell_angle_alpha                 89.982453
_cell_angle_beta                  90.000071
_cell_angle_gamma                 89.999934
_cell_volume                      1362.32486702

loop_
_atom_site_label
_atom_site_type_symbol
_atom_type_description
_atom_site_fract_x
_atom_site_fract_y
_atom_site_fract_z
_atom_type_partial_charge
C1    C     C_R   0.500000 0.220031 0.500040 0.571738
C2    C     C_R   0.254850 0.380097 0.427813 0.067265
C3    C     C_R   0.181903 0.619791 0.572089 0.094640
C4    C     C_R   0.818097 0.380210 0.427900 0.094640
C5    C     C_R   0.818097 0.619790 0.572098 0.094641
C6    C     C_R   0.181903 0.380209 0.427901 0.094640
C7    C     C_R   0.145832 0.500000 0.499994 -0.007967
C8    C     C_R   0.854168 0.500000 0.499998 -0.007967
C9    C     C_R   0.291134 0.499999 0.499999 -0.016092
C10   C     C_R   0.708866 0.500000 0.500000 -0.016093
C11   C     C_R   0.929988 0.500000 0.499996 0.367741
C12   C     C_R   0.500000 0.779969 0.499960 0.571737
C13   C     C_R   0.070012 0.499999 0.499995 0.367741
C14   C     C_R   0.367147 0.500000 0.500000 0.572969
C15   C     C_R   0.632853 0.500000 0.500000 0.572969
C16   C     C_1   0.500000 0.065392 0.500055 0.017677
C17   C     C_1   0.500000 0.934608 0.499945 0.017677
C18   C     C_R   0.254849 0.619902 0.572182 0.067265
C19   C     C_R   0.745150 0.380098 0.427811 0.067266
C20   C     C_R   0.745150 0.619901 0.572190 0.067265
Cu1   Cu    Cu3+1 0.500000 0.500000 0.669080 1.112938
Cu2   Cu    Cu3+1 0.500000 0.500000 0.330920 1.112938
I1    I     I_    0.310742 0.804439 0.673764 -0.204393
I2    I     I_    0.689257 0.195560 0.326229 -0.204393
I3    I     I_    0.689257 0.804435 0.673779 -0.204392
I4    I     I_    0.310744 0.195560 0.326233 -0.204394
I5    I     I_    0.124943 0.802354 0.675136 -0.105632
I6    I     I_    0.875055 0.197650 0.324842 -0.105632
I7    I     I_    0.875055 0.802350 0.675153 -0.105633
I8    I     I_    0.124945 0.197648 0.324846 -0.105632
N1    N     N_1   0.500000 0.500000 0.076820 -0.058507
N2    N     N_1   0.500000 0.500000 0.923180 -0.058507
N3    N     N_R   0.034509 0.526032 0.352682 -0.158503
N4    N     N_R   0.965491 0.473967 0.647309 -0.158503
N5    N     N_R   0.965490 0.526032 0.352682 -0.158503
N6    N     N_R   0.034510 0.473967 0.647308 -0.158504
O1    O     O_R   0.500000 0.288390 0.642760 -0.494289
O2    O     O_R   0.500000 0.711610 0.357240 -0.494289
O3    O     O_R   0.500000 0.711610 0.642760 -0.484385
O4    O     O_R   0.500000 0.288390 0.357240 -0.484385
O5    O     O_R   0.400140 0.500000 0.642830 -0.484287
O6    O     O_R   0.599860 0.500000 0.357170 -0.484287
O7    O     O_R   0.599860 0.500000 0.642830 -0.484287
O8    O     O_R   0.400140 0.500000 0.357170 -0.484287

loop_
_geom_bond_atom_site_label_1
_geom_bond_atom_site_label_2
_ccdc_geom_bond_type
C12   C17   S    
C5    C8    A    
C9    C14   S    
C13   N3    A    
C6    C7    A    
N4    N6    A    
N1    N2    T    
Cu1   O3    S    
C1    O1    A    
C10   C19   A    
C4    C8    A    
Cu2   O4    S    
C12   O3    A    
C3    I5    S    
C19   I2    S    
C15   O7    A    
C2    I4    S    
C1    C16   S    
C2    C6    A    
Cu1   Cu2   S    
C4    C19   A    
Cu2   O6    S    
C13   N6    A    
C8    C11   S    
Cu1   O5    S    
C11   N5    A    
N3    N5    A    
C3    C7    A    
C10   C15   S    
C14   O5    A    
C12   O2    A    
Cu1   N2    S    
Cu2   N1    S    
C18   I1    S    
Cu2   O2    S    
C5    I7    S    
C9    C18   A    
C7    C13   S    
Cu1   O1    S    
C3    C18   A    
C14   O8    A    
C20   I3    S    
C5    C20   A    
C1    O4    A    
C4    I6    S    
Cu1   O7    S    
C2    C9    A    
C6    I8    S    
C11   N4    A    
Cu2   O8    S    
C15   O6    A    
C10   C20   A    
C16   C17   T    
