data_mof_unit_30061.cif
_audit_creation_date              2012-12-11T14:25:51-0500
_audit_creation_method            fapswitch 2.2
_symmetry_space_group_name_H-M    P1
_symmetry_Int_Tables_number       1
_space_group_crystal_system       triclinic
_cell_length_a                    7.008805
_cell_length_b                    14.790855
_cell_length_c                    16.207973
_cell_angle_alpha                 90.417601
_cell_angle_beta                  89.370191
_cell_angle_gamma                 90.010537
_cell_volume                      1680.07312642

loop_
_atom_site_label
_atom_site_type_symbol
_atom_type_description
_atom_site_fract_x
_atom_site_fract_y
_atom_site_fract_z
_atom_type_partial_charge
O1    O     O_R   0.494490 0.416160 0.413410 -0.535040
O2    O     O_R   0.823830 0.407240 0.585990 -0.545865
O3    O     O_R   0.994160 0.583840 0.586590 -0.502908
C1    C     C_R   0.653421 0.385152 0.612950 0.744018
O4    O     O_R   0.824200 0.405280 0.414020 -0.541649
O5    O     O_R   0.994530 0.581860 0.413390 -0.527986
C2    C     C_R   0.656432 0.383207 0.386398 0.708426
O6    O     O_R   0.494110 0.418140 0.586610 -0.541828
O7    O     O_3   0.660810 0.557940 0.500000 -0.360778
V1    V     V_3+5 0.935650 0.489250 0.500000 1.539899
O8    O     O_R   0.324250 0.592760 0.414010 -0.555044
C3    C     C_R   0.156250 0.613746 0.385440 0.784946
O9    O     O_R   0.323880 0.594720 0.585980 -0.555896
C4    C     C_R   0.154054 0.617424 0.613552 0.782651
V2    V     V_3+5 0.435660 0.510750 0.500000 1.489888
O10   O     O_3   0.160630 0.442060 0.500000 -0.379007
C5    C     C_3   0.998068 0.651448 0.752239 -0.363623
H1    H     H_    0.851870 0.654604 0.726880 0.219102
H2    H     H_    0.024755 0.578659 0.764391 0.173871
C6    C     C_3   0.010106 0.708043 0.834709 0.714198
H3    H     H_    0.887090 0.857640 0.732958 0.290364
C7    C     C_3   0.082115 0.782654 0.654144 0.299669
C8    C     C_3   0.335459 0.699805 0.724904 -0.339088
C9    C     C_3   0.139636 0.685976 0.683787 -0.173545
H4    H     H_    0.442093 0.721513 0.678676 0.207514
H5    H     H_    0.389283 0.635301 0.749652 0.253538
C10   C     C_3   0.115789 0.801014 0.812904 -0.249067
C11   C     C_3   0.039444 0.843368 0.730624 -0.348355
C12   C     C_3   0.321739 0.774937 0.791658 -0.322033
H6    H     H_    0.387657 0.751222 0.848621 0.288742
H7    H     H_    0.394045 0.836428 0.767463 0.212999
H8    H     H_    0.208807 0.812508 0.622298 0.104104
H9    H     H_    0.109000 0.910039 0.720543 0.185091
C13   C     C_2   0.988300 0.707340 0.281553 -0.075002
C14   C     C_2   0.151802 0.680702 0.317684 -0.247751
H10   H     H_    0.853773 0.679346 0.303309 0.141689
H11   H     H_    0.288090 0.707895 0.297923 0.123935
C15   C     C_2   0.974895 0.774227 0.213049 -0.091203
C16   C     C_2   0.125811 0.812856 0.175071 -0.226481
H12   H     H_    0.832139 0.791781 0.193275 0.147783
H13   H     H_    0.269522 0.795864 0.193245 0.130716
C17   C     C_2   0.751070 0.187073 0.758199 0.431816
C18   C     C_2   0.625940 0.187092 0.823247 0.084037
C19   C     C_2   0.779572 0.267327 0.705084 -0.122174
C20   C     C_2   0.632183 0.313635 0.674880 -0.265580
H14   H     H_    0.923355 0.281709 0.683163 0.164745
H15   H     H_    0.487491 0.294282 0.691818 0.186946
C21   C     C_2   0.764641 0.189410 0.228757 0.326746
C22   C     C_2   0.605678 0.172149 0.183672 0.110172
C23   C     C_2   0.756578 0.243650 0.307969 0.344862
C24   C     C_2   0.650516 0.320589 0.315029 -0.347388
H16   H     H_    0.563996 0.342814 0.263991 0.151583
O11   O     O_R   0.770850 0.076180 0.907410 -0.515606
O12   O     O_R   0.440600 0.088970 0.079950 -0.560857
O13   O     O_R   0.270430 0.912340 0.080550 -0.544736
C25   C     C_R   0.607649 0.109796 0.109667 0.666584
O14   O     O_R   0.441120 0.087010 0.907980 -0.539257
O15   O     O_R   0.270950 0.910370 0.907350 -0.553649
C26   C     C_R   0.611178 0.109514 0.881015 0.723070
O16   O     O_R   0.770320 0.078150 0.080620 -0.522367
O17   O     O_3   0.604200 0.936340 0.994000 -0.383412
V3    V     V_3+5 0.329300 0.004970 0.993950 1.553683
O18   O     O_R   0.941240 0.899420 0.907920 -0.500253
C27   C     C_R   0.110066 0.873736 0.882015 0.853100
O19   O     O_R   0.940720 0.901380 0.079890 -0.533711
C28   C     C_R   0.109398 0.879926 0.107975 0.796494
V4    V     V_3+5 0.829310 0.983370 0.993880 1.647079
O20   O     O_3   0.104280 0.052120 0.993920 -0.370742
S1    S     S_3+6 0.880963 0.089783 0.727810 -0.021655
O21   O     O_2   0.046459 0.076679 0.784702 -0.362021
O22   O     O_2   0.750463 0.009364 0.731700 -0.346411
O23   O     O_3   0.963751 0.101690 0.630688 -0.482818
H17   H     H_    0.040362 0.046569 0.619628 0.389337
O24   O     O_3   0.521558 0.264625 0.840193 -0.639017
H18   H     H_    0.447073 0.255721 0.891850 0.305583
O25   O     O_3   0.935686 0.149965 0.204929 -0.646554
H19   H     H_    0.036752 0.170952 0.242768 0.333957
O26   O     O_3   0.432924 0.205797 0.212760 -0.662088
H20   H     H_    0.336596 0.201947 0.168742 0.309203
O27   O     O_3   0.867711 0.212436 0.372010 -0.617447
H21   H     H_    0.819347 0.237056 0.425228 0.309786
S2    S     S_3+6 0.127652 0.641265 0.914610 0.056066
O28   O     O_2   0.286291 0.583787 0.880215 -0.314316
O29   O     O_2   0.205770 0.703159 0.980051 -0.350601
O30   O     O_3   0.968976 0.570793 0.959075 -0.433202
H22   H     H_    0.036173 0.545122 0.006995 0.372291
S3    S     S_3+6 0.774371 0.725223 0.875590 0.034171
O31   O     O_2   0.655594 0.642723 0.859110 -0.290931
O32   O     O_2   0.777792 0.742147 0.967293 -0.297772
O33   O     O_3   0.683009 0.815298 0.829358 -0.562401
H23   H     H_    0.618933 0.850951 0.873003 0.363208
S4    S     S_3+6 0.899392 0.790539 0.577144 0.006019
O34   O     O_2   0.821242 0.885171 0.576196 -0.289102
O35   O     O_2   0.986511 0.769813 0.494081 -0.349914
O36   O     O_3   0.720633 0.718104 0.595121 -0.512804
H24   H     H_    0.626291 0.731111 0.551700 0.357255

loop_
_geom_bond_atom_site_label_1
_geom_bond_atom_site_label_2
_ccdc_geom_bond_type
O15   V3    S    
S3    O31   D    
C6    S3    S    
C6    S2    S    
C10   C12   S    
C21   O25   S    
O36   H24   S    
C1    O6    A    
O11   C26   A    
O14   V3    S    
C16   H13   S    
O30   H22   S    
C7    H8    S    
C8    C12   S    
C14   H11   S    
O5    C3    A    
C15   C16   D    
O14   C26   A    
V2    O10   S    
O13   V3    S    
C5    C6    S    
C22   O26   S    
C13   C14   D    
C8    H5    S    
C4    C9    S    
S1    O22   D    
O8    V2    S    
O16   V4    S    
O19   V4    S    
C8    C9    S    
O1    V2    S    
O7    V1    S    
C18   C26   S    
C18   O24   S    
C21   C23   S    
C13   C15   S    
O9    C4    A    
S1    O21   D    
C17   C19   S    
C19   H14   S    
C5    H1    S    
O12   C25   A    
C1    C20   S    
C20   H15   S    
O15   C27   A    
O18   V4    S    
C5    C9    S    
O24   H18   S    
V4    O20   S    
O25   H19   S    
O4    C2    A    
O26   H20   S    
O27   H21   S    
O12   V3    S    
C17   S1    S    
C24   H16   S    
S1    O23   S    
O2    C1    A    
C12   H6    S    
O17   V4    S    
S4    O35   D    
C23   C24   D    
C3    C14   S    
O3    C4    A    
C21   C22   D    
H3    C11   S    
C11   H9    S    
O19   C28   A    
O6    V2    S    
S2    O29   D    
S3    O32   D    
C16   C28   S    
C7    C9    S    
C17   C18   D    
S2    O30   S    
O13   C28   A    
C19   C20   D    
O1    C2    A    
O23   H17   S    
C23   O27   S    
O5    V1    S    
O8    C3    A    
C6    C10   S    
C22   C25   S    
V3    O20   S    
O9    V2    S    
O7    V2    S    
C2    C24   S    
O4    V1    S    
C12   H7    S    
O3    V1    S    
V1    O10   S    
C15   H12   S    
O33   H23   S    
S4    O34   D    
C5    H2    S    
C13   H10   S    
S4    O36   S    
O17   V3    S    
O11   V4    S    
C10   C27   S    
O18   C27   A    
C25   O16   A    
C8    H4    S    
S2    O28   D    
S3    O33   S    
C10   C11   S    
C7    S4    S    
C7    C11   S    
O2    V1    S    
