data_mof_unit_50340.cif
_audit_creation_date              2012-10-26T21:14:52-0400
_audit_creation_method            fapswitch 2.2
_symmetry_space_group_name_H-M    P1
_symmetry_Int_Tables_number       1
_space_group_crystal_system       triclinic
_cell_length_a                    15.090649
_cell_length_b                    10.809603
_cell_length_c                    13.681111
_cell_angle_alpha                 89.868831
_cell_angle_beta                  90.223583
_cell_angle_gamma                 89.612956
_cell_volume                      2231.64262591

loop_
_atom_site_label
_atom_site_type_symbol
_atom_type_description
_atom_site_fract_x
_atom_site_fract_y
_atom_site_fract_z
_atom_type_partial_charge
C1    C     C_R   0.497622 0.262180 0.499986 0.540206
C2    C     C_R   0.590269 0.876809 0.660557 0.047446
C3    C     C_R   0.440652 0.111291 0.243167 -0.102530
C4    C     C_R   0.559353 0.888708 0.756832 -0.102529
C5    C     C_R   0.398205 0.174636 0.166802 -0.116520
C6    C     C_R   0.601803 0.825362 0.833194 -0.116519
C7    C     C_R   0.324502 0.249655 0.185901 -0.099418
C8    C     C_R   0.675505 0.750343 0.814090 -0.099416
C9    C     C_R   0.464292 0.933966 0.421716 -0.160799
C10   C     C_R   0.535702 0.066034 0.578285 -0.160804
C11   C     C_R   0.504628 0.871698 0.500050 -0.002499
C12   C     C_R   0.502376 0.737819 0.500014 0.540210
C13   C     C_R   0.495368 0.128302 0.499950 -0.002503
C14   C     C_R   0.542039 0.937985 0.578769 -0.031417
C15   C     C_R   0.457957 0.062015 0.421231 -0.031417
C16   C     C_R   0.328635 0.502571 0.499646 0.560559
C17   C     C_R   0.671365 0.497435 0.500353 0.560558
C18   C     C_R   0.552972 0.418219 0.793651 0.037189
C19   C     C_R   0.447030 0.581783 0.206349 0.037192
C20   C     C_R   0.447149 0.581911 0.792884 0.045821
C21   C     C_R   0.552850 0.418089 0.207116 0.045823
C22   C     C_R   0.446035 0.584098 0.895974 -0.017710
C23   C     C_R   0.051027 0.383005 0.650695 -0.137247
C24   C     C_R   0.553965 0.415902 0.104026 -0.017710
C25   C     C_R   0.500058 0.500071 0.948166 0.050204
C26   C     C_R   0.499943 0.499930 0.051834 0.050203
C27   C     C_R   0.554154 0.416129 0.896738 -0.021368
C28   C     C_R   0.445848 0.583872 0.103261 -0.021368
C29   C     C_R   0.392427 0.667893 0.947876 -0.153310
C30   C     C_R   0.607574 0.332108 0.052123 -0.153310
C31   C     C_R   0.392275 0.667716 0.050619 -0.154200
C32   C     C_R   0.607727 0.332286 0.949381 -0.154201
C33   C     C_R   0.812963 0.552778 0.425478 -0.179476
C34   C     C_R   0.948971 0.617028 0.349312 -0.137247
C35   C     C_R   0.187034 0.447262 0.574534 -0.179472
C36   C     C_R   0.768063 0.494080 0.501425 0.006336
C37   C     C_R   0.231935 0.505935 0.498576 0.006333
C38   C     C_R   0.815239 0.435165 0.578056 0.118495
C39   C     C_R   0.184758 0.564830 0.421935 0.118487
C40   C     C_R   0.908785 0.437447 0.577946 0.020568
C41   C     C_R   0.091212 0.562570 0.422055 0.020573
C42   C     C_R   0.953365 0.498427 0.500779 0.035857
C43   C     C_R   0.046632 0.501607 0.499229 0.035860
C44   C     C_R   0.904929 0.555991 0.424824 0.001441
C45   C     C_R   0.292432 0.260350 0.281239 -0.088862
C46   C     C_R   0.095068 0.444047 0.575187 0.001438
C47   C     C_R   0.959011 0.379116 0.651993 -0.137804
C48   C     C_R   0.040987 0.620898 0.348006 -0.137812
C49   C     C_3   0.750588 0.243797 0.633888 -0.300824
C50   C     C_3   0.249395 0.756162 0.366005 -0.300830
C51   C     C_R   0.707571 0.739649 0.718750 -0.088861
C52   C     C_R   0.334505 0.196925 0.357783 -0.057351
C53   C     C_R   0.665494 0.803076 0.642210 -0.057355
C54   C     C_R   0.409732 0.123191 0.339440 0.047447
Cu1   Cu    Cu3+1 0.500010 0.499980 0.597420 0.942813
Cu2   Cu    Cu3+1 0.499990 0.500020 0.402580 0.942813
H1    H     H_    0.775909 0.598357 0.367410 0.125899
H2    H     H_    0.649399 0.266490 0.090968 0.102174
H3    H     H_    0.350304 0.733155 0.088893 0.100574
H4    H     H_    0.649699 0.266847 0.911107 0.100576
H5    H     H_    0.928322 0.329374 0.711356 0.111272
H6    H     H_    0.071678 0.670623 0.288634 0.111279
H7    H     H_    0.087902 0.337642 0.708893 0.106833
H8    H     H_    0.912097 0.662391 0.291114 0.106833
H9    H     H_    0.292297 0.299542 0.126833 0.106922
H10   H     H_    0.707713 0.700454 0.873156 0.106923
H11   H     H_    0.235348 0.318465 0.295973 0.112021
H12   H     H_    0.224086 0.401694 0.632609 0.125905
H13   H     H_    0.764653 0.681534 0.704012 0.112025
H14   H     H_    0.309549 0.206935 0.431498 0.091611
H15   H     H_    0.690447 0.793066 0.568492 0.091607
H16   H     H_    0.498634 0.055196 0.227663 0.099167
H17   H     H_    0.501372 0.944803 0.772340 0.099168
H18   H     H_    0.423036 0.166623 0.092949 0.111613
H19   H     H_    0.576976 0.833373 0.907049 0.111613
H20   H     H_    0.789120 0.390321 0.723588 0.235362
H21   H     H_    0.813802 0.191157 0.627825 0.136807
H22   H     H_    0.712004 0.234028 0.565026 0.158266
H23   H     H_    0.434827 0.882489 0.362080 0.118187
H24   H     H_    0.711380 0.203972 0.694649 0.119869
H25   H     H_    0.210874 0.609553 0.276383 0.235366
H26   H     H_    0.186176 0.808800 0.372008 0.136791
H27   H     H_    0.288622 0.795931 0.305237 0.119859
H28   H     H_    0.287952 0.766003 0.434879 0.158260
H29   H     H_    0.565164 0.117510 0.637923 0.118189
H30   H     H_    0.594070 0.354367 0.752971 0.134155
H31   H     H_    0.405934 0.645637 0.247029 0.134151
H32   H     H_    0.406008 0.645855 0.751602 0.123873
H33   H     H_    0.593991 0.354144 0.248398 0.123873
H34   H     H_    0.350602 0.733511 0.909032 0.102175
N1    N     N_R   0.499960 0.499900 0.743810 -0.235268
N2    N     N_R   0.500040 0.500100 0.256190 -0.235267
N3    N     N_2   0.767830 0.372896 0.653325 -0.508173
N4    N     N_2   0.232166 0.627042 0.346637 -0.508161
O1    O     O_R   0.500000 0.319630 0.582270 -0.515236
O2    O     O_R   0.500000 0.680370 0.417730 -0.515241
O3    O     O_R   0.499990 0.319660 0.417730 -0.495476
O4    O     O_R   0.500010 0.680340 0.582270 -0.495474
O5    O     O_R   0.370260 0.499960 0.582280 -0.520266
O6    O     O_R   0.629740 0.500040 0.417720 -0.520265
O7    O     O_R   0.370250 0.499990 0.417740 -0.465772
O8    O     O_R   0.629750 0.500010 0.582260 -0.465780

loop_
_geom_bond_atom_site_label_1
_geom_bond_atom_site_label_2
_ccdc_geom_bond_type
C40   C47   A    
C38   C40   A    
Cu1   Cu2   S    
C10   H29   S    
C8    H10   S    
C22   C29   A    
C50   H28   S    
C6    H19   S    
C39   C41   A    
C21   H33   S    
Cu1   O8    S    
C18   H30   S    
C18   N1    A    
C7    C45   A    
C35   C37   A    
C24   C26   A    
Cu2   O7    S    
C19   H31   S    
C3    C54   A    
C30   H2    S    
C33   C36   A    
C49   H22   S    
Cu1   O4    S    
C9    H23   S    
C31   H3    S    
C5    H18   S    
Cu1   N1    S    
C19   N2    A    
C22   C25   A    
C45   H11   S    
C17   C36   S    
C12   O4    A    
C16   C37   S    
C40   C42   A    
C23   C46   A    
C41   C43   A    
C42   C44   A    
Cu2   O3    S    
C29   H34   S    
C17   O6    A    
C52   C54   A    
C50   H27   S    
C20   N1    A    
C23   C47   A    
C15   C54   S    
C34   C44   A    
Cu1   O1    S    
C10   C14   A    
C1    O3    A    
C5    C7    A    
C50   N4    S    
C6    C8    A    
C45   C52   A    
C25   C26   A    
C2    C53   A    
C51   C53   A    
C2    C4    A    
C17   O8    A    
C39   N4    S    
H20   N3    S    
C7    H9    S    
C48   H6    S    
C1    O1    A    
C34   H8    S    
C19   C28   A    
C9    C11   A    
C8    C51   A    
C4    H17   S    
C4    C6    A    
C20   C22   A    
C13   C15   A    
C1    C13   S    
C42   C43   A    
C32   H4    S    
C53   H15   S    
C50   H26   S    
Cu2   O2    S    
C33   H1    S    
C27   C32   A    
C33   C44   A    
C28   C31   A    
C18   C27   A    
C3    C5    A    
C10   C13   A    
C47   H5    S    
C11   C12   S    
C16   O5    A    
C25   C27   A    
C26   C28   A    
C49   H24   S    
C36   C38   A    
C3    H16   S    
C9    C15   A    
C37   C39   A    
C30   C32   A    
H25   N4    S    
C35   H12   S    
C20   H32   S    
C38   N3    S    
C23   H7    S    
C11   C14   A    
C41   C48   A    
C49   H21   S    
C2    C14   S    
C43   C46   A    
C24   C30   A    
C52   H14   S    
C16   O7    A    
Cu2   N2    S    
C34   C48   A    
C29   C31   A    
C21   C24   A    
Cu1   O5    S    
Cu2   O6    S    
C12   O2    A    
C51   H13   S    
C49   N3    S    
C35   C46   A    
C21   N2    A    
