data_mof_unit_27830.cif
_audit_creation_date              2012-12-11T14:56:23-0500
_audit_creation_method            fapswitch 2.2
_symmetry_space_group_name_H-M    P1
_symmetry_Int_Tables_number       1
_space_group_crystal_system       triclinic
_cell_length_a                    10.565926
_cell_length_b                    10.747773
_cell_length_c                    17.106897
_cell_angle_alpha                 79.839534
_cell_angle_beta                  90.031455
_cell_angle_gamma                 118.562985
_cell_volume                      1671.55926782

loop_
_atom_site_label
_atom_site_type_symbol
_atom_type_description
_atom_site_fract_x
_atom_site_fract_y
_atom_site_fract_z
_atom_type_partial_charge
C1    C     C_R   0.276858 0.886857 0.132927 0.545547
C2    C     C_1   0.655691 0.350423 0.708049 0.005809
C3    C     C_R   0.628715 0.716247 0.807384 -0.160596
C4    C     C_R   0.638035 0.284628 0.084270 0.563856
C5    C     C_R   0.602936 0.696894 0.730287 0.123805
C6    C     C_R   0.668039 0.818001 0.666713 0.026628
C7    C     C_R   0.750926 0.956220 0.682013 -0.168881
C8    C     C_R   0.762236 0.977161 0.759970 0.095778
C9    C     C_R   0.694623 0.855156 0.823262 0.019538
C10   C     C_R   0.198253 0.948345 0.760467 0.126947
C11   C     C_R   0.229743 0.944730 0.682701 0.115213
C12   C     C_R   0.814431 0.454256 0.252722 -0.150714
C13   C     C_R   0.167487 0.809682 0.661774 -0.060486
C14   C     C_R   0.125968 0.683948 0.722644 -0.019670
C15   C     C_R   0.138305 0.697951 0.803144 0.101655
C16   C     C_R   0.639910 0.858174 0.125209 0.544698
C17   C     C_R   0.171940 0.831291 0.822068 0.028980
C18   C     C_R   0.686781 0.809093 0.357243 0.539161
C19   C     C_R   0.719981 0.449506 0.382944 0.564040
C20   C     C_R   0.107091 0.811939 0.359837 0.548887
C21   C     C_R   0.678254 0.796608 0.586608 0.558495
C22   C     C_R   0.680753 0.384984 0.624941 0.560504
C23   C     C_R   0.802233 0.433467 0.174746 0.113854
C24   C     C_R   0.100383 0.799778 0.586318 0.546054
C25   C     C_R   0.220426 0.862434 0.899936 0.561119
C26   C     C_R   0.638365 0.287082 0.861575 0.547430
C27   C     C_R   0.647212 0.868197 0.899282 0.560618
C28   C     C_R   0.545567 0.362887 0.190523 -0.049119
C29   C     C_R   0.556184 0.374603 0.271207 -0.031344
C30   C     C_R   0.692599 0.417946 0.302773 -0.003351
C31   C     C_2   0.411157 0.342020 0.153162 0.242627
C32   C     C_3   0.414064 0.088127 0.569968 -0.248122
C33   C     C_2   0.064293 0.538745 0.703892 0.249730
C34   C     C_R   0.663781 0.370791 0.146736 0.050826
C35   C     C_3   0.211389 0.531582 0.881394 -0.242703
C36   C     C_2   0.422737 0.336705 0.320765 0.248854
C37   C     C_3   0.961423 0.581652 0.055208 -0.249975
C38   C     C_3   0.365828 0.538055 0.694357 -0.278810
C39   C     C_3   0.955639 0.171271 0.813271 -0.217434
C40   C     C_3   0.285901 0.195818 0.770068 -0.269175
C41   C     C_1   0.668390 0.847451 0.205318 -0.032950
C42   C     C_1   0.680313 0.838096 0.274751 -0.033868
C43   C     C_1   0.225116 0.851948 0.215545 -0.046621
C44   C     C_1   0.176856 0.833322 0.282995 -0.041369
C45   C     C_1   0.648272 0.329030 0.778739 -0.012029
Cr1   Cr    Cr6+3 0.402240 0.783890 0.019450 1.023558
Cr2   Cr    Cr6+3 0.382360 0.097900 0.991800 1.035593
Cr3   Cr    Cr6+3 0.715380 0.118170 0.988700 1.020382
Cr4   Cr    Cr6+3 0.936650 0.882420 0.465510 1.049428
Cr5   Cr    Cr6+3 0.605770 0.565620 0.493360 1.024934
Cr6   Cr    Cr6+3 0.921340 0.550490 0.496380 1.005702
H1    H     H_    0.920598 0.499306 0.274606 0.131479
H2    H     H_    0.996604 0.497396 0.877542 0.294934
H3    H     H_    0.173878 0.423784 0.867032 0.099108
H4    H     H_    0.228139 0.522786 0.945734 0.180694
H5    H     H_    0.316460 0.610096 0.846181 0.176120
H6    H     H_    0.362097 0.393432 0.303727 0.096310
H7    H     H_    0.019250 0.488806 0.155758 0.256116
H8    H     H_    0.054756 0.594494 0.018848 0.185130
H9    H     H_    0.988309 0.686026 0.072216 0.160995
H10   H     H_    0.868930 0.550922 0.018091 0.143826
H11   H     H_    0.494607 0.473464 0.762891 0.226795
H12   H     H_    0.577365 0.622567 0.855795 0.134899
H13   H     H_    0.338991 0.485978 0.641715 0.162064
H14   H     H_    0.366011 0.643068 0.678477 0.140507
H15   H     H_    0.279748 0.467154 0.743009 0.094997
H16   H     H_    0.828130 0.195387 0.724698 0.289763
H17   H     H_    0.050580 0.242977 0.769167 0.121403
H18   H     H_    0.967787 0.080393 0.847616 0.157526
H19   H     H_    0.951050 0.234173 0.856727 0.204855
H20   H     H_    0.085601 0.057727 0.738913 0.247348
H21   H     H_    0.303120 0.262555 0.709884 0.138552
H22   H     H_    0.383071 0.186119 0.780887 0.189959
H23   H     H_    0.803579 0.048603 0.633013 0.122472
H24   H     H_    0.267500 0.247134 0.816475 0.139185
H25   H     H_    0.305799 0.275947 0.186915 0.105788
H26   H     H_    0.239983 0.120499 0.601388 0.275577
H27   H     H_    0.367015 0.010252 0.529624 0.166634
H28   H     H_    0.495055 0.068498 0.603510 0.127836
H29   H     H_    0.469841 0.198162 0.532415 0.211114
H30   H     H_    0.107653 0.520218 0.652417 0.107763
N1    N     N_2   0.302893 0.076406 0.624980 -0.516561
N2    N     N_2   0.103311 0.576832 0.866076 -0.514693
N3    N     N_2   0.929276 0.471188 0.125735 -0.491402
N4    N     N_2   0.504415 0.556149 0.718143 -0.479547
N5    N     N_2   0.824961 0.121001 0.772812 -0.466605
N6    N     N_2   0.163707 0.054922 0.774192 -0.511131
O1    O     O_R   0.521780 0.757110 0.108900 -0.492756
O2    O     O_R   0.805020 0.410040 0.421340 -0.519094
O3    O     O_R   0.049240 0.685450 0.403290 -0.525004
O4    O     O_R   0.275160 0.783810 0.101120 -0.512248
O5    O     O_R   0.077520 0.903010 0.551800 -0.493798
O6    O     O_R   0.802980 0.872780 0.546830 -0.507377
O7    O     O_R   0.578090 0.681300 0.569920 -0.494868
O8    O     O_R   0.608530 0.436370 0.586530 -0.493335
O9    O     O_R   0.798770 0.401880 0.597100 -0.507840
O10   O     O_R   0.043450 0.677890 0.566230 -0.520606
O11   O     O_3   0.821250 0.666180 0.485090 -0.280549
O12   O     O_R   0.513330 0.228330 0.898660 -0.527867
O13   O     O_R   0.237900 0.972600 0.090980 -0.508300
O14   O     O_R   0.511190 0.220540 0.061620 -0.482000
O15   O     O_R   0.736920 0.257720 0.063840 -0.490472
O16   O     O_R   0.710450 0.984050 0.081720 -0.500494
O17   O     O_R   0.524090 0.765520 0.933110 -0.522946
O18   O     O_R   0.277300 0.791600 0.938160 -0.500715
O19   O     O_R   0.240210 0.981010 0.915190 -0.494141
O20   O     O_2   0.417993 0.403719 0.084831 -0.501946
O21   O     O_2   0.959505 0.438479 0.744697 -0.543320
O22   O     O_2   0.376174 0.236942 0.378540 -0.499675
O23   O     O_R   0.739230 0.266130 0.888050 -0.491951
O24   O     O_R   0.712580 0.991850 0.918770 -0.482413
O25   O     O_3   0.499990 0.999980 0.999980 -0.279371
O26   O     O_R   0.083770 0.911170 0.376030 -0.473202
O27   O     O_R   0.808770 0.880340 0.383890 -0.493963
O28   O     O_R   0.584340 0.689460 0.394160 -0.526199
O29   O     O_R   0.614320 0.443940 0.423590 -0.476389

loop_
_geom_bond_atom_site_label_1
_geom_bond_atom_site_label_2
_ccdc_geom_bond_type
Cr6   O10   S    
Cr4   O26   S    
Cr2   O14   S    
Cr1   O25   S    
C11   C13   A    
C41   C42   T    
Cr3   O23   S    
C18   O27   A    
C14   C33   S    
C25   O18   A    
C7    C8    A    
C12   C23   A    
C21   O6    A    
C19   O2    A    
C19   O29   A    
C40   N6    S    
C28   C29   A    
C18   C42   S    
Cr6   O3    S    
C5    C6    A    
Cr5   O8    S    
C21   O7    A    
C10   C17   A    
Cr2   O25   S    
Cr1   O18   S    
C27   O17   A    
Cr2   O12   S    
C40   H22   S    
Cr5   O28   S    
C39   H17   S    
C26   C45   S    
C20   C44   S    
Cr4   O11   S    
C1    C43   S    
C38   H15   S    
C8    C9    A    
C4    O15   A    
C2    C22   S    
C37   N3    S    
C26   O23   A    
C38   H13   S    
Cr6   O9    S    
C5    N4    S    
Cr2   O19   S    
Cr6   O11   S    
Cr4   O27   S    
C27   O24   A    
C1    O4    A    
C13   C14   A    
C35   H3    S    
C33   O21   D    
C31   O20   D    
C24   O5    A    
C1    O13   A    
C12   H1    S    
C25   O19   A    
C7    H23   S    
Cr1   O1    S    
C11   N1    S    
H11   N4    S    
C4    C34   S    
C10   N6    S    
Cr5   O11   S    
C23   N3    S    
C38   N4    S    
C35   H4    S    
C24   O10   A    
C36   H6    S    
C10   C11   A    
C35   N2    S    
Cr5   O7    S    
C15   N2    S    
Cr1   O4    S    
Cr3   O16   S    
C20   O3    A    
Cr2   O13   S    
C13   C24   S    
C43   C44   T    
C29   C30   A    
C3    C9    A    
H7    N3    S    
C32   H29   S    
C16   O16   A    
C29   C36   S    
C38   H14   S    
C23   C34   A    
Cr3   O15   S    
C4    O14   A    
C39   H18   S    
C37   H8    S    
H20   N6    S    
Cr3   O25   S    
C32   H27   S    
Cr4   O5    S    
C9    C27   S    
C15   C17   A    
H16   N5    S    
C40   H21   S    
C12   C30   A    
C35   H5    S    
C22   O9    A    
C28   C31   S    
C3    C5    A    
C18   O28   A    
C37   H10   S    
C6    C7    A    
C3    H12   S    
C32   N1    S    
C26   O12   A    
C40   H24   S    
H2    N2    S    
C17   C25   S    
Cr6   O2    S    
C32   H28   S    
C6    C21   S    
C8    N5    S    
C31   H25   S    
C20   O26   A    
Cr1   O17   S    
H26   N1    S    
C39   H19   S    
Cr5   O29   S    
C37   H9    S    
C2    C45   T    
C28   C34   A    
C22   O8    A    
Cr3   O24   S    
C36   O22   D    
C16   O1    A    
C14   C15   A    
C39   N5    S    
Cr4   O6    S    
C19   C30   S    
C33   H30   S    
C16   C41   S    
