data_mof_unit_64909.cif
_audit_creation_date              2012-12-10T19:20:37-0500
_audit_creation_method            fapswitch 2.2
_symmetry_space_group_name_H-M    P1
_symmetry_Int_Tables_number       1
_space_group_crystal_system       triclinic
_cell_length_a                    38.800534
_cell_length_b                    38.800534
_cell_length_c                    18.260232
_cell_angle_alpha                 89.999708
_cell_angle_beta                  89.999741
_cell_angle_gamma                 90.000037
_cell_volume                      27490.4403414

loop_
_atom_site_label
_atom_site_type_symbol
_atom_type_description
_atom_site_fract_x
_atom_site_fract_y
_atom_site_fract_z
_atom_type_partial_charge
Br1   Br    Br    0.707975 0.065986 0.575566 -0.454054
Br2   Br    Br    0.434015 0.207974 0.075567 -0.454054
Br3   Br    Br    0.792025 0.434013 0.075564 -0.454055
Br4   Br    Br    0.565986 0.792025 0.075563 -0.454053
Br5   Br    Br    0.792026 0.565986 0.924434 -0.454053
Br6   Br    Br    0.565986 0.207975 0.924435 -0.454055
Br7   Br    Br    0.207975 0.434013 0.924440 -0.454053
Br8   Br    Br    0.434014 0.792025 0.924435 -0.454054
Br9   Br    Br    0.934014 0.707974 0.575567 -0.454053
Br10  Br    Br    0.292025 0.934013 0.575564 -0.454055
Br11  Br    Br    0.065986 0.292025 0.575562 -0.454053
Br12  Br    Br    0.292025 0.065985 0.424433 -0.454054
Br13  Br    Br    0.065986 0.707975 0.424436 -0.454055
Br14  Br    Br    0.707975 0.934014 0.424436 -0.454054
Br15  Br    Br    0.934014 0.292025 0.424435 -0.454054
Br16  Br    Br    0.207975 0.565987 0.075562 -0.454054
C1    C     C_R   0.567176 0.000000 0.500000 0.920064
C2    C     C_R   0.000000 0.714129 0.500001 -0.118218
C3    C     C_R   0.980315 0.122759 0.551755 -0.213095
C4    C     C_R   0.122759 0.980316 0.448243 -0.213095
C5    C     C_R   0.980315 0.877241 0.448245 -0.213095
C6    C     C_R   0.877241 0.019685 0.448245 -0.213095
C7    C     C_R   0.019685 0.122759 0.448244 -0.213096
C8    C     C_R   0.377241 0.480315 0.051756 -0.213096
C9    C     C_R   0.519685 0.377241 0.051756 -0.213095
C10   C     C_R   0.622759 0.519684 0.051755 -0.213095
C11   C     C_R   0.480315 0.622759 0.051755 -0.213095
C12   C     C_R   0.622759 0.480316 0.948243 -0.213095
C13   C     C_R   0.285871 1.000000 0.499999 -0.118218
C14   C     C_R   0.480315 0.377241 0.948245 -0.213095
C15   C     C_R   0.377241 0.519685 0.948245 -0.213095
C16   C     C_R   0.519685 0.622759 0.948244 -0.213095
C17   C     C_R   0.841414 0.979874 0.550945 -0.128085
C18   C     C_R   0.020125 0.841414 0.550946 -0.128085
C19   C     C_R   0.158586 0.020125 0.550944 -0.128085
C20   C     C_R   0.979874 0.158586 0.550944 -0.128086
C21   C     C_R   0.158586 0.979875 0.449054 -0.128085
C22   C     C_R   0.979875 0.841414 0.449056 -0.128086
C23   C     C_R   0.841414 0.020126 0.449057 -0.128087
C24   C     C_R   1.000000 0.285871 0.499999 -0.118220
C25   C     C_R   0.020125 0.158586 0.449055 -0.128085
C26   C     C_R   0.341414 0.479875 0.050946 -0.128086
C27   C     C_R   0.520126 0.341414 0.050945 -0.128086
C28   C     C_R   0.658586 0.520125 0.050944 -0.128086
C29   C     C_R   0.479874 0.658586 0.050944 -0.128086
C30   C     C_R   0.658586 0.479875 0.949054 -0.128085
C31   C     C_R   0.479874 0.341414 0.949057 -0.128087
C32   C     C_R   0.341414 0.520125 0.949056 -0.128086
C33   C     C_R   0.520125 0.658586 0.949055 -0.128086
C34   C     C_R   0.823541 0.000000 0.500001 0.253213
C35   C     C_R   0.214129 0.500000 0.000001 -0.118221
C36   C     C_R   0.000000 0.823541 0.500001 0.253215
C37   C     C_R   0.176459 1.000000 0.499999 0.253215
C38   C     C_R   1.000000 0.176459 0.499999 0.253212
C39   C     C_R   0.323541 0.500000 0.000001 0.253211
C40   C     C_R   0.500000 0.323541 0.000001 0.253215
C41   C     C_R   0.676459 0.500000 0.999999 0.253215
C42   C     C_R   0.500000 0.676459 0.999999 0.253213
C43   C     C_R   0.895213 0.000000 0.500000 -0.032612
C44   C     C_R   1.000000 0.895213 0.500000 -0.032613
C45   C     C_R   0.104787 0.000000 0.499999 -0.032613
C46   C     C_R   0.500000 0.214129 0.000001 -0.118222
C47   C     C_R   1.000000 0.104787 0.499999 -0.032613
C48   C     C_R   0.395213 0.500000 0.000000 -0.032613
C49   C     C_R   0.500000 0.395213 0.000000 -0.032613
C50   C     C_R   0.604787 0.500000 0.999999 -0.032613
C51   C     C_R   0.500000 0.604787 1.000000 -0.032613
C52   C     C_R   0.768133 0.027115 0.534078 0.370547
C53   C     C_R   0.972885 0.768133 0.534078 0.370548
C54   C     C_R   0.231867 0.972884 0.534076 0.370550
C55   C     C_R   0.027115 0.231867 0.534075 0.370547
C56   C     C_R   0.231867 0.027115 0.465921 0.370547
C57   C     C_R   0.785871 0.500000 0.999999 -0.118218
C58   C     C_R   0.027116 0.768133 0.465924 0.370550
C59   C     C_R   0.768133 0.972885 0.465924 0.370547
C60   C     C_R   0.972885 0.231867 0.465923 0.370548
C61   C     C_R   0.268133 0.527116 0.034076 0.370548
C62   C     C_R   0.472885 0.268133 0.034078 0.370549
C63   C     C_R   0.731867 0.472884 0.034075 0.370551
C64   C     C_R   0.527115 0.731867 0.034075 0.370548
C65   C     C_R   0.731867 0.527115 0.965922 0.370549
C66   C     C_R   0.527115 0.268133 0.965924 0.370549
C67   C     C_R   0.268133 0.472884 0.965926 0.370547
C68   C     C_R   0.500000 0.785871 0.999999 -0.118219
C69   C     C_R   0.472885 0.731867 0.965922 0.370549
C70   C     C_R   0.732103 0.027610 0.532289 0.186400
C71   C     C_R   0.972390 0.732103 0.532289 0.186402
C72   C     C_R   0.267896 0.972390 0.532287 0.186396
C73   C     C_R   0.027610 0.267897 0.532285 0.186403
C74   C     C_R   0.267897 0.027609 0.467711 0.186402
C75   C     C_R   0.027610 0.732104 0.467713 0.186396
C76   C     C_R   0.732103 0.972390 0.467713 0.186403
C77   C     C_R   0.972390 0.267897 0.467712 0.186400
C78   C     C_R   0.232103 0.527610 0.032287 0.186400
C79   C     C_R   0.785982 0.000000 0.500001 -0.275116
C80   C     C_R   0.472391 0.232103 0.032289 0.186401
C81   C     C_R   0.767896 0.472390 0.032287 0.186396
C82   C     C_R   0.527610 0.767897 0.032286 0.186401
C83   C     C_R   0.767897 0.527609 0.967711 0.186401
C84   C     C_R   0.527610 0.232104 0.967713 0.186397
C85   C     C_R   0.232103 0.472390 0.967715 0.186403
C86   C     C_R   0.472390 0.767897 0.967711 0.186399
C87   C     C_3   0.791511 0.047089 0.640025 0.133407
C88   C     C_3   0.813692 0.075404 0.673030 -0.758029
C89   C     C_3   0.952911 0.791510 0.640026 0.133406
C90   C     C_R   0.000000 0.785982 0.500001 -0.275118
C91   C     C_3   0.924596 0.813691 0.673031 -0.758031
C92   C     C_3   0.208489 0.952911 0.640023 0.133406
C93   C     C_3   0.186307 0.924596 0.673028 -0.758030
C94   C     C_3   0.047089 0.208488 0.640021 0.133406
C95   C     C_3   0.075404 0.186307 0.673025 -0.758030
C96   C     C_3   0.208490 0.047088 0.359974 0.133406
C97   C     C_3   0.186308 0.075404 0.326969 -0.758030
C98   C     C_3   0.047089 0.791511 0.359977 0.133404
C99   C     C_3   0.075404 0.813693 0.326972 -0.758030
C100  C     C_3   0.791511 0.952912 0.359977 0.133408
C101  C     C_R   0.214018 1.000000 0.499999 -0.275116
C102  C     C_3   0.813693 0.924597 0.326972 -0.758034
C103  C     C_3   0.952910 0.208489 0.359976 0.133407
C104  C     C_3   0.924595 0.186308 0.326972 -0.758030
C105  C     C_3   0.291511 0.547091 0.140021 0.133407
C106  C     C_3   0.313692 0.575406 0.173025 -0.758029
C107  C     C_3   0.452912 0.291510 0.140026 0.133404
C108  C     C_3   0.424597 0.313691 0.173032 -0.758031
C109  C     C_3   0.708489 0.452910 0.140022 0.133407
C110  C     C_3   0.686307 0.424596 0.173027 -0.758029
C111  C     C_3   0.547089 0.708488 0.140022 0.133405
C112  C     C_R   0.000000 0.567177 0.500000 0.920064
C113  C     C_R   1.000000 0.214018 0.499999 -0.275117
C114  C     C_3   0.575404 0.686307 0.173026 -0.758031
C115  C     C_3   0.708490 0.547089 0.859975 0.133405
C116  C     C_3   0.686308 0.575404 0.826969 -0.758031
C117  C     C_3   0.547089 0.291511 0.859977 0.133405
C118  C     C_3   0.575404 0.313693 0.826972 -0.758031
C119  C     C_3   0.291512 0.452910 0.859981 0.133405
C120  C     C_3   0.313693 0.424594 0.826978 -0.758030
C121  C     C_3   0.452911 0.708489 0.859976 0.133405
C122  C     C_3   0.424596 0.686308 0.826971 -0.758029
C123  C     C_3   0.678320 0.030990 0.338016 0.084087
C124  C     C_R   0.285982 0.500000 0.000001 -0.275117
C125  C     C_3   0.701607 0.053496 0.291154 -0.769774
C126  C     C_3   0.969012 0.678323 0.338017 0.084087
C127  C     C_3   0.946505 0.701609 0.291155 -0.769777
C128  C     C_3   0.321681 0.969010 0.338015 0.084086
C129  C     C_3   0.298395 0.946504 0.291152 -0.769775
C130  C     C_3   0.030988 0.321680 0.338014 0.084088
C131  C     C_3   0.053495 0.298394 0.291151 -0.769776
C132  C     C_3   0.321677 0.030988 0.661983 0.084088
C133  C     C_3   0.298391 0.053495 0.708845 -0.769779
C134  C     C_3   0.030990 0.678318 0.661986 0.084087
C135  C     C_R   0.500000 0.285982 0.000001 -0.275116
C136  C     C_3   0.053496 0.701605 0.708848 -0.769775
C137  C     C_3   0.678320 0.969011 0.661985 0.084088
C138  C     C_3   0.701606 0.946504 0.708848 -0.769777
C139  C     C_3   0.969011 0.321679 0.661984 0.084089
C140  C     C_3   0.946505 0.298392 0.708847 -0.769775
C141  C     C_3   0.178320 0.530988 0.838015 0.084088
C142  C     C_3   0.201607 0.553494 0.791152 -0.769775
C143  C     C_3   0.469012 0.178323 0.838018 0.084088
C144  C     C_3   0.446504 0.201609 0.791156 -0.769779
C145  C     C_3   0.821681 0.469011 0.838014 0.084087
C146  C     C_R   0.714018 0.500000 0.999999 -0.275117
C147  C     C_3   0.798395 0.446504 0.791152 -0.769775
C148  C     C_3   0.530988 0.821680 0.838014 0.084087
C149  C     C_3   0.553496 0.798394 0.791151 -0.769778
C150  C     C_3   0.821677 0.530987 0.161983 0.084088
C151  C     C_3   0.798391 0.553495 0.208845 -0.769775
C152  C     C_3   0.530990 0.178319 0.161984 0.084088
C153  C     C_3   0.553497 0.201605 0.208847 -0.769779
C154  C     C_3   0.178320 0.469013 0.161986 0.084088
C155  C     C_3   0.201606 0.446506 0.208850 -0.769775
C156  C     C_3   0.469011 0.821679 0.161984 0.084087
C157  C     C_R   0.500000 0.714018 0.999999 -0.275117
C158  C     C_3   0.446504 0.798392 0.208846 -0.769775
C159  C     C_R   0.658431 0.022553 0.453371 0.499335
C160  C     C_R   0.977448 0.658431 0.453370 0.499334
C161  C     C_R   0.341569 0.977447 0.453369 0.499337
C162  C     C_R   0.022552 0.341569 0.453368 0.499335
C163  C     C_R   0.341569 0.022552 0.546630 0.499332
C164  C     C_R   0.432823 1.000000 0.500000 0.920064
C165  C     C_R   0.022553 0.658431 0.546631 0.499339
C166  C     C_R   0.658431 0.977447 0.546631 0.499333
C167  C     C_R   0.977447 0.341569 0.546630 0.499334
C168  C     C_R   0.158431 0.522552 0.953369 0.499336
C169  C     C_R   0.477448 0.158431 0.953370 0.499333
C170  C     C_R   0.841569 0.477447 0.953369 0.499338
C171  C     C_R   0.522552 0.841569 0.953368 0.499334
C172  C     C_R   0.841569 0.522552 0.046630 0.499333
C173  C     C_R   0.522553 0.158431 0.046630 0.499337
C174  C     C_R   0.158431 0.477448 0.046633 0.499335
C175  C     C_R   0.000000 0.432823 0.500000 0.920064
C176  C     C_R   0.477447 0.841569 0.046630 0.499336
C177  C     C_R   0.622505 0.023228 0.455458 -0.292677
C178  C     C_R   0.976772 0.622505 0.455458 -0.292671
C179  C     C_R   0.377495 0.976772 0.455458 -0.292678
C180  C     C_R   0.023228 0.377495 0.455457 -0.292674
C181  C     C_R   0.377495 0.023228 0.544542 -0.292671
C182  C     C_R   0.023228 0.622505 0.544542 -0.292680
C183  C     C_R   0.622505 0.976772 0.544543 -0.292674
C184  C     C_R   0.976772 0.377495 0.544542 -0.292676
C185  C     C_R   0.122505 0.523227 0.955457 -0.292677
C186  C     C_R   0.067177 0.500000 0.000000 0.920063
C187  C     C_R   0.476772 0.122505 0.955459 -0.292670
C188  C     C_R   0.877495 0.476772 0.955457 -0.292679
C189  C     C_R   0.523228 0.877495 0.955457 -0.292675
C190  C     C_R   0.877495 0.523227 0.044542 -0.292671
C191  C     C_R   0.523228 0.122505 0.044542 -0.292678
C192  C     C_R   0.122505 0.476773 0.044544 -0.292673
C193  C     C_R   0.476772 0.877495 0.044542 -0.292677
C194  C     C_R   0.604597 0.000000 0.500000 -0.155344
C195  C     C_R   0.000000 0.604598 0.500000 -0.155345
C196  C     C_R   0.395402 1.000000 0.500000 -0.155345
C197  C     C_R   0.500000 0.067177 0.000000 0.920064
C198  C     C_R   1.000000 0.395402 0.500000 -0.155344
C199  C     C_R   0.104598 0.500000 0.000000 -0.155345
C200  C     C_R   0.500000 0.104598 0.000000 -0.155347
C201  C     C_R   0.895402 0.500000 1.000000 -0.155345
C202  C     C_R   0.500000 0.895402 1.000000 -0.155344
C203  C     C_R   0.676418 0.000000 0.500001 -0.005020
C204  C     C_R   0.000000 0.676418 0.500000 -0.005022
C205  C     C_R   0.323582 1.000000 0.500000 -0.005022
C206  C     C_R   1.000000 0.323582 0.499999 -0.005021
C207  C     C_R   0.176418 0.500000 0.000001 -0.005023
C208  C     C_R   0.932823 0.500000 1.000000 0.920064
C209  C     C_R   0.500000 0.176418 0.000000 -0.005022
C210  C     C_R   0.823582 0.500000 1.000000 -0.005022
C211  C     C_R   0.500000 0.823582 0.999999 -0.005021
C212  C     C_R   0.000000 0.932649 0.500000 0.874603
C213  C     C_R   0.067351 0.000000 0.500000 0.874603
C214  C     C_R   1.000000 0.067351 0.500000 0.874603
C215  C     C_R   0.932649 0.000000 0.500000 0.874602
C216  C     C_R   0.500000 0.432649 0.000000 0.874603
C217  C     C_R   0.567351 0.500000 1.000000 0.874603
C218  C     C_R   0.500000 0.567351 1.000000 0.874603
C219  C     C_R   0.500000 0.932823 1.000000 0.920064
C220  C     C_R   0.432649 0.500000 0.000000 0.874603
C221  C     C_R   0.500000 1.000000 0.641081 0.924060
C222  C     C_R   1.000000 0.500000 0.641081 0.924060
C223  C     C_R   0.500000 0.000000 0.358919 0.924060
C224  C     C_R   0.000000 0.500000 0.358919 0.924061
C225  C     C_R   0.000000 0.500000 0.141081 0.924060
C226  C     C_R   0.500000 0.000000 0.141081 0.924060
C227  C     C_R   1.000000 0.500000 0.858919 0.924060
C228  C     C_R   0.500000 1.000000 0.858919 0.924061
C229  C     C_1   0.500000 1.000000 0.717593 -0.184439
C230  C     C_R   0.714129 0.000000 0.500001 -0.118219
C231  C     C_1   1.000000 0.500000 0.717593 -0.184440
C232  C     C_1   0.500000 0.000000 0.282407 -0.184440
C233  C     C_1   0.000000 0.500000 0.282407 -0.184439
C234  C     C_1   0.000000 0.500000 0.217593 -0.184439
C235  C     C_1   0.500000 0.000000 0.217593 -0.184440
C236  C     C_1   1.000000 0.500000 0.782407 -0.184440
C237  C     C_1   0.500000 1.000000 0.782407 -0.184439
C238  C     C_R   0.877241 0.980315 0.551756 -0.213096
C239  C     C_R   0.019685 0.877241 0.551756 -0.213096
C240  C     C_R   0.122759 0.019684 0.551755 -0.213095
H1    H     H_    0.890926 0.964876 0.591735 0.152045
H2    H     H_    0.535123 0.390926 0.091735 0.152045
H3    H     H_    0.733383 0.453732 0.170255 0.164203
H4    H     H_    0.699417 0.399294 0.167264 0.273931
H5    H     H_    0.681918 0.429863 0.232070 0.196608
H6    H     H_    0.661012 0.423577 0.144608 0.252737
H7    H     H_    0.522119 0.694871 0.147942 0.115655
H8    H     H_    0.546267 0.733383 0.170255 0.164203
H9    H     H_    0.600705 0.699418 0.167264 0.273931
H10   H     H_    0.570136 0.681918 0.232069 0.196609
H11   H     H_    0.576423 0.661013 0.144606 0.252738
H12   H     H_    0.694872 0.522119 0.852055 0.115655
H13   H     H_    0.609074 0.535123 0.091735 0.152045
H14   H     H_    0.733385 0.546267 0.829742 0.164204
H15   H     H_    0.699420 0.600706 0.832732 0.273931
H16   H     H_    0.681920 0.570136 0.767927 0.196609
H17   H     H_    0.661014 0.576423 0.855389 0.252737
H18   H     H_    0.522119 0.305129 0.852058 0.115655
H19   H     H_    0.546267 0.266617 0.829744 0.164203
H20   H     H_    0.600705 0.300582 0.832734 0.273932
H21   H     H_    0.570136 0.318082 0.767929 0.196608
H22   H     H_    0.576423 0.338987 0.855391 0.252737
H23   H     H_    0.305129 0.477879 0.852060 0.115656
H24   H     H_    0.464876 0.609074 0.091734 0.152044
H25   H     H_    0.266617 0.453732 0.829748 0.164202
H26   H     H_    0.300581 0.399292 0.832741 0.273932
H27   H     H_    0.318082 0.429861 0.767935 0.196608
H28   H     H_    0.338987 0.423575 0.855398 0.252737
H29   H     H_    0.477880 0.694872 0.852055 0.115655
H30   H     H_    0.453733 0.733384 0.829743 0.164203
H31   H     H_    0.399294 0.699419 0.832734 0.273931
H32   H     H_    0.429864 0.681920 0.767928 0.196608
H33   H     H_    0.423577 0.661014 0.855391 0.252737
H34   H     H_    0.652383 0.029956 0.311985 0.145275
H35   H     H_    0.609074 0.464877 0.908264 0.152045
H36   H     H_    0.689626 0.004573 0.339363 0.154669
H37   H     H_    0.727812 0.054608 0.315563 0.254207
H38   H     H_    0.703488 0.042565 0.235095 0.202625
H39   H     H_    0.690921 0.080001 0.287647 0.268830
H40   H     H_    0.970049 0.652386 0.311984 0.145276
H41   H     H_    0.995429 0.689631 0.339367 0.154668
H42   H     H_    0.945391 0.727813 0.315567 0.254209
H43   H     H_    0.957438 0.703492 0.235097 0.202625
H44   H     H_    0.920002 0.690921 0.287645 0.268830
H45   H     H_    0.347619 0.970044 0.311984 0.145275
H46   H     H_    0.464877 0.390926 0.908266 0.152045
H47   H     H_    0.310375 0.995428 0.339361 0.154669
H48   H     H_    0.272190 0.945393 0.315560 0.254208
H49   H     H_    0.296514 0.957436 0.235092 0.202625
H50   H     H_    0.309081 0.920000 0.287646 0.268831
H51   H     H_    0.029953 0.347617 0.311982 0.145275
H52   H     H_    0.004572 0.310373 0.339363 0.154668
H53   H     H_    0.054608 0.272189 0.315560 0.254209
H54   H     H_    0.042562 0.296512 0.235092 0.202625
H55   H     H_    0.079999 0.309082 0.287641 0.268830
H56   H     H_    0.347614 0.029952 0.688016 0.145276
H57   H     H_    0.390926 0.535123 0.908265 0.152045
H58   H     H_    0.310370 0.004571 0.660633 0.154668
H59   H     H_    0.272187 0.054608 0.684434 0.254209
H60   H     H_    0.296508 0.042562 0.764903 0.202625
H61   H     H_    0.309079 0.079998 0.712355 0.268830
H62   H     H_    0.029956 0.652381 0.688016 0.145274
H63   H     H_    0.004572 0.689624 0.660640 0.154669
H64   H     H_    0.054607 0.727810 0.684441 0.254207
H65   H     H_    0.042564 0.703485 0.764908 0.202626
H66   H     H_    0.080000 0.690919 0.712354 0.268831
H67   H     H_    0.652383 0.970046 0.688017 0.145275
H68   H     H_    0.535123 0.609074 0.908265 0.152045
H69   H     H_    0.689627 0.995428 0.660637 0.154669
H70   H     H_    0.727811 0.945392 0.684438 0.254208
H71   H     H_    0.703488 0.957436 0.764907 0.202626
H72   H     H_    0.690919 0.920000 0.712356 0.268830
H73   H     H_    0.970046 0.347616 0.688016 0.145274
H74   H     H_    0.995428 0.310373 0.660636 0.154668
H75   H     H_    0.945393 0.272188 0.684438 0.254208
H76   H     H_    0.957437 0.296511 0.764906 0.202625
H77   H     H_    0.920001 0.309079 0.712355 0.268830
H78   H     H_    0.152383 0.529953 0.811983 0.145274
H79   H     H_    0.827586 0.964241 0.590358 0.135263
H80   H     H_    0.189627 0.504571 0.839363 0.154668
H81   H     H_    0.227812 0.554606 0.815561 0.254208
H82   H     H_    0.203489 0.542562 0.735093 0.202625
H83   H     H_    0.190921 0.579998 0.787643 0.268830
H84   H     H_    0.470050 0.152387 0.811985 0.145276
H85   H     H_    0.495428 0.189632 0.839369 0.154668
H86   H     H_    0.445389 0.227813 0.815568 0.254211
H87   H     H_    0.457437 0.203492 0.735098 0.202625
H88   H     H_    0.420001 0.190919 0.787645 0.268830
H89   H     H_    0.847619 0.470044 0.811984 0.145274
H90   H     H_    0.035758 0.827587 0.590359 0.135262
H91   H     H_    0.810375 0.495428 0.839361 0.154669
H92   H     H_    0.772190 0.445393 0.815560 0.254207
H93   H     H_    0.796514 0.457436 0.735092 0.202625
H94   H     H_    0.809081 0.420000 0.787645 0.268830
H95   H     H_    0.529953 0.847617 0.811983 0.145275
H96   H     H_    0.504572 0.810373 0.839363 0.154668
H97   H     H_    0.554608 0.772189 0.815561 0.254209
H98   H     H_    0.542563 0.796512 0.735093 0.202626
H99   H     H_    0.579999 0.809081 0.787643 0.268831
H100  H     H_    0.847614 0.529951 0.188016 0.145276
H101  H     H_    0.172414 0.035757 0.590357 0.135261
H102  H     H_    0.810369 0.504571 0.160633 0.154667
H103  H     H_    0.772187 0.554608 0.184434 0.254208
H104  H     H_    0.796508 0.542562 0.264903 0.202625
H105  H     H_    0.809079 0.579998 0.212356 0.268830
H106  H     H_    0.529954 0.152382 0.188015 0.145274
H107  H     H_    0.504573 0.189627 0.160637 0.154670
H108  H     H_    0.554610 0.227810 0.184438 0.254210
H109  H     H_    0.542565 0.203486 0.264906 0.202626
H110  H     H_    0.580000 0.190917 0.212355 0.268830
H111  H     H_    0.152383 0.470049 0.188019 0.145275
H112  H     H_    0.035123 0.890926 0.591736 0.152046
H113  H     H_    0.964241 0.172413 0.590357 0.135263
H114  H     H_    0.189628 0.495429 0.160637 0.154668
H115  H     H_    0.227811 0.445393 0.184441 0.254209
H116  H     H_    0.203488 0.457439 0.264909 0.202625
H117  H     H_    0.190918 0.420002 0.212361 0.268830
H118  H     H_    0.470045 0.847616 0.188015 0.145275
H119  H     H_    0.495428 0.810373 0.160636 0.154668
H120  H     H_    0.445392 0.772188 0.184437 0.254208
H121  H     H_    0.457436 0.796511 0.264905 0.202625
H122  H     H_    0.420000 0.809079 0.212354 0.268830
H123  H     H_    0.172413 0.964242 0.409640 0.135262
H124  H     H_    0.964242 0.827586 0.409643 0.135261
H125  H     H_    0.827587 0.035759 0.409644 0.135263
H126  H     H_    0.035758 0.172414 0.409641 0.135263
H127  H     H_    0.327586 0.464242 0.090359 0.135264
H128  H     H_    0.535758 0.327587 0.090358 0.135262
H129  H     H_    0.672414 0.535757 0.090357 0.135261
H130  H     H_    0.464241 0.672413 0.090357 0.135263
H131  H     H_    0.672413 0.464242 0.909640 0.135262
H132  H     H_    0.109074 0.035123 0.591735 0.152045
H133  H     H_    0.464242 0.327586 0.909644 0.135262
H134  H     H_    0.327586 0.535758 0.909643 0.135264
H135  H     H_    0.535758 0.672414 0.909641 0.135263
H136  H     H_    0.608648 0.041242 0.420960 0.175553
H137  H     H_    0.958758 0.608648 0.420960 0.175555
H138  H     H_    0.391353 0.958758 0.420959 0.175553
H139  H     H_    0.041242 0.391353 0.420958 0.175554
H140  H     H_    0.391352 0.041242 0.579040 0.175555
H141  H     H_    0.041242 0.608647 0.579041 0.175553
H142  H     H_    0.608647 0.958758 0.579041 0.175554
H143  H     H_    0.964877 0.109074 0.591734 0.152045
H144  H     H_    0.958758 0.391352 0.579041 0.175553
H145  H     H_    0.108648 0.541241 0.920958 0.175553
H146  H     H_    0.458758 0.108648 0.920960 0.175556
H147  H     H_    0.891353 0.458758 0.920959 0.175553
H148  H     H_    0.541242 0.891353 0.920958 0.175554
H149  H     H_    0.891352 0.541242 0.079041 0.175555
H150  H     H_    0.541242 0.108647 0.079040 0.175554
H151  H     H_    0.108647 0.458759 0.079043 0.175554
H152  H     H_    0.458758 0.891352 0.079041 0.175553
H153  H     H_    0.805128 0.022119 0.647944 0.115655
H154  H     H_    0.109074 0.964877 0.408264 0.152045
H155  H     H_    0.766616 0.046267 0.670257 0.164203
H156  H     H_    0.800581 0.100705 0.667267 0.273931
H157  H     H_    0.818081 0.070136 0.732072 0.196608
H158  H     H_    0.838987 0.076423 0.644610 0.252736
H159  H     H_    0.977881 0.805128 0.647945 0.115655
H160  H     H_    0.953733 0.766615 0.670258 0.164203
H161  H     H_    0.899295 0.800580 0.667269 0.273932
H162  H     H_    0.929864 0.818080 0.732074 0.196608
H163  H     H_    0.923577 0.838986 0.644612 0.252737
H164  H     H_    0.194872 0.977880 0.647943 0.115654
H165  H     H_    0.964877 0.890926 0.408265 0.152046
H166  H     H_    0.233383 0.953732 0.670255 0.164203
H167  H     H_    0.199417 0.899294 0.667265 0.273931
H168  H     H_    0.181918 0.929864 0.732071 0.196608
H169  H     H_    0.161013 0.923577 0.644609 0.252737
H170  H     H_    0.022120 0.194871 0.647941 0.115655
H171  H     H_    0.046267 0.233383 0.670254 0.164203
H172  H     H_    0.100706 0.199418 0.667262 0.273931
H173  H     H_    0.070137 0.181918 0.732068 0.196608
H174  H     H_    0.076424 0.161013 0.644605 0.252737
H175  H     H_    0.194872 0.022119 0.352054 0.115654
H176  H     H_    0.890926 0.035124 0.408266 0.152044
H177  H     H_    0.233385 0.046267 0.329742 0.164204
H178  H     H_    0.199419 0.100705 0.332731 0.273931
H179  H     H_    0.181920 0.070136 0.267926 0.196608
H180  H     H_    0.161014 0.076423 0.355388 0.252737
H181  H     H_    0.022120 0.805129 0.352057 0.115654
H182  H     H_    0.046268 0.766617 0.329745 0.164203
H183  H     H_    0.100706 0.800582 0.332735 0.273931
H184  H     H_    0.070136 0.818082 0.267929 0.196609
H185  H     H_    0.076423 0.838988 0.355392 0.252738
H186  H     H_    0.805129 0.977881 0.352058 0.115655
H187  H     H_    0.035123 0.109074 0.408264 0.152045
H188  H     H_    0.766617 0.953734 0.329744 0.164203
H189  H     H_    0.800582 0.899295 0.332735 0.273932
H190  H     H_    0.818082 0.929865 0.267930 0.196609
H191  H     H_    0.838987 0.923578 0.355393 0.252738
H192  H     H_    0.977880 0.194872 0.352056 0.115655
H193  H     H_    0.953732 0.233384 0.329744 0.164203
H194  H     H_    0.899294 0.199419 0.332736 0.273931
H195  H     H_    0.929863 0.181920 0.267929 0.196609
H196  H     H_    0.923576 0.161014 0.355392 0.252737
H197  H     H_    0.305128 0.522121 0.147943 0.115655
H198  H     H_    0.390926 0.464877 0.091736 0.152045
H199  H     H_    0.266616 0.546269 0.170254 0.164202
H200  H     H_    0.300581 0.600707 0.167261 0.273931
H201  H     H_    0.318081 0.570139 0.232068 0.196608
H202  H     H_    0.338986 0.576425 0.144604 0.252737
H203  H     H_    0.477881 0.305128 0.147945 0.115656
H204  H     H_    0.453734 0.266615 0.170258 0.164203
H205  H     H_    0.399295 0.300580 0.167269 0.273932
H206  H     H_    0.429865 0.318079 0.232074 0.196609
H207  H     H_    0.423577 0.338985 0.144612 0.252738
H208  H     H_    0.694871 0.477880 0.147943 0.115654
O1    O     O_R   0.550910 0.028770 0.500030 -0.616384
O2    O     O_R   0.471230 0.050910 0.000030 -0.616384
O3    O     O_R   0.949090 0.471230 0.000030 -0.616384
O4    O     O_R   0.528770 0.949090 0.000030 -0.616384
O5    O     O_R   0.949090 0.528770 0.999970 -0.616383
O6    O     O_R   0.528770 0.050910 0.999970 -0.616384
O7    O     O_R   0.050910 0.471230 0.999970 -0.616383
O8    O     O_R   0.471230 0.949090 0.999970 -0.616383
O9    O     O_R   0.499990 0.028770 0.607330 -0.618677
O10   O     O_R   0.971230 0.499990 0.607330 -0.618677
O11   O     O_R   0.500010 0.971230 0.607330 -0.618678
O12   O     O_R   0.971230 0.550910 0.500030 -0.616383
O13   O     O_R   0.028770 0.500010 0.607330 -0.618678
O14   O     O_R   0.500010 0.028770 0.392670 -0.618677
O15   O     O_R   0.028770 0.499990 0.392670 -0.618678
O16   O     O_R   0.499990 0.971230 0.392670 -0.618677
O17   O     O_R   0.971230 0.500010 0.392670 -0.618677
O18   O     O_R   0.999990 0.528770 0.107330 -0.618677
O19   O     O_R   0.471230 0.999990 0.107330 -0.618677
O20   O     O_R   0.000010 0.471230 0.107330 -0.618677
O21   O     O_R   0.528770 0.000010 0.107330 -0.618677
O22   O     O_R   0.000010 0.528770 0.892670 -0.618677
O23   O     O_R   0.449090 0.971230 0.500030 -0.616384
O24   O     O_R   0.528770 0.999990 0.892670 -0.618678
O25   O     O_R   0.999990 0.471230 0.892670 -0.618677
O26   O     O_R   0.471230 0.000010 0.892670 -0.618677
O27   O     O_R   0.000000 0.949040 0.560460 -0.621133
O28   O     O_R   0.050960 0.000000 0.560460 -0.621133
O29   O     O_R   0.000000 0.050960 0.560460 -0.621133
O30   O     O_R   0.949040 0.000000 0.560460 -0.621133
O31   O     O_R   0.000000 0.949040 0.439540 -0.621133
O32   O     O_R   0.949040 0.000000 0.439540 -0.621133
O33   O     O_R   0.000000 0.050960 0.439540 -0.621133
O34   O     O_R   0.028770 0.449090 0.500030 -0.616384
O35   O     O_R   0.050960 0.000000 0.439540 -0.621133
O36   O     O_R   0.500000 0.449040 0.060460 -0.621133
O37   O     O_R   0.550960 0.500000 0.060460 -0.621133
O38   O     O_R   0.500000 0.550960 0.060460 -0.621133
O39   O     O_R   0.449040 0.500000 0.060460 -0.621133
O40   O     O_R   0.500000 0.449040 0.939540 -0.621133
O41   O     O_R   0.449040 0.500000 0.939540 -0.621133
O42   O     O_R   0.500000 0.550960 0.939540 -0.621133
O43   O     O_R   0.550960 0.500000 0.939540 -0.621133
O44   O     O_3   0.786085 0.054253 0.565047 -0.556425
O45   O     O_R   0.449090 0.028770 0.499970 -0.616383
O46   O     O_3   0.945747 0.786085 0.565049 -0.556425
O47   O     O_3   0.213915 0.945746 0.565046 -0.556425
O48   O     O_3   0.054254 0.213915 0.565044 -0.556425
O49   O     O_3   0.213915 0.054253 0.434951 -0.556425
O50   O     O_3   0.054254 0.786085 0.434954 -0.556424
O51   O     O_3   0.786085 0.945747 0.434954 -0.556425
O52   O     O_3   0.945746 0.213915 0.434954 -0.556425
O53   O     O_3   0.286085 0.554254 0.065044 -0.556425
O54   O     O_3   0.445747 0.286085 0.065049 -0.556426
O55   O     O_3   0.713915 0.445746 0.065045 -0.556425
O56   O     O_R   0.028770 0.550910 0.499970 -0.616384
O57   O     O_3   0.554253 0.713915 0.065045 -0.556425
O58   O     O_3   0.713915 0.554253 0.934952 -0.556425
O59   O     O_3   0.554253 0.286085 0.934954 -0.556425
O60   O     O_3   0.286085 0.445746 0.934958 -0.556425
O61   O     O_3   0.445746 0.713915 0.934953 -0.556424
O62   O     O_3   0.676104 0.045308 0.408893 -0.568861
O63   O     O_3   0.954692 0.676104 0.408892 -0.568862
O64   O     O_3   0.323897 0.954692 0.408891 -0.568861
O65   O     O_3   0.045308 0.323897 0.408889 -0.568862
O66   O     O_3   0.323896 0.045308 0.591108 -0.568862
O67   O     O_R   0.550910 0.971230 0.499970 -0.616383
O68   O     O_3   0.045308 0.676103 0.591109 -0.568862
O69   O     O_3   0.676103 0.954692 0.591109 -0.568862
O70   O     O_3   0.954692 0.323896 0.591108 -0.568861
O71   O     O_3   0.176104 0.545307 0.908890 -0.568861
O72   O     O_3   0.454692 0.176104 0.908893 -0.568862
O73   O     O_3   0.823897 0.454692 0.908891 -0.568862
O74   O     O_3   0.545308 0.823897 0.908890 -0.568861
O75   O     O_3   0.823896 0.545308 0.091108 -0.568862
O76   O     O_3   0.545308 0.176103 0.091108 -0.568861
O77   O     O_3   0.176103 0.454693 0.091112 -0.568862
O78   O     O_R   0.971230 0.449090 0.499970 -0.616383
O79   O     O_3   0.454692 0.823896 0.091108 -0.568862
O80   O     O_R   0.050910 0.528770 0.000030 -0.616384
Zn1   Zn    Zn3+2 0.500000 0.038410 0.500000 0.984042
Zn2   Zn    Zn3+2 1.000000 0.000000 0.419090 0.956810
Zn3   Zn    Zn3+2 0.500000 0.500000 0.080910 0.956810
Zn4   Zn    Zn3+2 0.500000 0.500000 0.919090 0.956810
Zn5   Zn    Zn3+2 0.961590 0.500000 0.500000 0.984042
Zn6   Zn    Zn3+2 0.500000 0.961590 0.500000 0.984042
Zn7   Zn    Zn3+2 0.038410 0.500000 0.500000 0.984041
Zn8   Zn    Zn3+2 0.000000 0.538410 0.000000 0.984042
Zn9   Zn    Zn3+2 0.461590 0.000000 0.000000 0.984042
Zn10  Zn    Zn3+2 0.000000 0.461590 0.000000 0.984042
Zn11  Zn    Zn3+2 0.538410 0.000000 0.000000 0.984042
Zn12  Zn    Zn3+2 0.000000 0.000000 0.580910 0.956810

loop_
_geom_bond_atom_site_label_1
_geom_bond_atom_site_label_2
_ccdc_geom_bond_type
C129  H50   S    
O3    Zn10  S    
C141  C142  S    
C96   O49   S    
C19   C37   A    
C24   C77   A    
C109  O55   S    
C181  H140  S    
C32   H134  S    
C98   C99   S    
C148  O74   S    
C231  C236  T    
C228  O24   A    
C187  H146  S    
C98   O50   S    
C141  H80   S    
C26   H127  S    
C163  C205  A    
C226  C235  S    
C94   H170  S    
C162  O65   S    
C87   H155  S    
C91   H163  S    
C119  O60   S    
C41   C146  S    
C132  O66   S    
C54   C101  A    
C126  H40   S    
O42   Zn4   S    
C92   C93   S    
C217  O43   A    
C94   C95   S    
C158  H122  S    
C13   C72   A    
C139  H73   S    
C140  H75   S    
C14   H46   S    
C62   C80   A    
C19   H101  S    
C222  C231  S    
C221  O11   A    
C120  H26   S    
C137  H67   S    
C129  H48   S    
C132  H56   S    
C224  C233  S    
C20   C38   A    
C218  O38   A    
C7    H187  S    
C102  H190  S    
C189  H148  S    
C183  H142  S    
C67   C124  A    
C145  C147  S    
C87   H153  S    
C127  H44   S    
C189  C202  A    
C52   C79   A    
C59   C79   A    
O34   Zn7   S    
C1    C194  S    
C76   C230  A    
C65   C83   A    
C17   C34   A    
O41   Zn4   S    
C229  C237  T    
O18   Zn8   S    
C160  O63   S    
C223  C232  S    
C144  H88   S    
C12   C50   A    
Br15  C77   S    
C108  H205  S    
C193  H152  S    
C63   O55   S    
C28   C41   A    
C103  C104  S    
C105  H197  S    
C165  C204  A    
C221  C229  S    
C115  O58   S    
C168  O71   S    
C138  H71   S    
C47   C214  S    
C87   O44   S    
C67   O60   S    
C134  O68   S    
C130  H51   S    
C15   C32   A    
C99   H185  S    
O16   Zn6   S    
C2    C75   A    
C173  O76   S    
C5    H165  S    
C137  O69   S    
C130  C131  S    
C228  O26   A    
C148  H96   S    
C126  O63   S    
C17   C238  A    
C180  H139  S    
C93   H167  S    
C49   C216  S    
C118  H21   S    
C63   C81   A    
C166  C183  A    
C91   H161  S    
C128  C129  S    
C214  O29   A    
C116  H16   S    
C66   O59   S    
C186  O7    A    
C46   C209  S    
O32   Zn2   S    
Br16  C78   S    
C7    C25   A    
C156  H118  S    
C144  H86   S    
C197  O2    A    
Br2   C80   S    
C97   H178  S    
O2    Zn9   S    
C158  H120  S    
C31   H133  S    
C140  H77   S    
C62   O54   S    
C125  H38   S    
C65   O58   S    
C150  O75   S    
C152  H107  S    
C20   H113  S    
C131  H54   S    
C191  C200  A    
C1    O67   A    
C100  C102  S    
C120  H28   S    
C172  O75   S    
C137  H69   S    
C141  H78   S    
C132  H58   S    
O6    Zn11  S    
O13   Zn7   S    
C147  H94   S    
C139  C140  S    
C156  O79   S    
C227  O22   A    
C226  O19   A    
C98   H182  S    
C35   C207  S    
C159  C177  A    
C104  H194  S    
C188  H147  S    
C212  O27   A    
O30   Zn12  S    
C128  H45   S    
C18   H90   S    
C141  O71   S    
C68   C86   A    
C65   C146  A    
C61   C124  A    
O4    Zn11  S    
C2    C204  S    
C9    C27   A    
C10   C28   A    
C107  C108  S    
C208  O3    A    
C89   C91   S    
O14   Zn1   S    
Br10  C72   S    
C233  C234  T    
C136  H65   S    
Br12  C74   S    
C173  C191  A    
C202  C219  S    
C122  H33   S    
C172  C210  A    
C167  C206  A    
C112  C195  S    
C154  C155  S    
C161  O64   S    
C61   C78   A    
C171  C211  A    
C111  H8    S    
C167  O70   S    
C4    C45   A    
C164  C196  S    
C3    H143  S    
C95   H173  S    
C114  H9    S    
O12   Zn5   S    
C5    C22   A    
C93   H169  S    
C225  O20   A    
C170  C210  A    
C6    H176  S    
C143  H85   S    
C24   C73   A    
C109  H208  S    
C66   C135  A    
O29   Zn12  S    
C21   C37   A    
C106  H202  S    
O35   Zn2   S    
C151  H104  S    
C214  O33   A    
C216  O36   A    
C171  C189  A    
C89   H159  S    
C156  C158  S    
C62   C135  A    
C99   H184  S    
C190  C201  A    
O20   Zn10  S    
C10   C50   A    
C227  O25   A    
C97   H180  S    
C185  H145  S    
C142  H83   S    
C184  H144  S    
C238  H1    S    
C134  H63   S    
C162  C180  A    
C122  H31   S    
C154  H114  S    
C165  O68   S    
C110  H5    S    
C96   H177  S    
C44   C212  S    
Br6   C84   S    
C27   H128  S    
C56   C74   A    
Br11  C73   S    
O36   Zn3   S    
C133  H61   S    
C220  O41   A    
C130  O65   S    
C169  C209  A    
C147  H92   S    
C218  O42   A    
C203  C230  S    
C153  H109  S    
C100  H188  S    
C104  H196  S    
C61   O53   S    
C107  H204  S    
C16   C51   A    
C128  H47   S    
C192  C199  A    
C215  O30   A    
C222  O10   A    
C54   O47   S    
C177  H136  S    
C133  H60   S    
C95   H172  S    
C129  H49   S    
Br1   C70   S    
C168  C185  A    
C67   C85   A    
C128  O64   S    
O1    Zn1   S    
C143  H84   S    
C94   O48   S    
C11   H24   S    
C145  H89   S    
C155  H116  S    
C139  O70   S    
C167  C184  A    
C186  O80   A    
C16   H68   S    
C94   H171  S    
C8    H198  S    
C179  C196  A    
C3    C47   A    
Br9   C71   S    
C4    C21   A    
C123  C125  S    
C220  O39   A    
C177  C194  A    
C19   C240  A    
C115  H14   S    
C100  H186  S    
C121  H30   S    
C126  H41   S    
O17   Zn5   S    
C116  H17   S    
C149  H97   S    
C171  O74   S    
O21   Zn11  S    
O27   Zn12  S    
O80   Zn8   S    
C123  O62   S    
C16   C33   A    
C14   C49   A    
C11   C51   A    
C140  H76   S    
C175  C198  S    
C127  H42   S    
C212  O31   A    
C152  H106  S    
Br7   C85   S    
C131  H55   S    
C30   H131  S    
C179  H138  S    
C89   O46   S    
C161  C205  A    
C68   C211  S    
Br13  C75   S    
C219  O8    A    
C31   C40   A    
C32   C39   A    
C51   C218  S    
C117  H19   S    
C170  O73   S    
C46   C80   A    
C8    C26   A    
C102  H191  S    
C142  H81   S    
C174  O77   S    
C127  H43   S    
C119  C120  S    
C88   H156  S    
C13   C205  S    
C172  C190  A    
C100  O51   S    
C119  H23   S    
C148  C149  S    
C48   C220  S    
O10   Zn5   S    
C57   C210  S    
C154  O77   S    
C69   O61   S    
C169  O72   S    
C161  C179  A    
C52   C70   A    
C123  H36   S    
O22   Zn8   S    
C111  O57   S    
C108  H206  S    
O33   Zn2   S    
C176  C211  A    
C137  C138  S    
Br5   C83   S    
C45   C213  S    
C164  O45   A    
O8    Zn9   S    
C186  C199  S    
C138  H72   S    
C17   H79   S    
C53   C71   A    
C11   C29   A    
C7    C47   A    
C130  H52   S    
C8    C48   A    
O43   Zn4   S    
C217  O37   A    
C159  C203  A    
C13   C74   A    
C112  O56   A    
C29   C42   A    
O45   Zn1   S    
C55   O48   S    
C50   C217  S    
C118  H22   S    
C152  C153  S    
C187  C200  A    
C96   H175  S    
C5    C44   A    
C6    C43   A    
C115  H12   S    
C88   H158  S    
C39   C124  S    
C24   C206  S    
C58   C75   A    
C158  H121  S    
C23   H125  S    
O67   Zn6   S    
C60   C77   A    
C55   C113  A    
C139  H74   S    
Br3   C81   S    
C125  H37   S    
C143  C144  S    
C148  H95   S    
C136  H66   S    
C88   H157  S    
C12   C30   A    
C131  H53   S    
C136  H64   S    
C92   H164  S    
C105  C106  S    
C178  H137  S    
C46   C84   A    
C223  O16   A    
C147  H93   S    
C117  C118  S    
O26   Zn9   S    
C145  O73   S    
C42   C157  S    
C63   C146  A    
C115  C116  S    
C240  H132  S    
C197  C200  S    
C105  H199  S    
C64   C82   A    
C222  O13   A    
C225  C234  S    
C12   H35   S    
C106  H200  S    
C64   C157  A    
C192  H151  S    
C53   C90   A    
C224  O17   A    
C35   C85   A    
C112  O12   A    
C18   C36   A    
C183  C194  A    
C169  C187  A    
C226  O21   A    
C239  H112  S    
C108  H207  S    
C181  C196  A    
C174  C207  A    
O7    Zn10  S    
C213  O35   A    
C155  H117  S    
C176  O79   S    
C111  H7    S    
C53   O46   S    
C117  O59   S    
C166  O69   S    
C138  H70   S    
C22   H124  S    
C176  C193  A    
C114  H10   S    
C149  H99   S    
C103  H192  S    
O78   Zn5   S    
C160  C204  A    
O39   Zn3   S    
C87   C88   S    
C121  O61   S    
C126  C127  S    
C160  C178  A    
C123  H34   S    
C215  O32   A    
C216  O40   A    
C151  H103  S    
C93   H168  S    
Br4   C82   S    
C118  H20   S    
C119  H25   S    
C91   H162  S    
C54   C72   A    
C116  H15   S    
C150  H102  S    
O37   Zn3   S    
C57   C81   A    
C159  O62   S    
C193  C202  A    
C97   H179  S    
C59   O51   S    
C145  H91   S    
C3    C20   A    
O28   Zn12  S    
C92   O47   S    
C26   C39   A    
C37   C101  S    
C34   C79   S    
C125  H39   S    
C22   C36   A    
C6    C23   A    
C10   H13   S    
C122  H32   S    
C110  H6    S    
C120  H27   S    
C92   H166  S    
C185  C199  A    
C219  O4    A    
C178  C195  A    
O5    Zn8   S    
C208  O5    A    
C223  O14   A    
O15   Zn7   S    
C56   C101  A    
C69   C157  A    
O56   Zn7   S    
C98   H181  S    
C162  C206  A    
C232  C235  T    
C107  H203  S    
C4    H154  S    
C15   H57   S    
C213  O28   A    
C36   C90   S    
C70   C230  A    
C43   C238  A    
C175  O34   A    
C191  H150  S    
C165  C182  A    
C25   H126  S    
O9    Zn1   S    
C96   C97   S    
C133  H59   S    
C224  O15   A    
O38   Zn3   S    
O25   Zn10  S    
O40   Zn4   S    
C14   C31   A    
C9    C49   A    
C132  C133  S    
O23   Zn6   S    
C182  H141  S    
C163  C181  A    
C175  O78   A    
C155  H115  S    
C44   C239  A    
C33   C42   A    
C18   C239  A    
C40   C135  S    
C43   C215  S    
C164  O23   A    
C58   C90   A    
C95   H174  S    
C60   C113  A    
O11   Zn6   S    
C184  C198  A    
C55   C73   A    
C121  H29   S    
C180  C198  A    
C168  C207  A    
C170  C188  A    
C197  O6    A    
C182  C195  A    
C60   O52   S    
Br14  C76   S    
C225  O18   A    
C59   C76   A    
O24   Zn11  S    
O19   Zn9   S    
C9    H2    S    
C106  H201  S    
C174  C192  A    
C153  H108  S    
C45   C240  A    
C1    O1    A    
C30   C41   A    
C150  C151  S    
C103  H193  S    
C134  C136  S    
C89   H160  S    
C221  O9    A    
C114  H11   S    
C29   H130  S    
C150  H100  S    
C57   C83   A    
C38   C113  S    
C149  H98   S    
C117  H18   S    
C156  H119  S    
C105  O53   S    
C21   H123  S    
C144  H87   S    
C66   C84   A    
C15   C48   A    
C173  C209  A    
C190  H149  S    
C142  H82   S    
C154  H111  S    
C134  H62   S    
C121  C122  S    
C109  H3    S    
C2    C71   A    
C110  H4    S    
C188  C201  A    
C228  C237  S    
C68   C82   A    
C52   O44   S    
C103  O52   S    
C33   H135  S    
C111  C114  S    
C56   O49   S    
C143  O72   S    
C109  C110  S    
O31   Zn2   S    
C99   H183  S    
C201  C208  S    
C227  C236  S    
C102  H189  S    
C153  H110  S    
C58   O50   S    
C25   C38   A    
C104  H195  S    
C69   C86   A    
C35   C78   A    
C64   O57   S    
C27   C40   A    
C166  C203  A    
C23   C34   A    
C151  H105  S    
C152  O76   S    
C107  O54   S    
C163  O66   S    
C28   H129  S    
Br8   C86   S    
