data_mof_unit_56949.cif
_audit_creation_date              2012-10-26T19:59:15-0400
_audit_creation_method            fapswitch 2.2
_symmetry_space_group_name_H-M    P1
_symmetry_Int_Tables_number       1
_space_group_crystal_system       triclinic
_cell_length_a                    7.483373
_cell_length_b                    8.691317
_cell_length_c                    15.659944
_cell_angle_alpha                 94.291607
_cell_angle_beta                  75.844223
_cell_angle_gamma                 102.777699
_cell_volume                      962.911091149

loop_
_atom_site_label
_atom_site_type_symbol
_atom_type_description
_atom_site_fract_x
_atom_site_fract_y
_atom_site_fract_z
_atom_type_partial_charge
C1    C     C_R   0.544591 0.799836 0.502762 0.517898
C2    C     C_R   0.615334 0.515058 0.333127 0.561362
C3    C     C_R   0.314615 0.444273 0.760460 0.062383
C4    C     C_R   0.686819 0.529928 0.235838 0.009904
C5    C     C_R   0.104096 0.273686 0.876611 0.251636
C6    C     C_R   0.946092 0.601080 0.105571 0.254898
C7    C     C_R   0.149517 0.329490 0.789596 0.251648
C8    C     C_R   0.879304 0.591496 0.198265 0.205112
C9    C     C_R   0.428706 0.505461 0.818687 0.219839
C10   C     C_R   0.560375 0.486740 0.180427 0.171520
C11   C     C_R   0.412156 0.421050 0.895488 -0.068641
C12   C     C_R   0.455779 0.200182 0.496762 0.507366
C13   C     C_R   0.628881 0.478101 0.087823 -0.078622
C14   C     C_R   0.243735 0.307283 0.926409 -0.013312
C15   C     C_R   0.818219 0.552524 0.050340 -0.005310
C16   C     C_R   0.556506 0.449405 0.943141 -0.074866
C17   C     C_R   0.509538 0.403854 0.031527 -0.049508
C18   C     C_3   0.007950 0.804262 0.273038 -0.091160
C19   C     C_3   0.050641 0.125979 0.701187 -0.117894
C20   C     C_3   0.976830 0.722866 0.628803 -0.010857
C21   C     C_3   0.032922 0.274334 0.370848 0.004641
C22   C     C_R   0.351110 0.278126 0.058498 0.302770
C23   C     C_R   0.748493 0.514754 0.904832 0.274296
C24   C     C_R   0.220911 0.229780 0.006179 0.327534
C25   C     C_R   0.875170 0.571762 0.957785 0.329025
C26   C     C_2   0.569337 0.967567 0.504601 -0.162780
C27   C     C_2   0.431377 0.032452 0.494502 -0.170050
C28   C     C_R   0.384692 0.484522 0.666414 0.574570
Cu1   Cu    Cu3+1 0.322120 0.483240 0.490330 1.094375
Cu2   Cu    Cu3+1 0.677880 0.516760 0.509670 1.078186
H1    H     H_    0.702330 0.037971 0.514577 0.164989
H2    H     H_    0.200708 0.123438 0.670225 0.103876
H3    H     H_    0.969909 0.092182 0.649513 0.160550
H4    H     H_    0.993109 0.037033 0.753783 0.130079
H5    H     H_    0.839089 0.192067 0.875749 0.351885
H6    H     H_    0.208175 0.686058 0.113182 0.352739
H7    H     H_    0.455354 0.190954 0.141261 0.336743
H8    H     H_    0.747032 0.424640 0.788268 0.347828
H9    H     H_    0.974992 0.622851 0.669266 0.206449
H10   H     H_    0.837114 0.755622 0.644486 0.169979
H11   H     H_    0.081242 0.823785 0.646531 0.078723
H12   H     H_    0.298334 0.962057 0.484584 0.163559
H13   H     H_    0.940142 0.164645 0.353039 0.083863
H14   H     H_    0.176966 0.251298 0.358422 0.174905
H15   H     H_    0.029132 0.368705 0.327503 0.198134
H16   H     H_    0.068515 0.030384 0.981356 0.339795
H17   H     H_    0.076136 0.753956 0.944886 0.346327
H18   H     H_    0.305822 0.496352 0.176598 0.358445
H19   H     H_    0.568943 0.703334 0.855934 0.352579
H20   H     H_    0.867265 0.824002 0.309899 0.115482
H21   H     H_    0.059129 0.877305 0.213011 0.165734
H22   H     H_    0.107423 0.845281 0.316212 0.158898
N1    N     N_2   0.945180 0.542040 0.524240 0.105604
N2    N     N_2   0.054820 0.457960 0.475760 0.113710
O1    O     O_R   0.384450 0.714270 0.493720 -0.467364
O2    O     O_3   0.053449 0.648294 0.916144 -0.623864
O3    O     O_3   0.369394 0.462105 0.218006 -0.664195
O4    O     O_3   0.550048 0.649944 0.799674 -0.681325
O5    O     O_3   0.003635 0.642799 0.252038 -0.573237
O6    O     O_3   0.028958 0.277656 0.734197 -0.560482
O7    O     O_3   0.926076 0.187904 0.913672 -0.695188
O8    O     O_3   0.136201 0.650923 0.067590 -0.688157
O9    O     O_3   0.329313 0.187467 0.130639 -0.650500
O10   O     O_3   0.821823 0.515237 0.815188 -0.643581
O11   O     O_3   0.034708 0.689719 0.538509 -0.487926
O12   O     O_R   0.615550 0.285730 0.506280 -0.469047
O13   O     O_3   0.964813 0.310766 0.460180 -0.488078
O14   O     O_R   0.684880 0.742590 0.510050 -0.505822
O15   O     O_R   0.315120 0.257410 0.489950 -0.512727
O16   O     O_R   0.265540 0.477900 0.617090 -0.464297
O17   O     O_R   0.734460 0.522100 0.382910 -0.470664
O18   O     O_R   0.565970 0.506210 0.633420 -0.503562
O19   O     O_R   0.434030 0.493790 0.366580 -0.466708
O20   O     O_3   0.078170 0.100739 0.033524 -0.620108

loop_
_geom_bond_atom_site_label_1
_geom_bond_atom_site_label_2
_ccdc_geom_bond_type
Cu2   O14   S    
C2    C4    S    
C12   O15   A    
Cu1   Cu2   S    
C3    C9    A    
C19   O6    S    
C21   H13   S    
C21   H14   S    
N1    O11   S    
C11   C16   A    
C18   O5    S    
C3    C7    A    
C17   C22   A    
C25   O2    S    
C13   C17   A    
C4    C8    A    
C6    O8    S    
C13   C15   A    
C20   H11   S    
C26   C27   D    
C18   H22   S    
H18   O3    S    
H5    O7    S    
C28   O18   A    
N1    N2    D    
C21   O13   S    
Cu1   O15   S    
C5    O7    S    
C9    C11   A    
C27   H12   S    
C24   O20   S    
C5    C14   A    
Cu2   O12   S    
C2    O19   A    
C12   O12   A    
C21   H15   S    
H6    O8    S    
C19   H2    S    
C3    C28   S    
H7    O9    S    
H17   O2    S    
C18   H21   S    
Cu2   O17   S    
C16   C23   A    
H8    O10   S    
C10   O3    S    
C23   C25   A    
C8    O5    S    
C1    O1    A    
C1    C26   S    
C20   H10   S    
Cu2   N1    S    
C22   C24   A    
C15   C25   A    
Cu1   O19   S    
Cu1   N2    S    
H19   O4    S    
C12   C27   S    
C4    C10   A    
C2    O17   A    
C20   O11   S    
H16   O20   S    
C1    O14   A    
C18   H20   S    
C9    O4    S    
C19   H3    S    
C14   C24   A    
C11   C14   A    
C5    C7    A    
C20   H9    S    
C23   O10   S    
C6    C8    A    
N2    O13   S    
Cu1   O1    S    
C6    C15   A    
Cu1   O16   S    
C26   H1    S    
C10   C13   A    
C28   O16   A    
C7    O6    S    
C22   O9    S    
C16   C17   A    
Cu2   O18   S    
C19   H4    S    
