data_mof_unit_40331.cif
_audit_creation_date              2012-12-10T17:02:56-0500
_audit_creation_method            fapswitch 2.2
_symmetry_space_group_name_H-M    P1
_symmetry_Int_Tables_number       1
_space_group_crystal_system       triclinic
_cell_length_a                    9.787239
_cell_length_b                    11.048497
_cell_length_c                    13.37199
_cell_angle_alpha                 94.348909
_cell_angle_beta                  80.836351
_cell_angle_gamma                 111.368474
_cell_volume                      1329.1345031

loop_
_atom_site_label
_atom_site_type_symbol
_atom_type_description
_atom_site_fract_x
_atom_site_fract_y
_atom_site_fract_z
_atom_type_partial_charge
C1    C     C_R   0.556619 0.745524 0.507217 0.897739
C2    C     C_R   0.444290 0.491057 0.971437 0.117056
C3    C     C_R   0.461408 0.453732 0.867760 0.077052
C4    C     C_R   0.550661 0.491847 0.033097 0.030212
C5    C     C_R   0.650775 0.427158 0.996582 0.153121
C6    C     C_R   0.657844 0.379640 0.897040 -0.216022
C7    C     C_R   0.566214 0.394110 0.833198 -0.177132
C8    C     C_R   0.557787 0.550588 0.131271 -0.093491
C9    C     C_R   0.720503 0.440203 0.163434 -0.215009
C10   C     C_R   0.367922 0.470307 0.802572 -0.182427
C11   C     C_2   0.588603 0.884740 0.511092 -0.330603
C12   C     C_R   0.419257 0.481989 0.691237 0.789589
C13   C     C_2   0.484433 0.930533 0.497700 -0.117959
C14   C     C_2   0.411534 0.115273 0.488615 -0.336581
C15   C     C_2   0.515873 0.069499 0.501642 -0.158615
C16   C     C_2   0.922519 0.489360 0.491602 -0.071304
C17   C     C_2   0.077151 0.510117 0.508787 -0.009653
C18   C     C_R   0.443408 0.254476 0.492724 0.850429
C19   C     C_R   0.579145 0.513021 0.309296 0.856218
C20   C     C_R   0.739039 0.406394 0.061257 -0.171563
C21   C     C_R   0.625342 0.507504 0.199824 -0.117311
C22   C     C_R   0.235681 0.491068 0.847061 0.002566
C23   C     C_R   0.211234 0.512400 0.951525 -0.185779
C24   C     C_R   0.314235 0.514453 0.012487 -0.148942
Cu1   Cu    Cu3+1 0.362000 0.479240 0.482530 0.995635
Cu2   Cu    Cu3+1 0.638000 0.520760 0.517470 0.952258
H1    H     H_    0.776807 0.409949 0.214673 0.151957
H2    H     H_    0.374881 0.865283 0.483783 0.185674
H3    H     H_    0.302092 0.049748 0.474873 0.157260
H4    H     H_    0.697972 0.950257 0.524987 0.151919
H5    H     H_    0.125747 0.579037 0.567057 0.163109
H6    H     H_    0.873544 0.419779 0.433795 0.152723
H7    H     H_    0.106326 0.383765 0.400925 0.188036
H8    H     H_    0.894800 0.618314 0.597585 0.197667
H9    H     H_    0.733434 0.329510 0.868634 0.167667
H10   H     H_    0.814203 0.355360 0.034463 0.139339
H11   H     H_    0.286219 0.527225 0.093101 0.139917
H12   H     H_    0.110221 0.526461 0.986720 0.165505
H13   H     H_    0.571760 0.349609 0.758560 0.173297
H14   H     H_    0.625496 0.134757 0.515411 0.183196
N1    N     N_2   0.845330 0.551960 0.543750 -0.285079
N2    N     N_2   0.154690 0.448120 0.456210 -0.275997
O1    O     O_R   0.426290 0.668220 0.490680 -0.565624
O2    O     O_R   0.659360 0.703290 0.520190 -0.572244
O3    O     O_R   0.326580 0.473880 0.629020 -0.544642
O4    O     O_R   0.559660 0.508940 0.658530 -0.573598
O5    O     O_R   0.340640 0.296710 0.479810 -0.567895
O6    O     O_R   0.573710 0.331780 0.509320 -0.589445
O7    O     O_R   0.440340 0.491060 0.341470 -0.548103
O8    O     O_R   0.673420 0.526120 0.370980 -0.585869
C25   C     C_2   0.526343 0.673659 0.153824 0.812937
O9    O     O_2   0.498206 0.709120 0.240959 -0.596495
O10   O     O_R   0.536506 0.752865 0.074028 -0.744731
H15   H     H_    0.514611 0.834013 0.098163 0.338628
C26   C     C_2   0.115513 0.484881 0.789941 0.825164
O11   O     O_2   0.062703 0.390385 0.735657 -0.589098
O12   O     O_R   0.055202 0.582832 0.804218 -0.767503
H16   H     H_    0.970379 0.565775 0.763935 0.322844

loop_
_geom_bond_atom_site_label_1
_geom_bond_atom_site_label_2
_ccdc_geom_bond_type
Cu1   N2    S    
C2    C4    A    
C23   C24   A    
C13   H2    S    
C6    C7    A    
Cu1   O3    S    
C16   H6    S    
C23   H12   S    
Cu1   O5    S    
C9    C20   A    
C1    C11   S    
C13   C15   S    
Cu2   O6    S    
C4    C8    A    
C18   O5    A    
Cu1   O1    S    
C26   O11   D    
C26   O12   S    
C24   H11   S    
Cu2   O2    S    
C3    C10   A    
Cu2   N1    S    
O10   H15   S    
C10   C22   A    
C11   C13   D    
C8    C25   S    
C9    C21   A    
O12   H16   S    
C22   C26   S    
H8    N1    S    
C10   C12   S    
H7    N2    S    
C19   C21   S    
C2    C3    A    
C3    C7    A    
Cu2   O8    S    
C2    C24   A    
C5    C6    A    
C17   H5    S    
Cu1   O7    S    
C15   H14   S    
C16   C17   S    
Cu2   O4    S    
C14   H3    S    
C25   O9    D    
C20   H10   S    
C19   O8    A    
C6    H9    S    
C9    H1    S    
C12   O4    A    
C5    C20   A    
C14   C18   S    
C14   C15   D    
C4    C5    A    
C7    H13   S    
C1    O2    A    
Cu1   Cu2   S    
C17   N2    D    
C19   O7    A    
C16   N1    D    
C1    O1    A    
C22   C23   A    
C11   H4    S    
C18   O6    A    
C12   O3    A    
C25   O10   S    
C8    C21   A    
