data_mof_unit_33261.cif
_audit_creation_date              2012-12-11T14:46:00-0500
_audit_creation_method            fapswitch 2.2
_symmetry_space_group_name_H-M    P1
_symmetry_Int_Tables_number       1
_space_group_crystal_system       triclinic
_cell_length_a                    10.915575
_cell_length_b                    10.903759
_cell_length_c                    18.829724
_cell_angle_alpha                 89.969904
_cell_angle_beta                  90.188088
_cell_angle_gamma                 119.704432
_cell_volume                      1946.61715054

loop_
_atom_site_label
_atom_site_type_symbol
_atom_type_description
_atom_site_fract_x
_atom_site_fract_y
_atom_site_fract_z
_atom_type_partial_charge
C1    C     C_R   0.865035 0.637390 0.603630 0.547534
C2    C     C_R   0.423243 0.625513 0.777532 -0.114865
C3    C     C_R   0.401900 0.616748 0.705224 -0.130401
C4    C     C_R   0.322874 0.672026 0.675362 0.026650
C5    C     C_R   0.838792 0.162430 0.821365 -0.033089
C6    C     C_R   0.087309 0.223435 0.825045 -0.089936
C7    C     C_R   0.208618 0.243965 0.790606 -0.124134
C8    C     C_R   0.205505 0.219021 0.718033 -0.129870
C9    C     C_R   0.083093 0.180906 0.678898 -0.081886
C10   C     C_R   0.961941 0.171052 0.711515 0.010741
C11   C     C_R   0.961724 0.183026 0.786645 -0.001987
C12   C     C_R   0.270590 0.632799 0.603754 0.552485
C13   C     C_R   0.716254 0.115727 0.707450 0.012582
C14   C     C_R   0.724016 0.150897 0.779524 0.029412
C15   C     C_R   0.586017 0.062885 0.671178 -0.067518
C16   C     C_R   0.474755 0.071763 0.701635 -0.117699
C17   C     C_R   0.490917 0.130255 0.768799 -0.140453
C18   C     C_R   0.614806 0.171751 0.807053 -0.073737
C19   C     C_R   0.841728 0.149974 0.671426 -0.042907
C20   C     C_R   0.727616 0.534763 0.713472 -0.138271
C21   C     C_R   0.718238 0.546045 0.786575 -0.158005
C22   C     C_R   0.802712 0.676128 0.819534 0.028704
C23   C     C_R   0.860980 0.221421 0.601613 0.534691
C24   C     C_R   0.886994 0.796779 0.778506 -0.127979
C25   C     C_R   0.894653 0.786171 0.706160 -0.145633
C26   C     C_R   0.820748 0.654350 0.673641 0.022676
C27   C     C_R   0.237742 0.515920 0.270734 0.255777
C28   C     C_R   0.264073 0.539726 0.198797 -0.123741
C29   C     C_R   0.311301 0.674299 0.169402 -0.007296
C30   C     C_R   0.301002 0.778277 0.210046 -0.011080
C31   C     C_R   0.260761 0.748379 0.281531 -0.165683
C32   C     C_R   0.236949 0.621240 0.312965 0.018066
C33   C     C_R   0.769803 0.233730 0.277049 -0.132089
C34   C     C_R   0.864665 0.639608 0.398057 0.539019
C35   C     C_R   0.771071 0.222468 0.204412 -0.141897
C36   C     C_R   0.849241 0.167303 0.173046 0.024122
C37   C     C_R   0.936755 0.136160 0.215092 -0.109881
C38   C     C_R   0.935179 0.147179 0.288721 -0.080665
C39   C     C_R   0.850711 0.195283 0.319915 0.043665
C40   C     C_R   0.913984 0.784775 0.292873 -0.137624
C41   C     C_R   0.909195 0.790574 0.220514 -0.135000
C42   C     C_R   0.807436 0.675376 0.181382 0.035392
C43   C     C_R   0.706818 0.554149 0.216668 -0.144772
C44   C     C_R   0.715328 0.545938 0.290177 -0.147743
C45   C     C_R   0.207473 0.596121 0.389125 0.590670
C46   C     C_R   0.822894 0.659819 0.327952 0.035401
C47   C     C_R   0.807457 0.105906 0.895138 0.530255
C48   C     C_R   0.399589 0.702351 0.895333 0.542263
C49   C     C_R   0.794000 0.696435 0.894943 0.546456
C50   C     C_R   0.809211 0.108599 0.102043 0.544327
C51   C     C_R   0.390409 0.702837 0.102525 0.550388
C52   C     C_R   0.795741 0.698017 0.106364 0.546333
C53   C     C_R   0.863092 0.232325 0.394608 0.539182
C54   C     C_R   0.270392 0.741711 0.718075 -0.125734
C55   C     C_R   0.294903 0.753458 0.790726 -0.131130
C56   C     C_R   0.367575 0.691275 0.820599 0.042549
Cr1   Cr    Cr6+3 0.791660 0.390250 0.499930 1.002553
Cr2   Cr    Cr6+3 0.098520 0.708290 0.500540 0.996656
Cr3   Cr    Cr6+3 0.109770 0.401430 0.499480 1.024464
Cr4   Cr    Cr6+3 0.874790 0.925890 0.000070 0.997158
Cr5   Cr    Cr6+3 0.574120 0.948670 0.999300 0.998978
Cr6   Cr    Cr6+3 0.551420 0.625320 0.000920 1.001838
H1    H     H_    0.205396 0.781775 0.695905 0.138710
H2    H     H_    0.377707 0.037270 0.672262 0.103986
H3    H     H_    0.572682 0.020782 0.617839 0.125340
H4    H     H_    0.406671 0.141393 0.791901 0.099982
H5    H     H_    0.668755 0.431513 0.689047 0.147086
H6    H     H_    0.647984 0.453951 0.817326 0.108678
H7    H     H_    0.948114 0.900397 0.802260 0.154263
H8    H     H_    0.965402 0.879655 0.676355 0.129186
H9    H     H_    0.258785 0.454176 0.167251 0.143062
H10   H     H_    0.254118 0.806671 0.823500 0.118180
H11   H     H_    0.253159 0.826944 0.313462 0.139301
H12   H     H_    0.706154 0.274535 0.299489 0.131305
H13   H     H_    0.703809 0.248923 0.173179 0.122440
H14   H     H_    0.001505 0.098192 0.191267 0.114553
H15   H     H_    0.001187 0.120863 0.321019 0.133328
H16   H     H_    0.996788 0.875214 0.320529 0.122644
H17   H     H_    0.986066 0.887265 0.195501 0.125399
H18   H     H_    0.624003 0.466257 0.187640 0.108969
H19   H     H_    0.642502 0.449084 0.316904 0.105641
H20   H     H_    0.483245 0.580197 0.799949 0.140779
H21   H     H_    0.441661 0.561566 0.673198 0.127677
H22   H     H_    0.304997 0.278813 0.820587 0.102944
H23   H     H_    0.298645 0.230521 0.691756 0.103204
H24   H     H_    0.094330 0.245356 0.881407 0.127438
H25   H     H_    0.083718 0.156246 0.623364 0.126829
H26   H     H_    0.624889 0.222896 0.857628 0.130835
O1    O     O_R   0.766500 0.250040 0.579790 -0.514971
O2    O     O_R   0.218690 0.701900 0.425960 -0.521375
O3    O     O_R   0.249490 0.516440 0.419420 -0.476125
O4    O     O_R   0.982880 0.281910 0.424890 -0.494823
O5    O     O_3   0.999980 0.499990 0.499980 -0.261521
O6    O     O_R   0.895110 0.806860 0.920430 -0.525432
O7    O     O_R   0.872260 0.046970 0.925000 -0.506077
O8    O     O_R   0.691430 0.085060 0.918550 -0.524155
O9    O     O_R   0.451490 0.822460 0.925250 -0.500002
O10   O     O_R   0.413330 0.603360 0.920440 -0.532648
O11   O     O_R   0.676110 0.626250 0.926750 -0.510724
O12   O     O_R   0.798570 0.516780 0.574780 -0.501458
O13   O     O_R   0.895350 0.809870 0.080950 -0.538585
O14   O     O_R   0.872490 0.049760 0.073800 -0.508388
O15   O     O_R   0.691680 0.088070 0.079070 -0.532098
O16   O     O_R   0.451720 0.825250 0.074050 -0.506174
O17   O     O_R   0.413580 0.606370 0.080960 -0.530302
O18   O     O_R   0.676340 0.629040 0.075550 -0.499067
O19   O     O_3   0.666780 0.833290 0.000090 -0.237255
O20   O     O_R   0.984000 0.732950 0.581090 -0.530322
O21   O     O_R   0.218600 0.700890 0.574760 -0.508274
O22   O     O_R   0.249390 0.515350 0.579940 -0.515690
O23   O     O_R   0.982790 0.280900 0.573700 -0.506581
O24   O     O_R   0.766600 0.251130 0.419260 -0.533294
O25   O     O_R   0.798660 0.517790 0.425980 -0.510291
O26   O     O_R   0.984100 0.734040 0.420570 -0.536527
O27   O     O_3   0.207432 0.387226 0.299565 -0.557603
C57   C     C_3   0.329807 0.374230 0.298946 -0.115999
H27   H     H_    0.421311 0.467676 0.323601 0.138745
H28   H     H_    0.356012 0.356880 0.244238 0.094748
H29   H     H_    0.309176 0.280407 0.330862 0.124054
C58   C     C_3   0.331208 0.920112 0.180446 -0.262252
C59   C     C_3   0.229233 0.903580 0.120373 -0.407525
H30   H     H_    0.265570 0.886035 0.068512 0.166913
H31   H     H_    0.123093 0.812552 0.130750 0.172280
H32   H     H_    0.221185 0.000935 0.115940 0.121291
H33   H     H_    0.319539 0.984638 0.222795 0.113643
H34   H     H_    0.442181 0.982343 0.162499 0.183824

loop_
_geom_bond_atom_site_label_1
_geom_bond_atom_site_label_2
_ccdc_geom_bond_type
C55   C56   A    
Cr2   O21   S    
C41   C42   A    
C14   C18   A    
C20   H5    S    
C35   C36   A    
C12   O22   A    
Cr5   O8    S    
C7    C8    A    
Cr6   O17   S    
C39   C53   S    
C34   O25   A    
C40   C46   A    
C48   O9    A    
C5    C47   S    
C35   H13   S    
C17   H4    S    
C33   C39   A    
Cr1   O1    S    
C36   C37   A    
Cr5   O15   S    
Cr2   O5    S    
C5    C11   A    
C30   C31   A    
C58   H34   S    
C31   H11   S    
Cr1   O24   S    
C54   H1    S    
C15   C16   A    
C15   H3    S    
Cr3   O22   S    
C57   H27   S    
C8    H23   S    
C32   C45   S    
C59   H32   S    
Cr6   O10   S    
C27   O27   S    
C8    C9    A    
Cr3   O23   S    
C47   O8    A    
C23   O1    A    
C34   C46   S    
C49   O6    A    
C4    C12   S    
C29   C30   A    
C9    C10   A    
C55   H10   S    
C7    H22   S    
C52   O18   A    
C50   O15   A    
Cr1   O5    S    
C21   C22   A    
Cr4   O14   S    
C1    O12   A    
C12   O21   A    
C44   C46   A    
C24   H7    S    
C23   O23   A    
C52   O13   A    
C30   C58   S    
C13   C19   A    
C40   H16   S    
Cr5   O16   S    
C24   C25   A    
C44   H19   S    
C6    C11   A    
C58   H33   S    
C16   C17   A    
Cr1   O25   S    
Cr6   O19   S    
C43   H18   S    
Cr1   O12   S    
C18   H26   S    
C19   C23   S    
C43   C44   A    
C37   C38   A    
C16   H2    S    
C49   O11   A    
C31   C32   A    
C10   C19   A    
C51   O17   A    
C53   O4    A    
C17   C18   A    
C5    C14   A    
Cr3   O3    S    
C45   O2    A    
Cr2   O2    S    
C59   H30   S    
Cr4   O19   S    
C22   C49   S    
C53   O24   A    
C40   C41   A    
C37   H14   S    
C50   O14   A    
C13   C15   A    
C21   H6    S    
C3    H21   S    
C1    C26   S    
C22   C24   A    
C2    H20   S    
C28   H9    S    
C42   C43   A    
Cr4   O13   S    
C36   C50   S    
C58   C59   S    
C29   C51   S    
C48   C56   S    
C54   C55   A    
C28   C29   A    
C51   O16   A    
C4    C54   A    
C27   C32   A    
Cr5   O9    S    
C41   H17   S    
C6    C7    A    
Cr6   O18   S    
C38   H15   S    
C34   O26   A    
C48   O10   A    
C6    H24   S    
C57   H29   S    
C2    C3    A    
C25   C26   A    
C2    C56   A    
C9    H25   S    
O27   C57   S    
C38   C39   A    
C20   C26   A    
C33   C35   A    
C57   H28   S    
Cr2   O20   S    
Cr3   O4    S    
C45   O3    A    
C59   H31   S    
C10   C11   A    
C1    O20   A    
Cr6   O11   S    
Cr4   O7    S    
C33   H12   S    
C20   C21   A    
Cr5   O19   S    
C27   C28   A    
Cr2   O26   S    
C47   O7    A    
C25   H8    S    
Cr3   O5    S    
C13   C14   A    
C3    C4    A    
C42   C52   S    
Cr4   O6    S    
