data_mof_unit_47139.cif
_audit_creation_date              2012-12-10T17:02:15-0500
_audit_creation_method            fapswitch 2.2
_symmetry_space_group_name_H-M    P1
_symmetry_Int_Tables_number       1
_space_group_crystal_system       triclinic
_cell_length_a                    10.656626
_cell_length_b                    10.724025
_cell_length_c                    10.061168
_cell_angle_alpha                 89.621985
_cell_angle_beta                  89.814307
_cell_angle_gamma                 89.282542
_cell_volume                      1149.68873091

loop_
_atom_site_label
_atom_site_type_symbol
_atom_type_description
_atom_site_fract_x
_atom_site_fract_y
_atom_site_fract_z
_atom_type_partial_charge
C1    C     C_R   0.505812 0.262311 0.500289 0.830524
C2    C     C_2   0.530421 0.130498 0.498971 -0.131167
C3    C     C_2   0.409063 0.540751 0.924751 -0.045139
C4    C     C_R   0.260952 0.498967 0.500245 0.848495
C5    C     C_2   0.418905 0.557206 0.072816 -0.160692
C6    C     C_R   0.491817 0.736855 0.499354 0.976361
C7    C     C_R   0.739453 0.502313 0.499782 0.913125
C8    C     C_R   0.131788 0.281921 0.595377 -0.218981
C9    C     C_R   0.067090 0.178125 0.643642 0.008315
C10   C     C_R   0.935942 0.180282 0.641085 -0.148579
C11   C     C_R   0.870825 0.284294 0.591977 -0.165500
C12   C     C_R   0.066487 0.389083 0.548120 0.078906
C13   C     C_R   0.935341 0.390967 0.546526 0.087326
C14   C     C_2   0.611378 0.075720 0.606176 0.874720
C15   C     C_2   0.555189 0.385551 0.105891 1.036398
C16   C     C_2   0.136759 0.068704 0.698217 0.926839
C17   C     C_2   0.876980 0.728185 0.416932 0.948445
C18   C     C_R   0.129108 0.494846 0.501026 -0.086777
C19   C     C_R   0.066903 0.601262 0.456269 -0.227966
C20   C     C_R   0.937702 0.607001 0.456482 -0.061100
C21   C     C_R   0.872434 0.499832 0.499493 -0.162037
C22   C     C_2   0.494191 0.933194 0.387005 -0.094732
C23   C     C_2   0.470186 0.867728 0.496908 -0.262694
C24   C     C_2   0.490193 0.067259 0.392378 -0.228164
H1    H     H_    0.120695 0.680888 0.422662 0.181920
H2    H     H_    0.233220 0.278403 0.595177 0.185844
H3    H     H_    0.302489 0.995770 0.758919 0.345754
H4    H     H_    0.883680 0.101714 0.678531 0.211216
H5    H     H_    0.895112 0.914630 0.395264 0.369724
H6    H     H_    0.517567 0.889364 0.292906 0.192681
H7    H     H_    0.588630 0.496591 0.895218 0.178151
H8    H     H_    0.353138 0.621696 0.119125 0.159431
H9    H     H_    0.769743 0.280498 0.591249 0.148594
H10   H     H_    0.439444 0.911794 0.588355 0.155476
H11   H     H_    0.445616 0.114402 0.308636 0.193413
H12   H     H_    0.660629 0.075079 0.799737 0.339314
H13   H     H_    0.321683 0.567403 0.876826 0.165504
H14   H     H_    0.531866 0.219499 0.016314 0.351951
N1    N     N_2   0.501340 0.501330 0.852150 -0.167124
N2    N     N_2   0.501380 0.501360 0.147810 -0.166376
O1    O     O_R   0.499980 0.319060 0.613040 -0.552174
O2    O     O_R   0.600159 0.118682 0.736667 -0.770100
O3    O     O_2   0.663071 0.359377 0.137137 -0.617233
O4    O     O_R   0.483023 0.298659 0.037568 -0.791853
O5    O     O_2   0.080946 0.973565 0.728400 -0.603411
O6    O     O_R   0.266547 0.074559 0.716905 -0.798543
O7    O     O_2   0.769020 0.732815 0.376812 -0.610925
O8    O     O_R   0.945502 0.838444 0.424356 -0.778372
O9    O     O_R   0.500020 0.319100 0.386900 -0.624306
O10   O     O_R   0.316750 0.499980 0.613090 -0.620774
O11   O     O_R   0.316790 0.500020 0.386950 -0.623912
O12   O     O_R   0.499980 0.680900 0.613100 -0.616483
O13   O     O_R   0.500020 0.680940 0.386960 -0.603205
O14   O     O_R   0.683210 0.499980 0.613050 -0.624936
O15   O     O_R   0.683250 0.500020 0.386910 -0.551856
O16   O     O_2   0.689515 0.995061 0.579557 -0.617972
Zn1   Zn    Zn3+2 0.499970 0.499970 0.650990 1.006640
Zn2   Zn    Zn3+2 0.500030 0.500030 0.349010 1.018015

loop_
_geom_bond_atom_site_label_1
_geom_bond_atom_site_label_2
_ccdc_geom_bond_type
C16   O5    D    
C14   O16   D    
O13   Zn2   S    
H14   O4    S    
C8    C12   A    
C8    H2    S    
C9    C10   A    
H12   O2    S    
C19   C20   A    
C17   O8    S    
C7    O15   A    
C14   O2    S    
C5    H8    S    
C4    C18   S    
C23   H10   S    
C4    O11   A    
C12   C18   A    
C13   C21   A    
O11   Zn2   S    
C20   C21   A    
C11   C13   A    
O15   Zn2   S    
C2    C14   S    
C6    C23   S    
C6    O13   A    
H3    O6    S    
C1    O1    A    
C9    C16   S    
H7    N1    S    
C15   O4    S    
C1    C2    S    
C2    C24   D    
C19   H1    S    
C22   C24   S    
C15   N2    S    
O1    Zn1   S    
C24   H11   S    
N2    Zn2   S    
O12   Zn1   S    
H5    O8    S    
C15   O3    D    
N1    Zn1   S    
C11   H9    S    
C17   C20   S    
C12   C13   A    
C3    H13   S    
C18   C19   A    
C10   C11   A    
C5    N2    D    
C10   H4    S    
C3    N1    D    
C22   C23   D    
C16   O6    S    
C22   H6    S    
C7    O14   A    
C6    O12   A    
C7    C21   S    
O10   Zn1   S    
C1    O9    A    
O9    Zn2   S    
C17   O7    D    
C4    O10   A    
C8    C9    A    
C3    C5    S    
O14   Zn1   S    
