data_mof_unit_42819.cif
_audit_creation_date              2012-12-10T18:59:56-0500
_audit_creation_method            fapswitch 2.2
_symmetry_space_group_name_H-M    P1
_symmetry_Int_Tables_number       1
_space_group_crystal_system       triclinic
_cell_length_a                    10.736017
_cell_length_b                    10.639978
_cell_length_c                    9.885674
_cell_angle_alpha                 90.94033
_cell_angle_beta                  90.523985
_cell_angle_gamma                 90.862861
_cell_volume                      1128.92034042

loop_
_atom_site_label
_atom_site_type_symbol
_atom_type_description
_atom_site_fract_x
_atom_site_fract_y
_atom_site_fract_z
_atom_type_partial_charge
C1    C     C_R   0.498835 0.260146 0.499099 0.857612
C2    C     C_R   0.436397 0.064929 0.601635 -0.211950
C3    C     C_R   0.502345 0.872331 0.502048 0.000713
C4    C     C_R   0.497651 0.127667 0.497952 0.000696
C5    C     C_R   0.561428 0.591734 0.075757 -0.130716
C6    C     C_R   0.438564 0.408271 0.924241 -0.130697
C7    C     C_R   0.562101 0.592701 0.932383 0.255803
C8    C     C_R   0.437902 0.407297 0.067616 0.255772
C9    C     C_R   0.260205 0.502935 0.499166 0.868826
C10   C     C_R   0.739795 0.497068 0.500834 0.868809
C11   C     C_R   0.236266 0.761194 0.146420 0.168235
C12   C     C_R   0.501164 0.739853 0.500901 0.857592
C13   C     C_R   0.763737 0.238805 0.853566 0.168234
C14   C     C_R   0.179865 0.714735 0.263392 -0.113149
C15   C     C_R   0.820139 0.285272 0.736598 -0.113153
C16   C     C_R   0.118915 0.596979 0.260536 0.101755
C17   C     C_R   0.881086 0.403030 0.739463 0.101764
C18   C     C_R   0.114293 0.526097 0.139634 -0.165415
C19   C     C_R   0.885703 0.473909 0.860368 -0.165373
C20   C     C_R   0.170578 0.571869 0.023185 -0.167577
C21   C     C_R   0.829417 0.428128 0.976814 -0.167579
C22   C     C_R   0.231343 0.688844 0.026135 -0.144832
C23   C     C_R   0.872359 0.495080 0.502288 -0.082741
C24   C     C_R   0.768655 0.311150 0.973855 -0.144828
C25   C     C_R   0.932698 0.540508 0.387950 -0.254545
C26   C     C_R   0.067303 0.459508 0.612052 -0.254549
C27   C     C_3   0.630380 0.699277 0.866758 -0.839515
C28   C     C_3   0.369647 0.300706 0.133243 -0.839445
C29   C     C_R   0.127641 0.504931 0.497713 -0.082750
C30   C     C_R   0.939551 0.453450 0.615886 0.004185
C31   C     C_R   0.060450 0.546565 0.384116 0.004181
C32   C     C_R   0.560740 0.063762 0.395929 -0.202580
C33   C     C_R   0.439256 0.936236 0.604072 -0.202553
C34   C     C_R   0.563597 0.935070 0.398364 -0.211934
H1    H     H_    0.274851 0.722601 0.934962 0.126405
H2    H     H_    0.119691 0.425330 0.697953 0.157074
H3    H     H_    0.609158 0.113208 0.316572 0.139679
H4    H     H_    0.390839 0.886789 0.683431 0.139696
H5    H     H_    0.613197 0.884615 0.319932 0.140036
H6    H     H_    0.386797 0.115383 0.680068 0.140033
H7    H     H_    0.609795 0.664725 0.133970 0.136721
H8    H     H_    0.390196 0.335284 0.866025 0.136710
H9    H     H_    0.687196 0.665611 0.781536 0.277212
H10   H     H_    0.562891 0.770468 0.833415 0.239233
H11   H     H_    0.695838 0.747344 0.939072 0.193069
H12   H     H_    0.725147 0.277387 0.065026 0.126396
H13   H     H_    0.312674 0.334396 0.218337 0.277108
H14   H     H_    0.304353 0.252472 0.060871 0.193033
H15   H     H_    0.437175 0.229621 0.166763 0.239340
H16   H     H_    0.330856 0.904952 0.055695 0.165773
H17   H     H_    0.374810 0.874890 0.214662 0.200424
H18   H     H_    0.669142 0.095043 0.944278 0.165782
H19   H     H_    0.625196 0.125108 0.785303 0.200424
H20   H     H_    0.183843 0.770004 0.356432 0.116789
H21   H     H_    0.816164 0.230006 0.643553 0.116786
H22   H     H_    0.068681 0.434608 0.136278 0.142447
H23   H     H_    0.931311 0.565400 0.863731 0.142444
H24   H     H_    0.167868 0.516148 0.930658 0.143275
H25   H     H_    0.832123 0.483846 0.069345 0.143268
H26   H     H_    0.880309 0.574686 0.302050 0.157072
N1    N     N_R   0.499970 0.499970 0.857200 -0.093171
N2    N     N_R   0.500030 0.500030 0.142800 -0.093164
N3    N     N_3   0.297064 0.882131 0.151251 -0.468511
N4    N     N_3   0.702941 0.117865 0.848724 -0.468503
O1    O     O_R   0.499990 0.316750 0.614620 -0.630005
O2    O     O_R   0.500010 0.683250 0.385380 -0.630008
O3    O     O_R   0.499990 0.316780 0.385290 -0.625290
O4    O     O_R   0.500010 0.683220 0.614710 -0.625276
O5    O     O_R   0.316760 0.500000 0.614660 -0.628062
O6    O     O_R   0.683240 0.500000 0.385340 -0.628059
O7    O     O_R   0.316760 0.500020 0.385330 -0.613444
O8    O     O_R   0.683240 0.499980 0.614670 -0.613491
Zn1   Zn    Zn3+2 0.500000 0.499980 0.653120 0.936229
Zn2   Zn    Zn3+2 0.500000 0.500020 0.346880 0.936233

loop_
_geom_bond_atom_site_label_1
_geom_bond_atom_site_label_2
_ccdc_geom_bond_type
O6    Zn2   S    
O7    Zn2   S    
C2    C4    A    
H19   N4    S    
C28   H13   S    
O5    Zn1   S    
C17   C19   A    
C17   C30   S    
C25   H26   S    
C9    C29   S    
C10   C23   S    
O2    Zn2   S    
C5    C7    A    
C28   H15   S    
C11   C22   A    
C1    O1    A    
C33   H4    S    
C18   H22   S    
C1    C4    S    
C24   H12   S    
C27   H11   S    
C23   C25   A    
C20   C22   A    
H17   N3    S    
C29   C31   A    
O3    Zn2   S    
C32   H3    S    
C19   H23   S    
C16   C31   S    
C22   H1    S    
C12   O4    A    
C32   C34   A    
C4    C32   A    
C13   N4    S    
C7    N1    A    
C10   O6    A    
C2    C33   A    
C26   H2    S    
C1    O3    A    
C9    O5    A    
C5    N2    A    
C21   H25   S    
C18   C20   A    
H16   N3    S    
C13   C15   A    
H18   N4    S    
C8    C28   S    
C11   C14   A    
C14   C16   A    
C21   C24   A    
C3    C33   A    
C20   H24   S    
C34   H5    S    
C14   H20   S    
C23   C30   A    
C2    H6    S    
C7    C27   S    
C6    N1    A    
C26   C29   A    
C16   C18   A    
C6    H8    S    
O1    Zn1   S    
C8    N2    A    
C15   C17   A    
C27   H9    S    
C5    H7    S    
N2    Zn2   S    
C6    C8    A    
C3    C12   S    
C3    C34   A    
N1    Zn1   S    
O4    Zn1   S    
C27   H10   S    
C11   N3    S    
C12   O2    A    
C25   C31   A    
C28   H14   S    
C9    O7    A    
C13   C24   A    
C10   O8    A    
O8    Zn1   S    
C19   C21   A    
C26   C30   A    
C15   H21   S    
