data_mof_unit_25730.cif
_audit_creation_date              2013-03-05T16:44:40-0500
_audit_creation_method            fapswitch 2.2
_symmetry_space_group_name_H-M    P1
_symmetry_Int_Tables_number       1
_space_group_crystal_system       triclinic
_cell_length_a                    27.75581
_cell_length_b                    10.744138
_cell_length_c                    9.849007
_cell_angle_alpha                 89.722517
_cell_angle_beta                  89.278954
_cell_angle_gamma                 91.447967
_cell_volume                      2935.88507703

loop_
_atom_site_label
_atom_site_type_symbol
_atom_site_description
_atom_site_fract_x
_atom_site_fract_y
_atom_site_fract_z
_atom_type_partial_charge
O1    O     O_R   0.500010 0.316790 0.614690 -0.607471
O2    O     O_R   0.500000 0.316760 0.385350 -0.589058
C1    C     C_R   0.502367 0.259878 0.499523 0.890112
O3    O     O_R   0.428760 0.500040 0.614660 -0.621314
O4    O     O_R   0.428750 0.500000 0.385310 -0.625922
C2    C     C_R   0.405960 0.500712 0.500914 0.884669
Zn1   Zn    Zn3+2 0.500000 0.500020 0.653130 0.956766
Zn2   Zn    Zn3+2 0.500000 0.499980 0.346870 1.006068
O5    O     O_R   0.500000 0.683240 0.614650 -0.627676
O6    O     O_R   0.499990 0.683210 0.385310 -0.578369
O7    O     O_R   0.571250 0.500000 0.614690 -0.629768
O8    O     O_R   0.571240 0.499960 0.385340 -0.564956
C3    C     C_R   0.501566 0.740094 0.499660 0.915974
C4    C     C_R   0.594187 0.501664 0.499124 0.879073
C5    C     C_R   0.175289 0.395736 0.479172 0.490020
O9    O     O_2   0.199270 0.292931 0.443721 -0.527185
N1    N     N_R   0.200832 0.500661 0.515499 -0.353435
C6    C     C_R   0.178438 0.605354 0.558276 0.576127
C7    C     C_R   0.276801 0.481780 0.390246 -0.147311
C8    C     C_R   0.326824 0.481747 0.385720 -0.223957
C9    C     C_R   0.328790 0.522828 0.627286 -0.310343
C10   C     C_R   0.278538 0.517608 0.634292 0.276028
C11   C     C_R   0.252401 0.499187 0.513750 0.282422
C12   C     C_R   0.101034 0.499663 0.534021 -0.101537
C13   C     C_R   0.124473 0.394021 0.482824 -0.043749
C14   C     C_R   0.096472 0.290138 0.439864 0.244557
C15   C     C_R   0.128459 0.604872 0.574147 -0.085793
C16   C     C_R   0.353192 0.502082 0.504223 -0.056267
H1    H     H_    0.348670 0.541725 0.718841 0.148168
C17   C     C_R   0.647254 0.511188 0.499337 -0.110124
C18   C     C_R   0.971726 0.394731 0.524048 0.045725
C19   C     C_R   0.976792 0.617022 0.577874 0.046187
C20   C     C_R   0.948885 0.508606 0.549457 0.068459
C21   C     C_R   0.942947 0.285822 0.511786 -0.278051
C22   C     C_R   0.892858 0.290205 0.508129 0.232232
C23   C     C_R   0.869908 0.405208 0.520875 -0.052271
C24   C     C_R   0.897975 0.514763 0.543205 -0.139930
C25   C     C_R   0.875259 0.630608 0.558382 -0.055446
C26   C     C_R   0.824797 0.634191 0.546411 0.518799
N2    N     N_R   0.798671 0.527240 0.525338 -0.359531
C27   C     C_R   0.819571 0.414390 0.513846 0.517212
C28   C     C_R   0.726028 0.515994 0.388907 -0.141590
C29   C     C_R   0.675689 0.505563 0.378487 0.205593
C30   C     C_R   0.669899 0.530577 0.624943 -0.244624
C31   C     C_R   0.719602 0.540951 0.632549 -0.110287
C32   C     C_R   0.747584 0.532212 0.515057 0.278791
O10   O     O_2   0.791233 0.312057 0.495429 -0.524795
C33   C     C_R   0.022552 0.393767 0.509359 0.055480
C34   C     C_R   0.050191 0.500827 0.545153 0.030220
C35   C     C_R   0.027287 0.609169 0.592753 -0.025483
C36   C     C_R   0.046427 0.290693 0.454837 -0.274983
H2    H     H_    0.749179 0.507075 0.300526 0.141712
H3    H     H_    0.958466 0.194813 0.507285 0.147904
H4    H     H_    0.026817 0.210955 0.415664 0.144398
O11   O     O_2   0.204668 0.709449 0.586290 -0.550030
C37   C     C_R   0.105916 0.704647 0.636472 -0.162305
H5    H     H_    0.344680 0.465535 0.289672 0.158535
H6    H     H_    0.256829 0.468054 0.297507 0.154185
H7    H     H_    0.127135 0.780406 0.679562 0.221127
C38   C     C_R   0.953824 0.731629 0.581338 -0.216004
C39   C     C_R   0.903881 0.739098 0.579324 0.224682
O12   O     O_2   0.801719 0.743049 0.553013 -0.523884
C40   C     C_R   0.056182 0.704807 0.652603 0.341814
H8    H     H_    0.974341 0.818209 0.581787 0.189201
H9    H     H_    0.649231 0.536894 0.718575 0.177074
H10   H     H_    0.736531 0.552405 0.730344 0.141097
C41   C     C_R   0.512524 0.063501 0.619487 0.106719
C42   C     C_R   0.511416 0.128830 0.497084 -0.162656
C43   C     C_R   0.519413 0.064255 0.373646 0.188906
C44   C     C_R   0.517671 0.934959 0.375867 -0.252325
H11   H     H_    0.520034 0.885349 0.280758 0.215680
C45   C     C_R   0.509704 0.871520 0.498807 -0.147216
C46   C     C_R   0.512115 0.936185 0.620491 0.146091
C47   C     C_3   0.479780 0.927441 0.742635 -0.478701
C48   C     C_3   0.479662 0.068332 0.740319 -0.477502
H12   H     H_    0.444001 0.883597 0.720706 0.205303
H13   H     H_    0.498365 0.888749 0.832234 0.216155
H14   H     H_    0.443970 0.105396 0.713784 0.224985
H15   H     H_    0.497565 0.111499 0.829465 0.206916
C49   C     C_R   0.472967 0.413842 0.073218 0.120256
N3    N     N_R   0.499670 0.499140 0.142800 -0.130986
C50   C     C_R   0.530064 0.577843 0.069485 0.405491
C51   C     C_R   0.529823 0.577960 0.925690 -0.207665
H16   H     H_    0.553042 0.642561 0.869206 0.181776
N4    N     N_R   0.499670 0.499180 0.857150 -0.140402
C52   C     C_R   0.473528 0.412059 0.930377 0.133259
C53   C     C_3   0.420026 0.392262 0.927663 0.013008
C54   C     C_3   0.419639 0.398623 0.081812 -0.547559
H17   H     H_    0.401191 0.469223 0.876885 0.163344
H18   H     H_    0.402407 0.483999 0.119980 0.193684
H19   H     H_    0.408104 0.310943 0.134643 0.210965
N5    N     N_2   0.883186 0.857048 0.600460 -0.258402
H20   H     H_    0.903096 0.928489 0.555394 0.204794
C55   C     C_3   0.872365 0.882220 0.741735 -0.657971
H21   H     H_    0.906243 0.891239 0.800326 0.238145
H22   H     H_    0.849225 0.806326 0.786580 0.252369
H23   H     H_    0.852597 0.970371 0.750049 0.229704
Cl1   Cl    Cl    0.034265 0.812183 0.772627 -0.653685
N6    N     N_2   0.525937 0.126993 0.246814 -0.279963
H24   H     H_    0.511492 0.079928 0.165146 0.216291
C56   C     C_3   0.574968 0.169713 0.220590 -0.711734
H25   H     H_    0.576177 0.229595 0.128325 0.224245
H26   H     H_    0.598549 0.088952 0.203989 0.244666
H27   H     H_    0.588673 0.225016 0.307573 0.230343
N7    N     N_2   0.254583 0.535741 0.761350 -0.284739
H28   H     H_    0.274800 0.585086 0.831007 0.228808
C57   C     C_3   0.231887 0.425214 0.820648 -0.769385
H29   H     H_    0.212662 0.450391 0.915781 0.242034
H30   H     H_    0.259403 0.355784 0.845272 0.235311
H31   H     H_    0.205158 0.382934 0.750849 0.258003
Cl2   Cl    Cl    0.568941 0.683625 0.150901 -0.633922
N8    N     N_2   0.406904 0.269136 0.878291 -0.282156
H32   H     H_    0.422870 0.197240 0.929410 0.232332
C58   C     C_3   0.356001 0.246690 0.858128 -0.781401
H33   H     H_    0.349814 0.150486 0.820298 0.244194
H34   H     H_    0.342541 0.312093 0.780986 0.256225
H35   H     H_    0.335793 0.257585 0.955289 0.242126
N9    N     N_2   0.117861 0.185146 0.377996 -0.247956
H36   H     H_    0.101214 0.101337 0.404307 0.229147
C59   C     C_3   0.124750 0.197564 0.232649 -0.668384
H37   H     H_    0.144250 0.115929 0.193524 0.246764
H38   H     H_    0.146524 0.283039 0.207640 0.246458
H39   H     H_    0.089323 0.201774 0.181641 0.217573
N10   N     N_2   0.653668 0.483168 0.250129 -0.255082
H40   H     H_    0.636257 0.397797 0.243007 0.226292
C60   C     C_3   0.678569 0.522784 0.126627 -0.700908
H41   H     H_    0.652978 0.519383 0.040886 0.247203
H42   H     H_    0.708480 0.459365 0.102907 0.208974
H43   H     H_    0.692550 0.620099 0.136466 0.260515
N11   N     N_2   0.865762 0.177102 0.496091 -0.247360
H44   H     H_    0.872413 0.115476 0.573225 0.222872
C61   C     C_3   0.867158 0.121478 0.362709 -0.679335
H45   H     H_    0.842300 0.038910 0.361007 0.259725
H46   H     H_    0.904162 0.091090 0.337419 0.201405
H47   H     H_    0.855314 0.189121 0.284994 0.251376

loop_
_geom_bond_atom_site_label_1
_geom_bond_atom_site_label_2
_geom_bond_distance
_ccdc_geom_bond_type
C53   C54   1.519998 S    
C56   H25   1.110543 S    
C46   C47   1.492978 S    
N11   C61   1.446343 S    
C7    C8    1.388584 A    
C12   C15   1.407756 A    
C15   C37   1.395744 A    
N8    C58   1.443617 S    
C58   H33   1.110432 S    
C23   C27   1.405662 A    
Zn1   N4    2.009276 S    
C31   C32   1.390395 A    
C30   C31   1.384236 A    
Zn1   O7    2.008836 S    
N7    C57   1.447185 S    
N1    C11   1.431701 S    
C47   H12   1.112429 S    
C23   C24   1.414644 A    
C1    C42   1.436726 S    
C40   Cl1   1.768893 S    
C61   H47   1.111370 S    
O4    C2    1.295670 A    
O7    C4    1.296969 A    
C5    C13   1.410084 A    
C5    O9    1.349085 S    
C5    N1    1.367999 A    
C21   C22   1.393142 A    
C28   C32   1.395555 A    
O5    C3    1.283894 A    
N9    H36   1.032065 S    
C49   C52   1.406957 A    
C33   C36   1.409900 A    
C2    C16   1.465010 S    
C22   C23   1.409794 A    
C42   C43   1.420501 A    
C47   H13   1.111922 S    
C57   H29   1.110400 S    
C18   C20   1.414085 A    
C44   H11   1.082093 S    
C41   C46   1.367640 A    
C61   H45   1.110315 S    
C59   H39   1.111665 S    
C25   C39   1.411377 A    
C56   H26   1.111494 S    
C9    C10   1.395337 A    
C35   C40   1.422194 A    
C57   H30   1.109169 S    
C17   C30   1.408649 A    
C30   H9    1.083216 S    
C55   H21   1.111828 S    
C4    C17   1.473932 S    
O3    Zn1   2.017980 S    
N8    H32   1.032330 S    
C59   H38   1.111441 S    
N3    C50   1.375061 A    
C7    H6    1.083159 S    
C37   C40   1.387581 A    
C47   C48   1.513899 S    
C41   C42   1.393117 A    
C12   C13   1.414357 A    
O3    C2    1.293660 A    
C26   N2    1.361369 A    
C52   C53   1.495417 S    
C45   C46   1.389699 A    
C53   N8    1.451021 S    
C8    C16   1.400525 A    
C60   H43   1.111134 S    
C13   C14   1.413453 A    
N4    C52   1.367025 A    
C9    H1    1.080477 S    
C20   C24   1.418363 A    
Zn2   N3    2.010086 S    
C38   C39   1.390929 A    
O1    C1    1.292916 A    
C7    C11   1.400412 A    
C24   C25   1.417078 A    
C51   H16   1.082198 S    
C54   H19   1.111988 S    
Zn2   O8    2.017980 S    
N5    C55   1.447974 S    
N1    C6    1.364707 A    
C27   O10   1.349895 S    
C18   C21   1.406551 A    
C55   H22   1.111474 S    
C22   N11   1.419099 S    
C19   C35   1.415590 A    
C6    O11   1.350520 S    
C43   N6    1.423916 S    
C61   H46   1.111245 S    
N2    C27   1.361850 A    
N6    C56   1.444961 S    
C9    C16   1.402518 A    
O8    C4    1.295926 A    
C50   C51   1.416339 A    
C56   H27   1.110577 S    
C18   C33   1.416619 A    
C53   H17   1.109759 S    
C57   H31   1.108232 S    
C17   C29   1.422210 A    
C41   C48   1.492171 S    
C28   C29   1.403947 A    
N2    C32   1.425181 S    
C59   H37   1.110298 S    
N10   C60   1.448230 S    
C12   C34   1.414452 A    
Zn1   O5    2.002887 S    
C26   O12   1.349073 S    
C33   C34   1.414936 A    
C60   H42   1.110551 S    
C51   N4    1.362547 A    
O1    Zn1   2.006529 S    
O2    Zn2   2.002888 S    
C6    C15   1.393907 A    
C14   N9    1.423959 S    
C54   H18   1.110171 S    
C49   N3    1.357728 A    
O6    C3    1.284678 A    
O4    Zn2   2.008838 S    
C58   H34   1.107184 S    
C39   N5    1.419708 S    
C3    C45   1.424330 S    
C10   N7    1.426177 S    
N7    H28   1.031889 S    
C55   H23   1.109339 S    
C37   H7    1.083936 S    
C38   H8    1.078416 S    
C36   H4    1.078892 S    
C50   Cl2   1.751487 S    
N11   H44   1.026860 S    
C49   C54   1.486350 S    
N6    H24   1.032095 S    
C19   C20   1.413559 A    
C25   C26   1.408535 A    
C60   H41   1.110433 S    
N5    H20   1.029884 S    
O2    C1    1.280444 A    
C43   C44   1.388854 A    
C48   H14   1.110734 S    
N9    C59   1.446924 S    
C58   H35   1.111279 S    
C21   H3    1.079295 S    
Zn2   O6    2.006528 S    
C34   C35   1.419188 A    
C31   H10   1.083181 S    
C19   C38   1.401197 A    
C10   C11   1.411257 A    
C44   C45   1.399016 A    
C8    H5    1.079353 S    
C14   C36   1.395143 A    
C48   H15   1.111844 S    
C29   N10   1.429898 S    
C28   H2    1.081504 S    
N10   H40   1.029003 S    
