data_mof_unit_47091.cif
_audit_creation_date              2012-12-10T17:48:45-0500
_audit_creation_method            fapswitch 2.2
_symmetry_space_group_name_H-M    P1
_symmetry_Int_Tables_number       1
_space_group_crystal_system       triclinic
_cell_length_a                    15.743459
_cell_length_b                    10.72379
_cell_length_c                    9.934871
_cell_angle_alpha                 91.369511
_cell_angle_beta                  91.103575
_cell_angle_gamma                 93.552375
_cell_volume                      1673.23717241

loop_
_atom_site_label
_atom_site_type_symbol
_atom_type_description
_atom_site_fract_x
_atom_site_fract_y
_atom_site_fract_z
_atom_type_partial_charge
C1    C     C_R   0.510279 0.262077 0.498931 0.900262
C2    C     C_R   0.573446 0.081979 0.864096 0.584666
C3    C     C_R   0.528891 0.966429 0.874912 -0.185671
C4    C     C_R   0.338453 0.499295 0.499097 0.896552
C5    C     C_R   0.498465 0.898855 0.760580 -0.199762
C6    C     C_R   0.511543 0.945818 0.629962 0.093449
C7    C     C_R   0.540076 0.071022 0.620408 -0.026245
C8    C     C_R   0.526022 0.130701 0.497157 -0.183931
C9    C     C_R   0.511107 0.060915 0.376695 0.470158
C10   C     C_R   0.498114 0.933186 0.383581 -0.318934
C11   C     C_R   0.497219 0.874913 0.507851 -0.156725
C12   C     C_3   0.949025 0.427588 0.640402 0.604450
C13   C     C_R   0.394874 0.310373 0.122440 0.354046
C14   C     C_R   0.357542 0.210515 0.041043 0.360515
C15   C     C_R   0.358863 0.215705 0.901639 0.409202
C16   C     C_R   0.496578 0.740296 0.502383 0.903781
C17   C     C_R   0.398727 0.321845 0.845869 -0.380261
C18   C     C_R   0.449790 0.410583 0.922140 0.045174
C19   C     C_R   0.449321 0.408055 0.066237 0.083743
C20   C     C_R   0.547754 0.585773 0.075237 -0.114791
C21   C     C_R   0.547838 0.585541 0.932428 -0.131629
C22   C     C_R   0.661543 0.500758 0.501205 0.878477
C23   C     C_3   0.917276 0.495333 0.510593 -0.099826
C24   C     C_3   0.049798 0.422110 0.635853 0.864533
C25   C     C_3   0.043294 0.418127 0.377860 0.153630
C26   C     C_3   0.944690 0.425464 0.379167 0.305025
C27   C     C_1   0.750301 0.499740 0.504498 -0.179873
C28   C     C_3   0.082759 0.493612 0.504571 -0.152888
C29   C     C_3   0.099050 0.588632 0.798657 -0.168799
C30   C     C_3   0.661714 0.244207 0.965864 -0.289236
C31   C     C_3   0.072206 0.223125 0.731742 -0.109499
C32   C     C_3   0.231534 0.097037 0.079816 -0.270115
C33   C     C_3   0.304438 0.135202 0.691166 -0.312731
C34   C     C_3   0.956723 0.632350 0.511856 0.034365
C35   C     C_3   0.123640 0.386122 0.184826 -0.301671
C36   C     C_3   0.875688 0.272302 0.238336 -0.283968
C37   C     C_3   0.053386 0.630375 0.487918 0.123974
C38   C     C_1   0.825501 0.498163 0.507836 0.097168
C39   C     C_1   0.174271 0.494977 0.500238 0.175111
C40   C     C_1   0.249560 0.496958 0.497966 -0.190207
C41   C     C_R   0.578648 0.134318 0.734924 -0.247325
H1    H     H_    0.612345 0.223846 0.721974 0.155942
H2    H     H_    0.064811 0.657499 0.381782 0.236819
H3    H     H_    0.944877 0.677852 0.611107 0.176815
H4    H     H_    0.849765 0.307730 0.661764 0.328103
H5    H     H_    0.043344 0.639838 0.769580 0.213054
H6    H     H_    0.159812 0.632869 0.763193 0.212959
H7    H     H_    0.102975 0.595080 0.910200 0.177290
H8    H     H_    0.864091 0.493429 0.762711 0.320609
H9    H     H_    0.934089 0.790689 0.431097 0.345311
H10   H     H_    0.495643 0.055600 0.180775 0.354938
H11   H     H_    0.628294 0.324045 0.925649 0.174217
H12   H     H_    0.518930 0.927061 0.973155 0.145266
H13   H     H_    0.715416 0.219589 0.901133 0.146839
H14   H     H_    0.689241 0.274891 0.065666 0.200132
H15   H     H_    0.021134 0.243293 0.803394 0.198999
H16   H     H_    0.135092 0.240565 0.783449 0.158868
H17   H     H_    0.064833 0.122403 0.702986 0.153665
H18   H     H_    0.324853 0.254135 0.273749 0.337793
H19   H     H_    0.204371 0.187171 0.053908 0.106477
H20   H     H_    0.200855 0.064507 0.173365 0.168280
H21   H     H_    0.214268 0.026290 0.998957 0.222363
H22   H     H_    0.267666 0.219504 0.678489 0.158932
H23   H     H_    0.461452 0.813152 0.778448 0.194260
H24   H     H_    0.264703 0.054374 0.648152 0.199113
H25   H     H_    0.364083 0.141806 0.633630 0.181271
H26   H     H_    0.083857 0.301589 0.150794 0.151674
H27   H     H_    0.178900 0.359342 0.246706 0.163568
H28   H     H_    0.148827 0.432571 0.094008 0.207692
H29   H     H_    0.928438 0.281618 0.165743 0.166066
H30   H     H_    0.823289 0.331572 0.208563 0.158953
H31   H     H_    0.850063 0.173553 0.234292 0.203755
H32   H     H_    0.083760 0.804095 0.537872 0.337915
H33   H     H_    0.488112 0.879503 0.290198 0.173689
H34   H     H_    0.586851 0.656026 0.131697 0.147781
H35   H     H_    0.389392 0.333740 0.742366 0.251361
H36   H     H_    0.587083 0.655613 0.881955 0.147531
H37   H     H_    0.057246 0.317583 0.384533 0.193754
H38   H     H_    0.925234 0.483705 0.293010 0.181817
N1    N     N_R   0.499210 0.498800 0.142780 -0.079203
N2    N     N_R   0.499180 0.498720 0.857170 -0.090406
O1    O     O_R   0.500000 0.316780 0.614690 -0.665233
O2    O     O_3   0.093101 0.461355 0.760579 -0.640833
O3    O     O_3   0.926900 0.491314 0.759622 -0.814454
O4    O     O_3   0.918443 0.701036 0.410591 -0.761193
O5    O     O_3   0.509936 0.118542 0.253676 -0.693887
O6    O     O_3   0.604142 0.140293 0.984077 -0.605221
O7    O     O_3   0.068594 0.293972 0.613065 -0.647740
O8    O     O_3   0.372451 0.315276 0.254139 -0.699917
O9    O     O_3   0.320816 0.105562 0.101751 -0.587564
O10   O     O_3   0.321776 0.112761 0.827967 -0.578039
O11   O     O_3   0.074579 0.470219 0.256235 -0.616070
O12   O     O_R   0.499990 0.316750 0.385360 -0.481035
O13   O     O_3   0.904543 0.302896 0.371024 -0.566884
O14   O     O_3   0.100499 0.721045 0.567260 -0.817388
O15   O     O_R   0.377150 0.500020 0.614720 -0.640184
O16   O     O_R   0.377140 0.499990 0.385380 -0.545355
O17   O     O_R   0.500010 0.683250 0.614640 -0.634132
O18   O     O_R   0.500000 0.683220 0.385310 -0.625660
O19   O     O_R   0.622860 0.500010 0.614620 -0.632391
O20   O     O_R   0.622850 0.499980 0.385280 -0.606741
O21   O     O_3   0.910988 0.304422 0.641085 -0.706723
Zn1   Zn    Zn3+2 0.500010 0.500020 0.653130 0.926805
Zn2   Zn    Zn3+2 0.499990 0.499980 0.346870 1.021383

loop_
_geom_bond_atom_site_label_1
_geom_bond_atom_site_label_2
_ccdc_geom_bond_type
C26   O13   S    
C34   C37   S    
C10   H33   S    
C41   H1    S    
C33   H24   S    
C7    C8    A    
C25   C28   S    
C30   H13   S    
C12   C23   S    
C12   O3    S    
C22   O20   A    
C29   H6    S    
C28   C37   S    
C31   H17   S    
C24   O2    S    
C32   H20   S    
C29   O2    S    
C33   O10   S    
C5    C6    A    
C27   C38   T    
O17   Zn1   S    
C1    C8    S    
C18   N2    A    
C37   O14   S    
C18   C19   A    
H18   O8    S    
C23   C26   S    
C14   O9    S    
H9    O4    S    
C4    O15   A    
C32   O9    S    
C4    C40   S    
C8    C9    A    
C17   H35   S    
O1    Zn1   S    
C31   H15   S    
C9    C10   A    
C36   H30   S    
C35   O11   S    
O18   Zn2   S    
C13   C14   A    
O12   Zn2   S    
C36   H29   S    
C33   H25   S    
C22   O19   A    
C20   N1    A    
C29   H7    S    
C25   H37   S    
C34   H3    S    
H4    O21   S    
C6    C11   A    
C13   C19   A    
C28   C39   S    
C1    O1    A    
O19   Zn1   S    
C20   H34   S    
C34   O4    S    
C37   H2    S    
C12   O21   S    
C9    O5    S    
C11   C16   S    
C35   H26   S    
C33   H22   S    
C23   C34   S    
C17   C18   A    
C2    O6    S    
C24   O7    S    
C35   H28   S    
N1    Zn2   S    
O20   Zn2   S    
C22   C27   S    
H32   O14   S    
C39   C40   T    
H8    O3    S    
N2    Zn1   S    
C15   C17   A    
C30   H11   S    
C25   O11   S    
C31   O7    S    
C13   O8    S    
C24   C28   S    
C21   N2    A    
C3    C5    A    
C16   O18   A    
C6    C7    A    
C23   C38   S    
C30   H14   S    
C12   C24   S    
C26   H38   S    
C29   H5    S    
C31   H16   S    
C2    C3    A    
C25   C26   S    
C32   H21   S    
C3    H12   S    
C16   O17   A    
C35   H27   S    
C7    C41   A    
C19   N1    A    
H10   O5    S    
O16   Zn2   S    
C10   C11   A    
C15   O10   S    
C36   O13   S    
C20   C21   A    
C5    H23   S    
C1    O12   A    
O15   Zn1   S    
C21   H36   S    
C32   H19   S    
C14   C15   A    
C2    C41   A    
C30   O6    S    
C4    O16   A    
C36   H31   S    
