data_mof_unit_49626.cif
_audit_creation_date              2012-12-10T18:58:44-0500
_audit_creation_method            fapswitch 2.2
_symmetry_space_group_name_H-M    P1
_symmetry_Int_Tables_number       1
_space_group_crystal_system       triclinic
_cell_length_a                    12.990121
_cell_length_b                    10.840093
_cell_length_c                    9.545982
_cell_angle_alpha                 90.619694
_cell_angle_beta                  96.0685
_cell_angle_gamma                 90.520078
_cell_volume                      1336.52760698

loop_
_atom_site_label
_atom_site_type_symbol
_atom_type_description
_atom_site_fract_x
_atom_site_fract_y
_atom_site_fract_z
_atom_type_partial_charge
C1    C     C_R   0.497630 0.262476 0.498797 0.807817
C2    C     C_R   0.027396 0.482519 0.561983 0.170119
C3    C     C_R   0.972270 0.533164 0.441381 0.128694
C4    C     C_R   0.865081 0.539167 0.432067 -0.246254
C5    C     C_R   0.866916 0.449910 0.664210 -0.202324
C6    C     C_R   0.974402 0.441930 0.673685 -0.181720
C7    C     C_R   0.452057 0.065501 0.605469 0.046789
C8    C     C_R   0.487105 0.129615 0.493662 -0.098813
C9    C     C_R   0.508060 0.063236 0.373030 -0.174777
C10   C     C_R   0.509316 0.934837 0.375010 -0.179421
C11   C     C_R   0.488670 0.871218 0.496919 -0.169765
C12   C     C_R   0.300564 0.504766 0.473516 0.823207
C13   C     C_R   0.451721 0.938202 0.607115 0.104306
C14   C     C_3   0.481735 0.937797 0.762941 0.301468
C15   C     C_3   0.481516 0.078050 0.760050 -0.493047
C16   C     C_R   0.586617 0.534438 0.086324 0.260648
C17   C     C_R   0.419058 0.451857 0.062189 -0.069782
C18   C     C_R   0.418829 0.452304 0.913369 -0.000887
C19   C     C_R   0.587166 0.532506 0.939070 0.241129
C20   C     C_3   0.643387 0.652407 0.940560 -0.477013
C21   C     C_3   0.640342 0.656817 0.098825 -0.482136
C22   C     C_R   0.497941 0.737841 0.500178 0.808272
C23   C     C_R   0.699384 0.499340 0.526433 0.794649
C24   C     C_R   0.812021 0.496843 0.542178 -0.044257
C25   C     C_R   0.187644 0.515370 0.457903 -0.058082
C26   C     C_R   0.024610 0.577461 0.331556 -0.198281
C27   C     C_R   0.132389 0.571015 0.338847 0.148559
C28   C     C_R   0.134385 0.473033 0.568768 -0.273509
Cu1   Cu    Cu3+1 0.499990 0.499980 0.640670 0.981506
Cu2   Cu    Cu3+1 0.500010 0.500020 0.359330 0.948575
H1    H     H_    0.822976 0.577077 0.338985 0.136760
H2    H     H_    0.560113 0.900886 0.792129 0.051285
H3    H     H_    0.419599 0.122260 0.814431 0.235864
H4    H     H_    0.559887 0.119672 0.785876 0.167071
H5    H     H_    0.353275 0.413583 0.107684 0.137408
H6    H     H_    0.352401 0.415256 0.848182 0.130231
H7    H     H_    0.722745 0.642277 0.908567 0.185570
H8    H     H_    0.596183 0.724050 0.884659 0.236669
H9    H     H_    0.718464 0.652659 0.157357 0.177119
H10   H     H_    0.590298 0.731189 0.133605 0.231480
H11   H     H_    0.826664 0.416895 0.750467 0.151235
H12   H     H_    0.981228 0.618121 0.240475 0.136500
H13   H     H_    0.015858 0.403624 0.767496 0.139469
H14   H     H_    0.176288 0.431985 0.660738 0.153973
H15   H     H_    0.529991 0.109911 0.280731 0.178150
H16   H     H_    0.532377 0.886287 0.284082 0.185511
N1    N     N_R   0.500660 0.500930 0.148010 -0.186010
N2    N     N_R   0.500660 0.500890 0.852110 -0.168027
O1    O     O_R   0.500000 0.319640 0.618810 -0.587557
O2    O     O_R   0.500010 0.319680 0.381230 -0.585359
O3    O     O_R   0.348990 0.499960 0.599490 -0.568421
O4    O     O_R   0.349000 0.500000 0.361910 -0.590831
O5    O     O_R   0.499990 0.680320 0.618770 -0.548108
O6    O     O_R   0.500000 0.680360 0.381190 -0.586842
O7    O     O_R   0.651000 0.500000 0.638090 -0.594322
O8    O     O_R   0.651010 0.500040 0.400510 -0.585295
C29   C     C_3   0.185297 0.628018 0.221493 -0.780824
H17   H     H_    0.130249 0.679887 0.147606 0.224879
H18   H     H_    0.246464 0.694084 0.265583 0.237266
H19   H     H_    0.219320 0.554897 0.159323 0.235056
S1    S     S_3+6 0.381974 0.874840 0.858132 -0.009749
O9    O     O_2   0.280050 0.934102 0.811513 -0.279959
O10   O     O_2   0.372589 0.738162 0.831994 -0.282819
O11   O     O_3   0.413136 0.902293 0.031075 -0.564401
H20   H     H_    0.363534 0.851896 0.078730 0.371357

loop_
_geom_bond_atom_site_label_1
_geom_bond_atom_site_label_2
_ccdc_geom_bond_type
C10   H16   S    
S1    O11   S    
C18   N2    A    
C23   C24   S    
C16   C21   S    
C23   O7    A    
Cu1   Cu2   S    
C25   C27   A    
C1    C8    S    
C20   H8    S    
C1    O2    A    
C15   H4    S    
Cu1   O7    S    
C19   C20   S    
C21   H9    S    
C12   C25   S    
O11   H20   S    
Cu2   O6    S    
C27   C29   S    
C7    C15   S    
C17   C18   A    
C26   C27   A    
C7    C8    A    
C22   O6    A    
Cu1   O1    S    
C13   C14   S    
C25   C28   A    
C9    H15   S    
C20   H7    S    
C11   C13   A    
C23   O8    A    
C29   H17   S    
C2    C6    A    
C21   H10   S    
Cu1   O5    S    
C16   C19   A    
C5    C6    A    
C16   N1    A    
C17   H5    S    
C12   O4    A    
C28   H14   S    
C2    C3    A    
C22   O5    A    
Cu2   O8    S    
C6    H13   S    
Cu1   O3    S    
S1    O9    D    
C4    C24   A    
C29   H18   S    
C4    H1    S    
C10   C11   A    
Cu1   N2    S    
C3    C4    A    
Cu2   N1    S    
C7    C13   A    
C12   O3    A    
C20   C21   S    
C26   H12   S    
C8    C9    A    
C9    C10   A    
S1    O10   D    
C5    H11   S    
C14   C15   S    
C5    C24   A    
C29   H19   S    
C2    C28   A    
C11   C22   S    
Cu2   O2    S    
C19   N2    A    
C14   S1    S    
C18   H6    S    
C15   H3    S    
C3    C26   A    
C17   N1    A    
C14   H2    S    
Cu2   O4    S    
C1    O1    A    
