data_mof_unit_45219.cif
_audit_creation_date              2013-03-05T15:48:29-0500
_audit_creation_method            fapswitch 2.2
_symmetry_space_group_name_H-M    P1
_symmetry_Int_Tables_number       1
_space_group_crystal_system       triclinic
_cell_length_a                    20.109578
_cell_length_b                    7.123034
_cell_length_c                    13.825978
_cell_angle_alpha                 89.997239
_cell_angle_beta                  103.723424
_cell_angle_gamma                 90.00087
_cell_volume                      1923.91232751

loop_
_atom_site_label
_atom_site_type_symbol
_atom_site_description
_atom_site_fract_x
_atom_site_fract_y
_atom_site_fract_z
_atom_type_partial_charge
O1    O     O_R   0.449830 0.506740 0.599960 -0.602618
O2    O     O_R   0.550170 0.006740 0.400040 -0.602611
O3    O     O_R   0.588980 0.179860 0.596720 -0.598977
O4    O     O_R   0.411020 0.679860 0.403280 -0.598989
C1    C     C_R   0.616709 0.344876 0.616864 0.981265
C2    C     C_R   0.383295 0.844881 0.383129 0.981358
O5    O     O_R   0.452740 0.177340 0.612040 -0.572083
O6    O     O_R   0.547260 0.677340 0.387960 -0.572079
O7    O     O_R   0.412960 0.002070 0.415460 -0.605981
O8    O     O_R   0.587040 0.502070 0.584540 -0.605987
C3    C     C_R   0.435330 0.346007 0.635710 0.980339
C4    C     C_R   0.564669 0.846015 0.364289 0.980272
O9    O     O_3   0.487110 0.337570 0.435490 -0.276904
O10   O     O_3   0.512890 0.837570 0.564510 -0.276933
V1    V     V_3+5 0.502390 0.064650 0.511970 1.230654
V2    V     V_3+5 0.497610 0.564650 0.488030 1.230660
C5    C     C_R   0.608322 0.961525 0.124609 0.404621
C6    C     C_R   0.391669 0.461440 0.875385 0.404635
H1    H     H_    0.517079 0.964115 0.179663 0.202050
H2    H     H_    0.482912 0.464092 0.820331 0.202046
C7    C     C_R   0.603371 0.859683 0.288523 -0.159939
C8    C     C_R   0.396626 0.359647 0.711472 -0.159958
C9    C     C_R   0.929127 0.784786 0.314819 0.331246
C10   C     C_R   0.070850 0.284875 0.685184 0.331499
C11   C     C_R   0.893519 0.797214 0.390088 -0.058807
C12   C     C_R   0.106462 0.297109 0.609916 -0.058822
C13   C     C_R   0.824488 0.839429 0.368566 -0.185937
C14   C     C_R   0.175503 0.339220 0.631431 -0.186045
C15   C     C_R   0.787031 0.861771 0.269523 0.111102
C16   C     C_R   0.212964 0.361638 0.730470 0.111105
C17   C     C_R   0.823737 0.873153 0.193134 0.032849
C18   C     C_R   0.176260 0.373083 0.806860 0.032845
C19   C     C_R   0.714130 0.873240 0.244726 0.078270
C20   C     C_R   0.285866 0.373122 0.755266 0.078276
C21   C     C_R   0.678976 0.914471 0.145451 -0.170894
C22   C     C_R   0.321018 0.414358 0.854540 -0.170900
C23   C     C_R   0.714267 0.899299 0.069044 0.378697
C24   C     C_R   0.285727 0.399190 0.930946 0.378728
C25   C     C_R   0.786177 0.890075 0.093608 -0.326001
C26   C     C_R   0.213819 0.390000 0.906383 -0.326037
C27   C     C_R   0.674386 0.837833 0.314636 -0.214994
C28   C     C_R   0.325612 0.337757 0.685358 -0.214997
C29   C     C_R   0.570953 0.927759 0.195382 -0.144147
C30   C     C_R   0.429041 0.427713 0.804612 -0.144116
C31   C     C_R   0.896483 0.847481 0.216984 -0.310538
C32   C     C_R   0.103513 0.347498 0.783015 -0.310496
H3    H     H_    0.696791 0.791736 0.389607 0.116704
H4    H     H_    0.303213 0.291678 0.610385 0.116648
H5    H     H_    0.801379 0.847243 0.431276 0.172286
H6    H     H_    0.198614 0.346909 0.568720 0.172316
H7    H     H_    0.918426 0.764147 0.466557 0.219951
H8    H     H_    0.081544 0.263981 0.533461 0.219872
H9    H     H_    0.812304 0.881505 0.033748 0.159897
H10   H     H_    0.187693 0.381460 0.966244 0.159827
C33   C     C_3   0.234567 0.743998 0.151122 -0.563025
C34   C     C_3   0.765442 0.243964 0.848854 -0.562774
H11   H     H_    0.211691 0.603463 0.134033 0.248570
H12   H     H_    0.788308 0.103407 0.865868 0.248666
H13   H     H_    0.239335 0.803353 0.078590 0.206258
H14   H     H_    0.760707 0.303186 0.921430 0.206169
C35   C     C_3   0.306092 0.723765 0.223988 0.302190
C36   C     C_3   0.693898 0.223844 0.776031 0.302153
H15   H     H_    0.310547 0.577005 0.252754 0.136436
H16   H     H_    0.689386 0.077069 0.747297 0.136511
H17   H     H_    0.166573 0.638570 0.291581 0.164192
H18   H     H_    0.833570 0.138833 0.708386 0.164098
H19   H     H_    0.270902 0.643317 0.401256 0.170227
H20   H     H_    0.729139 0.143068 0.598926 0.170219
C37   C     C_3   0.184056 0.786666 0.301496 0.304196
C38   C     C_3   0.815975 0.286842 0.698485 0.304117
C39   C     C_3   0.219983 0.068805 0.210069 0.286596
C40   C     C_3   0.780006 0.568827 0.789941 0.286522
C41   C     C_3   0.185546 0.867942 0.195907 -0.303782
C42   C     C_3   0.814455 0.367977 0.804088 -0.303845
H21   H     H_    0.225646 0.111019 0.135110 0.128525
H22   H     H_    0.774294 0.610930 0.864891 0.128670
C43   C     C_3   0.312036 0.854637 0.315082 -0.206951
C44   C     C_3   0.687970 0.354627 0.684908 -0.207029
C45   C     C_3   0.258158 0.787301 0.371148 -0.535125
C46   C     C_3   0.741849 0.287168 0.628870 -0.534943
C47   C     C_3   0.292954 0.059214 0.279884 -0.385346
C48   C     C_3   0.707061 0.559225 0.720049 -0.385267
H23   H     H_    0.330831 0.118435 0.241741 0.236127
H24   H     H_    0.669160 0.618552 0.758116 0.236010
H25   H     H_    0.297208 0.150167 0.346350 0.190303
H26   H     H_    0.702853 0.650064 0.653548 0.190341
H27   H     H_    0.261597 0.880552 0.436701 0.220712
H28   H     H_    0.738324 0.380170 0.563207 0.220720
O11   O     O_R   0.912980 0.203550 0.915410 -0.573629
O12   O     O_R   0.087020 0.703550 0.084590 -0.573649
O13   O     O_R   0.047270 0.535570 0.887960 -0.580943
O14   O     O_R   0.952730 0.035570 0.112040 -0.580983
C49   C     C_R   0.063881 0.366186 0.861379 1.022316
C50   C     C_R   0.936118 0.866179 0.138621 1.022416
O15   O     O_R   0.911030 0.532970 0.903270 -0.562921
O16   O     O_R   0.088970 0.032970 0.096730 -0.563026
O17   O     O_R   0.949820 0.708150 0.099970 -0.580074
O18   O     O_R   0.050180 0.208150 0.900030 -0.580123
C51   C     C_R   0.884741 0.366314 0.878849 0.977225
C52   C     C_R   0.115256 0.866305 0.121158 0.977346
O19   O     O_3   0.012900 0.375230 0.064480 -0.233447
O20   O     O_3   0.987100 0.875230 0.935520 -0.233384
V3    V     V_3+5 0.997610 0.648190 0.988040 1.325430
V4    V     V_3+5 0.002390 0.148190 0.011960 1.325358
N1    N     N_R   0.361786 0.755806 0.174129 0.246209
O21   O     O_R   0.411486 0.634834 0.184734 -0.318597
O22   O     O_R   0.365675 0.911860 0.127093 -0.332008
N2    N     N_R   0.638237 0.256099 0.825921 0.246175
O23   O     O_R   0.588471 0.135340 0.815304 -0.318794
O24   O     O_R   0.634457 0.412130 0.873020 -0.331927
N3    N     N_R   0.178855 0.214621 0.244359 0.260304
O25   O     O_R   0.183154 0.242575 0.338742 -0.388316
O26   O     O_R   0.148131 0.340758 0.181618 -0.392574
N4    N     N_R   0.821150 0.714754 0.755749 0.260283
O27   O     O_R   0.816866 0.742944 0.661387 -0.388167
O28   O     O_R   0.851868 0.840767 0.818569 -0.392595
N5    N     N_R   0.136585 0.886194 0.350207 0.277440
O29   O     O_R   0.143140 0.868706 0.445780 -0.337735
O30   O     O_R   0.082701 0.972201 0.298511 -0.362385
N6    N     N_R   0.863389 0.386790 0.649817 0.277645
O31   O     O_R   0.856597 0.370653 0.554110 -0.337812
O32   O     O_R   0.917378 0.472231 0.701599 -0.362492
N7    N     N_R   0.677366 0.859266 0.968521 0.260204
O33   O     O_R   0.707751 0.874322 0.896195 -0.481921
O34   O     O_R   0.620026 0.766437 0.951908 -0.281094
N8    N     N_R   0.322627 0.359150 0.031469 0.260202
O35   O     O_R   0.292255 0.374287 0.103802 -0.481903
O36   O     O_R   0.379956 0.266281 0.048081 -0.281148
N9    N     N_R   0.577072 0.072084 0.039593 0.267501
O37   O     O_R   0.605703 0.229987 0.025708 -0.302086
O38   O     O_R   0.513662 0.042271 0.993225 -0.256594
N10   N     N_R   0.422907 0.572006 0.960395 0.267518
O39   O     O_R   0.394253 0.729847 0.974290 -0.302152
O40   O     O_R   0.486322 0.542285 0.006737 -0.256592
N11   N     N_R   0.995550 0.695675 0.339125 0.256036
O41   O     O_R   0.026590 0.669384 0.432088 -0.326149
O42   O     O_R   0.017665 0.602155 0.272334 -0.354258
N12   N     N_R   0.004382 0.196055 0.660888 0.255792
O43   O     O_R   0.973159 0.170723 0.567916 -0.326224
O44   O     O_R   0.982381 0.101868 0.727579 -0.354369

loop_
_geom_bond_atom_site_label_1
_geom_bond_atom_site_label_2
_geom_bond_distance
_ccdc_geom_bond_type
H20   C46   1.113601 S    
C41   C52   1.540482 S    
C39   H21   1.110590 S    
N8    O35   1.294079 A    
C9    C31   1.427832 A    
C33   H13   1.113191 S    
C13   C15   1.406580 A    
C6    N10   1.430409 S    
N3    O25   1.302500 A    
O1    C3    1.307083 A    
C40   H22   1.110609 S    
O2    C4    1.307086 A    
C2    O7    1.297246 A    
C45   H27   1.112537 S    
N4    O27   1.302509 A    
N11   O41   1.302320 A    
H18   C38   1.110152 S    
O5    C3    1.314341 A    
N1    O22   1.299497 A    
O11   C51   1.336381 A    
C21   C23   1.409639 A    
C10   C12   1.398929 A    
C24   N8    1.440211 S    
C6    C30   1.388847 A    
N5    O30   1.301091 A    
O15   C51   1.310729 A    
N7    O34   1.301501 A    
C36   N2    1.465549 S    
C15   C19   1.426511 A    
C40   N4    1.474449 S    
N2    O23   1.301266 A    
C35   H15   1.114483 S    
C36   H16   1.114458 S    
H2    C30   1.084558 S    
C23   N7    1.440238 S    
C14   H6    1.077934 S    
C8    C30   1.385665 A    
C38   N6    1.474134 S    
N10   O39   1.298291 A    
O15   V3    2.027425 S    
C39   N3    1.474358 S    
C38   C42   1.577336 S    
C37   C41   1.577325 S    
C16   C18   1.427172 A    
C35   N1    1.465584 S    
O5    V1    2.052077 S    
O6    V2    2.052014 S    
C7    C29   1.385677 A    
C46   H28   1.112430 S    
C31   C50   1.495517 S    
O12   C52   1.336357 A    
C12   C14   1.382068 A    
C47   H23   1.107601 S    
H1    C29   1.084564 S    
C43   C45   1.550251 S    
C23   C25   1.406332 A    
C20   C28   1.415311 A    
C34   C42   1.556994 S    
C16   C20   1.426534 A    
C38   C46   1.570890 S    
N7    O33   1.294114 A    
H19   C45   1.113631 S    
C40   C42   1.581356 S    
C35   C43   1.548624 S    
C39   C41   1.581340 S    
C2    C43   1.517800 S    
C50   O17   1.303267 A    
C10   N12   1.444544 S    
C48   H26   1.110963 S    
C5    N9    1.430446 S    
C4    C7    1.448916 S    
C34   H14   1.113227 S    
O4    V2    2.027414 S    
C5    C29   1.388856 A    
C12   H8    1.082991 S    
O13   C49   1.326901 A    
C44   C48   1.555278 S    
C43   C47   1.555273 S    
O6    C4    1.314355 A    
O14   C50   1.326912 A    
C27   H3    1.078720 S    
C44   C46   1.550292 S    
N3    O26   1.298885 A    
O1    V2    2.047847 S    
C28   H4    1.078706 S    
O20   V4    2.199500 S    
O2    V1    2.047883 S    
O17   V3    2.051005 S    
N12   O44   1.299827 A    
C7    C27   1.396193 A    
O4    C2    1.302478 A    
O19   V4    1.764828 S    
C48   H24   1.107625 S    
C33   H11   1.103608 S    
O11   V4    2.007839 S    
C34   C36   1.554632 S    
C37   C45   1.570701 S    
C22   C24   1.409611 A    
O3    V1    2.027438 S    
N6    O31   1.302728 A    
N6    O32   1.301120 A    
N9    O37   1.298395 A    
O19   V3    2.199419 S    
N11   O42   1.299698 A    
N8    O36   1.301466 A    
C18   C32   1.432897 A    
C36   C44   1.548526 S    
O13   V3    2.052122 S    
O3    C1    1.302472 A    
N4    O28   1.298896 A    
N2    O24   1.299470 A    
C14   C16   1.406620 A    
C42   C51   1.540492 S    
C11   C13   1.382033 A    
N1    O21   1.301293 A    
O16   C52   1.310769 A    
C3    C8    1.448898 S    
C26   H10   1.082137 S    
C11   H7    1.082982 S    
C9    N11   1.444654 S    
C19   C27   1.415316 A    
O16   V4    2.027402 S    
O7    V1    2.018630 S    
C10   C32   1.427745 A    
C1    O8    1.297255 A    
C15   C17   1.427162 A    
O8    V2    2.018617 S    
N5    O29   1.302422 A    
C24   C26   1.406281 A    
C25   H9    1.082153 S    
C32   C49   1.495487 S    
H17   C37   1.110103 S    
C33   C35   1.554679 S    
C37   N5    1.473972 S    
C19   C21   1.417589 A    
C34   H12   1.103561 S    
C20   C22   1.417595 A    
C18   C26   1.409008 A    
O20   V3    1.764769 S    
C47   H25   1.110983 S    
O12   V3    2.007852 S    
N12   O43   1.302386 A    
O14   V4    2.052059 S    
C33   C41   1.557011 S    
C9    C11   1.398992 A    
N10   O40   1.301502 A    
C17   C31   1.432944 A    
O9    V2    1.765189 S    
C8    C28   1.396192 A    
C17   C25   1.409028 A    
O10   V1    1.765131 S    
C5    C21   1.421208 A    
N9    O38   1.301613 A    
C1    C44   1.517832 S    
C6    C22   1.421188 A    
C49   O18   1.303250 A    
O18   V4    2.050967 S    
C40   C48   1.554889 S    
C13   H5    1.077954 S    
C39   C47   1.554881 S    
