data_mof_unit_40043.cif
_audit_creation_date              2012-12-10T16:58:30-0500
_audit_creation_method            fapswitch 2.2
_symmetry_space_group_name_H-M    P1
_symmetry_Int_Tables_number       1
_space_group_crystal_system       triclinic
_cell_length_a                    7.731923
_cell_length_b                    8.56809
_cell_length_c                    23.448896
_cell_angle_alpha                 90.926278
_cell_angle_beta                  86.242009
_cell_angle_gamma                 93.678254
_cell_volume                      1546.79310321

loop_
_atom_site_label
_atom_site_type_symbol
_atom_type_description
_atom_site_fract_x
_atom_site_fract_y
_atom_site_fract_z
_atom_type_partial_charge
C1    C     C_R   0.545920 0.794873 0.498505 0.972031
C2    C     C_R   0.634755 0.449555 0.293757 -0.208812
C3    C     C_R   0.363948 0.552290 0.765338 -0.096401
C4    C     C_R   0.636230 0.447987 0.234661 -0.096440
C5    C     C_R   0.505284 0.500852 0.791979 0.302640
C6    C     C_R   0.494812 0.499244 0.208016 0.302730
C7    C     C_2   0.570209 0.958293 0.497655 -0.368551
C8    C     C_2   0.429791 0.041707 0.502346 -0.368559
C9    C     C_R   0.502898 0.498664 0.610716 0.872378
C10   C     C_R   0.497101 0.501330 0.389283 0.872385
C11   C     C_R   0.461083 0.361527 0.119171 0.507321
C12   C     C_R   0.454080 0.205127 0.501495 0.972027
C13   C     C_R   0.539017 0.638577 0.880826 0.507316
C14   C     C_R   0.535188 0.637103 0.119492 0.509763
C15   C     C_R   0.464936 0.362997 0.880505 0.509752
C16   C     C_R   0.537258 0.640444 0.059977 -0.014762
C17   C     C_R   0.462859 0.359659 0.940020 -0.014752
C18   C     C_R   0.499651 0.499850 0.029940 -0.020125
C19   C     C_R   0.500459 0.500254 0.970058 -0.020124
C20   C     C_R   0.461191 0.358864 0.059646 -0.014045
C21   C     C_R   0.538914 0.641240 0.940351 -0.014039
C22   C     C_R   0.575913 0.780157 0.030003 -0.165320
C23   C     C_R   0.648724 0.447846 0.759987 -0.137318
C24   C     C_R   0.424201 0.219946 0.969995 -0.165322
C25   C     C_R   0.576723 0.780555 0.970647 -0.168732
C26   C     C_R   0.423383 0.219549 0.029351 -0.168732
C27   C     C_1   0.802922 0.386085 0.669848 0.201579
C28   C     C_1   0.196849 0.613478 0.330138 0.201489
C29   C     C_R   0.351247 0.552023 0.240005 -0.137356
C30   C     C_R   0.652300 0.445593 0.700568 -0.039228
C31   C     C_R   0.347626 0.554231 0.299425 -0.039155
C32   C     C_R   0.508742 0.497836 0.673077 -0.091715
C33   C     C_R   0.491272 0.502175 0.326921 -0.091746
C34   C     C_R   0.365383 0.550676 0.706242 -0.208883
H1    H     H_    0.605906 0.889314 0.052257 0.195116
H2    H     H_    0.747337 0.407448 0.209454 0.146000
H3    H     H_    0.702792 0.009421 0.493192 0.183202
H4    H     H_    0.297208 0.990578 0.506808 0.183200
H5    H     H_    0.014141 0.383291 0.456866 0.194371
H6    H     H_    0.985859 0.616708 0.543134 0.194355
H7    H     H_    0.394212 0.110789 0.947740 0.195117
H8    H     H_    0.607409 0.889989 0.948633 0.193019
H9    H     H_    0.392695 0.110116 0.051364 0.193021
H10   H     H_    0.756908 0.407892 0.781781 0.143747
H11   H     H_    0.242994 0.591823 0.218206 0.143678
H12   H     H_    0.254096 0.591743 0.686552 0.175353
H13   H     H_    0.746112 0.408628 0.313448 0.175408
H14   H     H_    0.252931 0.592995 0.790548 0.146061
N1    N     N_R   0.497448 0.499187 0.147436 -0.360471
N2    N     N_R   0.502663 0.500913 0.852560 -0.360459
N3    N     N_2   0.950330 0.457950 0.484560 -0.163593
N4    N     N_2   0.049670 0.542050 0.515440 -0.163614
N5    N     N_1   0.923809 0.338434 0.645406 -0.181460
N6    N     N_1   0.075834 0.660921 0.354573 -0.181515
O1    O     O_R   0.389250 0.738570 0.503790 -0.613294
O2    O     O_2   0.575840 0.771760 0.851243 -0.530833
O3    O     O_2   0.570899 0.769984 0.149370 -0.528445
O4    O     O_2   0.429241 0.230111 0.850629 -0.528471
O5    O     O_R   0.610750 0.261430 0.496210 -0.613289
O6    O     O_R   0.678390 0.711620 0.493890 -0.625881
O7    O     O_R   0.321610 0.288380 0.506110 -0.625887
O8    O     O_R   0.355400 0.513520 0.588790 -0.612533
O9    O     O_R   0.644600 0.486480 0.411210 -0.612516
O10   O     O_R   0.644550 0.486570 0.578900 -0.623043
O11   O     O_R   0.355450 0.513430 0.421100 -0.623032
O12   O     O_2   0.424250 0.228345 0.148754 -0.530810
Zn1   Zn    Zn3+2 0.306930 0.518000 0.506610 0.968097
Zn2   Zn    Zn3+2 0.693070 0.482000 0.493390 0.968112

loop_
_geom_bond_atom_site_label_1
_geom_bond_atom_site_label_2
_ccdc_geom_bond_type
C25   H8    S    
O1    Zn1   S    
C27   N5    T    
C1    O6    A    
C11   N1    A    
C2    H13   S    
C9    O10   A    
O7    Zn1   S    
C2    C4    A    
C10   O9    A    
C5    C23   A    
C11   O12   S    
C8    C12   S    
C13   O2    S    
C31   C33   A    
C1    O1    A    
C13   C21   A    
C7    C8    D    
C29   C31   A    
C1    C7    S    
C27   C30   S    
C30   C32   A    
C24   H7    S    
C3    C34   A    
N4    Zn1   S    
C20   C26   A    
O8    Zn1   S    
C34   H12   S    
O10   Zn2   S    
C2    C33   A    
C4    C6    A    
C13   N2    A    
C17   C19   A    
C24   C26   A    
C26   H9    S    
C10   C33   S    
C18   C20   A    
N3    Zn2   S    
C8    H4    S    
C6    N1    S    
C7    H3    S    
C11   C20   A    
C15   O4    S    
C14   C16   A    
C5    N2    S    
C15   N2    A    
C14   N1    A    
C22   H1    S    
N3    N4    D    
C17   C24   A    
C23   C30   A    
C3    C5    A    
C3    H14   S    
C6    C29   A    
C12   O7    A    
C4    H2    S    
O6    Zn2   S    
C16   C18   A    
C18   C19   A    
C10   O11   A    
C29   H11   S    
C15   C17   A    
C14   O3    S    
C28   N6    T    
O9    Zn2   S    
O5    Zn2   S    
C21   C25   A    
C9    C32   S    
C19   C21   A    
H5    N3    S    
H6    N4    S    
C12   O5    A    
C28   C31   S    
C23   H10   S    
C9    O8    A    
C16   C22   A    
O11   Zn1   S    
C22   C25   A    
C32   C34   A    
