data_mof_unit_19839.cif
_audit_creation_date              2012-12-11T14:50:29-0500
_audit_creation_method            fapswitch 2.2
_symmetry_space_group_name_H-M    P1
_symmetry_Int_Tables_number       1
_space_group_crystal_system       triclinic
_cell_length_a                    10.893482
_cell_length_b                    10.989421
_cell_length_c                    18.748753
_cell_angle_alpha                 89.874298
_cell_angle_beta                  89.940138
_cell_angle_gamma                 60.170347
_cell_volume                      1947.09180025

loop_
_atom_site_label
_atom_site_type_symbol
_atom_type_description
_atom_site_fract_x
_atom_site_fract_y
_atom_site_fract_z
_atom_type_partial_charge
C1    C     C_R   0.229729 0.648423 0.607619 0.554512
C2    C     C_R   0.615115 0.071348 0.772777 -0.123483
C3    C     C_R   0.605777 0.092117 0.700201 -0.109084
C4    C     C_R   0.626136 0.586514 0.608865 0.557250
C5    C     C_R   0.686138 0.142765 0.667383 0.020320
C6    C     C_R   0.142996 0.572682 0.716068 0.215948
C7    C     C_R   0.118936 0.592077 0.789203 -0.096172
C8    C     C_R   0.094116 0.716648 0.822021 0.014414
C9    C     C_R   0.093429 0.822434 0.781447 -0.102414
C10   C     C_R   0.121977 0.803981 0.709493 -0.165994
C11   C     C_R   0.156143 0.676230 0.676460 0.003309
C12   C     C_3   0.686295 0.519595 0.811832 0.123851
C13   C     C_R   0.717023 0.524124 0.270546 -0.120967
C14   C     C_R   0.717899 0.537788 0.197523 -0.133519
C15   C     C_R   0.647186 0.670976 0.166620 0.033434
C16   C     C_R   0.632096 0.222266 0.601021 0.537880
C17   C     C_R   0.562040 0.788821 0.209121 -0.140682
C18   C     C_R   0.560379 0.774628 0.282958 -0.148710
C19   C     C_R   0.643433 0.642481 0.314096 0.045724
C20   C     C_R   0.556272 0.138853 0.291080 -0.138848
C21   C     C_R   0.553368 0.136355 0.217873 -0.139679
C22   C     C_R   0.656413 0.147659 0.178474 0.039139
C23   C     C_3   0.676290 0.666017 0.818143 0.020494
C24   C     C_R   0.761832 0.162959 0.213396 -0.134293
C25   C     C_R   0.761658 0.170118 0.286978 -0.138904
C26   C     C_R   0.654347 0.165255 0.325683 0.041404
C27   C     C_R   0.239696 0.728016 0.282144 -0.179871
C28   C     C_R   0.225992 0.647654 0.399941 0.575645
C29   C     C_R   0.226942 0.726566 0.209793 -0.149459
C30   C     C_R   0.156516 0.662296 0.180510 -0.010075
C31   C     C_R   0.114206 0.584289 0.222790 -0.123021
C32   C     C_R   0.133977 0.578630 0.296139 0.250247
C33   C     C_R   0.189386 0.658372 0.325937 0.049043
C34   C     C_3   0.640201 0.616434 0.684794 -0.050694
C35   C     C_R   0.728150 0.042094 0.888854 0.534909
C36   C     C_R   0.717268 0.686461 0.890418 0.592972
C37   C     C_R   0.056548 0.741947 0.897195 0.548986
C38   C     C_R   0.675496 0.105347 0.104702 0.554242
C39   C     C_R   0.693307 0.689507 0.096609 0.575912
C40   C     C_R   0.639161 0.619244 0.390259 0.565698
C41   C     C_R   0.095832 0.707177 0.111397 0.574999
C42   C     C_R   0.619595 0.225472 0.396158 0.539805
C43   C     C_3   0.532944 0.789046 0.785830 0.167815
C44   C     C_3   0.500126 0.739633 0.715483 -0.200739
C45   C     C_3   0.759334 0.654473 0.690584 -0.243557
C46   C     C_3   0.793828 0.660898 0.769004 -0.336133
C47   C     C_3   0.176688 0.358376 0.327501 0.031420
C48   C     C_3   0.085229 0.293380 0.308916 -0.274728
C49   C     C_3   0.175065 0.134814 0.298899 -0.495985
C50   C     C_3   0.677549 0.486376 0.731968 -0.236164
C51   C     C_R   0.795871 0.145024 0.705772 -0.154935
C52   C     C_R   0.811043 0.114940 0.778880 -0.112066
C53   C     C_R   0.720360 0.076833 0.812733 0.046264
Cr1   Cr    Cr6+3 0.392930 0.397900 0.502230 1.108145
Cr2   Cr    Cr6+3 0.398240 0.708600 0.501260 1.017451
Cr3   Cr    Cr6+3 0.708800 0.393470 0.496460 1.040052
Cr4   Cr    Cr6+3 0.937620 0.938540 0.007640 1.049954
Cr5   Cr    Cr6+3 0.625150 0.937450 0.994520 1.083028
Cr6   Cr    Cr6+3 0.937990 0.625080 0.001190 1.029238
H1    H     H_    0.558011 0.869042 0.768247 0.091660
H2    H     H_    0.075513 0.918022 0.806276 0.190801
H3    H     H_    0.126177 0.887634 0.680940 0.177821
H4    H     H_    0.774901 0.420102 0.292978 0.122655
H5    H     H_    0.782183 0.445091 0.165763 0.126767
H6    H     H_    0.504688 0.892534 0.185930 0.124848
H7    H     H_    0.497503 0.866297 0.315561 0.113368
H8    H     H_    0.475731 0.129325 0.320347 0.114244
H9    H     H_    0.473091 0.120795 0.192444 0.121654
H10   H     H_    0.845567 0.166796 0.184028 0.125748
H11   H     H_    0.840861 0.186257 0.313227 0.118214
H12   H     H_    0.782824 0.400549 0.715117 0.147756
H13   H     H_    0.291218 0.782665 0.303532 0.151789
H14   H     H_    0.421518 0.704654 0.724177 0.186623
H15   H     H_    0.262125 0.785069 0.177212 0.150942
H16   H     H_    0.058310 0.535126 0.199980 0.142902
H17   H     H_    0.450857 0.831017 0.678501 0.158369
H18   H     H_    0.807965 0.753587 0.777308 0.091629
H19   H     H_    0.724932 0.757580 0.664449 0.130584
H20   H     H_    0.792485 0.437907 0.831094 0.148876
H21   H     H_    0.599915 0.450039 0.723540 0.165083
H22   H     H_    0.149262 0.290775 0.766324 0.373065
H23   H     H_    0.894942 0.566345 0.782096 0.187233
H24   H     H_    0.296277 0.061106 0.915040 0.347397
H25   H     H_    0.234116 0.310523 0.377927 0.183102
H26   H     H_    0.258022 0.330145 0.284833 0.111237
H27   H     H_    0.007693 0.315366 0.352453 0.195526
H28   H     H_    0.026713 0.340962 0.258705 0.157346
H29   H     H_    0.252304 0.110110 0.254910 0.137176
H30   H     H_    0.105738 0.090896 0.285201 0.151922
H31   H     H_    0.233108 0.084200 0.348813 0.153243
H32   H     H_    0.577480 0.334739 0.935053 0.383553
H33   H     H_    0.857048 0.576415 0.663421 0.244733
H34   H     H_    0.863478 0.178414 0.680461 0.149356
H35   H     H_    0.887586 0.128752 0.809224 0.154544
H36   H     H_    0.533658 0.059307 0.798676 0.192727
H37   H     H_    0.525585 0.081829 0.671237 0.179711
H38   H     H_    0.118315 0.509636 0.820576 0.157963
O1    O     O_R   0.507430 0.255570 0.581420 -0.457922
O2    O     O_R   0.837200 0.593290 0.915250 -0.543214
O3    O     O_R   0.065330 0.635370 0.931590 -0.497183
O4    O     O_R   0.280190 0.527390 0.578910 -0.415937
O5    O     O_R   0.068300 0.828790 0.091860 -0.509437
O6    O     O_R   0.798730 0.057480 0.079370 -0.501910
O7    O     O_R   0.584680 0.080480 0.076790 -0.521846
O8    O     O_R   0.626790 0.809640 0.067050 -0.487763
O9    O     O_R   0.816010 0.596460 0.076500 -0.517170
O10   O     O_R   0.045680 0.638310 0.081070 -0.504252
O11   O     O_3   0.833590 0.833690 0.001120 -0.318921
O12   O     O_R   0.524460 0.695920 0.424060 -0.508484
O13   O     O_R   0.260310 0.739740 0.584580 -0.545422
O14   O     O_R   0.532250 0.695150 0.573830 -0.504098
O15   O     O_R   0.744930 0.503430 0.576380 -0.478067
O16   O     O_R   0.699250 0.276390 0.571950 -0.528665
O17   O     O_R   0.499020 0.256400 0.419850 -0.542846
O18   O     O_R   0.272400 0.528160 0.429140 -0.471300
O19   O     O_R   0.251910 0.740570 0.423020 -0.539822
O20   O     O_2   0.097887 0.441324 0.605551 -0.257057
O21   O     O_2   0.312690 0.309819 0.676301 -0.272545
O22   O     O_3   0.078286 0.350677 0.730252 -0.570766
O23   O     O_R   0.736530 0.504260 0.414810 -0.509061
O24   O     O_2   0.259934 0.987368 0.785372 -0.358276
O25   O     O_2   0.326301 0.807024 0.876625 -0.175390
O26   O     O_3   0.392205 0.000356 0.895279 -0.497386
O27   O     O_3   0.089628 0.504718 0.338862 -0.549957
O28   O     O_2   0.532443 0.587161 0.934866 -0.240248
O29   O     O_2   0.427914 0.539711 0.829504 -0.260662
O30   O     O_3   0.636462 0.333465 0.894480 -0.519351
O31   O     O_R   0.691460 0.277160 0.422180 -0.516531
O32   O     O_3   0.499990 0.499990 0.499980 -0.293755
O33   O     O_R   0.089490 0.825610 0.930610 -0.448013
O34   O     O_R   0.818370 0.054540 0.929880 -0.495717
O35   O     O_R   0.605870 0.077310 0.915530 -0.469977
O36   O     O_R   0.646440 0.806700 0.917570 -0.443286
S1    S     S_3+6 0.159099 0.416524 0.679482 -0.004666
S2    S     S_3+6 0.373725 0.894480 0.837114 0.005915
S3    S     S_3+6 0.563078 0.500334 0.868456 0.025493

loop_
_geom_bond_atom_site_label_1
_geom_bond_atom_site_label_2
_ccdc_geom_bond_type
C39   O9    A    
C1    O4    A    
C35   C53   S    
Cr6   O2    S    
C32   O27   S    
C20   H8    S    
C1    C11   S    
C49   H31   S    
C43   C44   S    
C16   O16   A    
C7    C8    A    
C45   C46   S    
C41   O5    A    
Cr4   O5    S    
C12   C23   S    
C29   C30   A    
H32   O30   S    
C9    H2    S    
C47   H26   S    
C2    H36   S    
C30   C31   A    
C27   C29   A    
Cr2   O19   S    
C22   C38   S    
C12   H20   S    
C23   C43   S    
C37   O33   A    
C39   O8    A    
C18   C19   A    
C44   H17   S    
C45   H33   S    
C5    C16   S    
C38   O7    A    
C28   O19   A    
C46   H23   S    
C42   O17   A    
C47   C48   S    
Cr5   O35   S    
C8    C9    A    
Cr2   O32   S    
Cr3   O16   S    
C30   C41   S    
C52   H35   S    
C3    H37   S    
C41   O10   A    
C9    C10   A    
Cr5   O11   S    
Cr3   O32   S    
O21   S1    D    
C42   O31   A    
C4    O15   A    
O29   S3    D    
C23   C46   S    
C21   C22   A    
Cr2   O12   S    
Cr6   O3    S    
Cr3   O23   S    
C49   H29   S    
C10   H3    S    
O20   S1    D    
C24   H10   S    
C6    C7    A    
Cr5   O36   S    
Cr4   O6    S    
C4    C34   S    
C34   C50   S    
O22   S1    S    
C13   C19   A    
C51   C52   A    
Cr6   O9    S    
Cr4   O33   S    
C34   C44   S    
C24   C25   A    
C10   C11   A    
C6    C11   A    
C29   H15   S    
C25   C26   A    
C27   C33   A    
O26   S2    S    
C50   H12   S    
C38   O6    A    
C28   O18   A    
C1    O13   A    
C36   O36   A    
C31   H16   S    
C31   C32   A    
C13   H4    S    
C14   H5    S    
Cr1   O18   S    
C17   C18   A    
C48   H28   S    
C34   C45   S    
C47   H25   S    
O30   S3    S    
C43   S2    S    
C15   C39   S    
C45   H19   S    
Cr1   O4    S    
C43   H1    S    
C51   H34   S    
O28   S3    D    
C48   C49   S    
C40   O23   A    
C4    O14   A    
C28   C33   S    
Cr2   O13   S    
C22   C24   A    
Cr5   O7    S    
C8    C37   S    
C35   O34   A    
C52   C53   A    
C26   C42   S    
C15   C17   A    
Cr1   O32   S    
C7    H38   S    
Cr2   O14   S    
Cr4   O34   S    
Cr1   O1    S    
C49   H30   S    
C3    C5    A    
C2    C53   A    
C50   H21   S    
C46   H18   S    
C12   C50   S    
C40   O12   A    
C18   H7    S    
H22   O22   S    
C17   H6    S    
Cr6   O11   S    
Cr5   O8    S    
C32   C33   A    
C2    C3    A    
C21   H9    S    
C16   O1    A    
C47   O27   S    
C20   C26   A    
Cr1   O17   S    
C36   O2    A    
C48   H27   S    
Cr3   O31   S    
C44   H14   S    
Cr6   O10   S    
O25   S2    D    
C19   C40   S    
Cr4   O11   S    
C20   C21   A    
O24   S2    D    
C6    S1    S    
C23   C36   S    
C12   S3    S    
C14   C15   A    
C5    C51   A    
C25   H11   S    
H24   O26   S    
C13   C14   A    
C35   O35   A    
Cr3   O15   S    
C37   O3    A    
C27   H13   S    
