data_mof_unit_54241.cif
_audit_creation_date              2012-10-26T17:43:27-0400
_audit_creation_method            fapswitch 2.2
_symmetry_space_group_name_H-M    P1
_symmetry_Int_Tables_number       1
_space_group_crystal_system       triclinic
_cell_length_a                    18.34597
_cell_length_b                    18.344737
_cell_length_c                    21.77829
_cell_angle_alpha                 90.081745
_cell_angle_beta                  89.951141
_cell_angle_gamma                 89.991284
_cell_volume                      7329.51672893

loop_
_atom_site_label
_atom_site_type_symbol
_atom_type_description
_atom_site_fract_x
_atom_site_fract_y
_atom_site_fract_z
_atom_type_partial_charge
C1    C     C_R   1.000000 0.360070 0.000027 0.545377
C2    C     C_1   0.282529 0.000042 0.999928 -0.076054
C3    C     C_3   0.290956 0.171984 0.818253 -0.263080
C4    C     C_3   0.321777 0.228730 0.863016 -0.298941
C5    C     C_3   0.261208 0.263626 0.901150 -0.443350
C6    C     C_3   0.174316 0.712474 0.813877 -0.267036
C7    C     C_3   0.142905 0.735640 0.876515 -0.305946
C8    C     C_3   0.180336 0.804249 0.900699 -0.428533
C9    C     C_3   0.712940 0.825615 0.812742 -0.266903
C10   C     C_3   0.733365 0.854046 0.877017 -0.305103
C11   C     C_3   0.801331 0.815975 0.901643 -0.429544
C12   C     C_3   0.826474 0.713554 0.187709 -0.264750
C13   C     C_1   0.999982 0.717473 0.999938 -0.081048
C14   C     C_3   0.858528 0.737692 0.125623 -0.308439
C15   C     C_3   0.821815 0.807093 0.102403 -0.428606
C16   C     C_3   0.287107 0.826299 0.186285 -0.266814
C17   C     C_3   0.264025 0.857684 0.123723 -0.306092
C18   C     C_3   0.195316 0.820390 0.099645 -0.428733
C19   C     C_3   0.175724 0.288786 0.184639 -0.267184
C20   C     C_3   0.148386 0.269682 0.119736 -0.304984
C21   C     C_3   0.188423 0.203575 0.093527 -0.432007
C22   C     C_3   0.712867 0.173840 0.186320 -0.267063
C23   C     C_3   0.735969 0.142388 0.123677 -0.305890
C24   C     C_1   0.717475 0.999968 0.000044 -0.081181
C25   C     C_3   0.804678 0.179661 0.099569 -0.428605
C26   C     C_3   0.325821 0.787533 0.313616 -0.266952
C27   C     C_3   0.357068 0.764517 0.376251 -0.305761
C28   C     C_3   0.319567 0.695968 0.400377 -0.428858
C29   C     C_3   0.790956 0.671984 0.318253 -0.263079
C30   C     C_3   0.821777 0.728731 0.363015 -0.298940
C31   C     C_3   0.761208 0.763627 0.401150 -0.443349
C32   C     C_3   0.674316 0.212474 0.313877 -0.267035
C33   C     C_3   0.642905 0.235640 0.376515 -0.305946
C34   C     C_3   0.680335 0.304250 0.400699 -0.428533
C35   C     C_1   0.499983 0.782533 0.500083 -0.081096
C36   C     C_3   0.212940 0.325615 0.312742 -0.266903
C37   C     C_3   0.233365 0.354046 0.377017 -0.305103
C38   C     C_3   0.301331 0.315975 0.401643 -0.429544
C39   C     C_3   0.326475 0.213555 0.687709 -0.264751
C40   C     C_3   0.358528 0.237692 0.625623 -0.308439
C41   C     C_3   0.321815 0.307093 0.602403 -0.428606
C42   C     C_3   0.787107 0.326299 0.686285 -0.266814
C43   C     C_3   0.764026 0.357684 0.623722 -0.306092
C44   C     C_3   0.695317 0.320389 0.599645 -0.428733
C45   C     C_3   0.675724 0.788786 0.684639 -0.267184
C46   C     C_1   0.782529 0.500042 0.499928 -0.076054
C47   C     C_3   0.648386 0.769682 0.619736 -0.304984
C48   C     C_3   0.688423 0.703575 0.593527 -0.432007
C49   C     C_3   0.212867 0.673840 0.686320 -0.267063
C50   C     C_3   0.235968 0.642388 0.623676 -0.305890
C51   C     C_3   0.304677 0.679661 0.599568 -0.428605
C52   C     C_1   0.499982 0.217473 0.499938 -0.081048
C53   C     C_1   0.217475 0.499968 0.500044 -0.081181
C54   C     C_R   0.000027 0.500010 0.881180 0.533119
C55   C     C_R   0.500230 0.999935 0.881180 0.534524
C56   C     C_R   0.999965 0.500170 0.118812 0.533287
C57   C     C_R   0.360069 0.000008 0.999986 0.547699
C58   C     C_R   0.499986 0.000040 0.118819 0.533004
C59   C     C_R   0.500027 0.000010 0.381180 0.533119
C60   C     C_R   0.000230 0.499935 0.381180 0.534524
C61   C     C_R   0.499965 0.000170 0.618812 0.533287
C62   C     C_R   0.999987 0.500040 0.618819 0.533004
C63   C     C_R   0.083272 0.606515 0.812201 -0.091274
C64   C     C_R   0.606504 0.916277 0.811723 -0.091514
C65   C     C_R   0.916901 0.393476 0.812049 -0.090757
C66   C     C_R   0.394307 0.083470 0.812627 -0.099477
C67   C     C_R   0.083222 0.393589 0.187342 -0.090510
C68   C     C_R   0.999994 0.639933 0.999983 0.545305
C69   C     C_R   0.606657 0.083078 0.187875 -0.091282
C70   C     C_R   0.916585 0.606654 0.188177 -0.093312
C71   C     C_R   0.393293 0.917102 0.187870 -0.090918
C72   C     C_R   0.583272 0.106515 0.312201 -0.091274
C73   C     C_R   0.106504 0.416277 0.311723 -0.091514
C74   C     C_R   0.416901 0.893476 0.312049 -0.090757
C75   C     C_R   0.894307 0.583470 0.312627 -0.099477
C76   C     C_R   0.583222 0.893589 0.687342 -0.090510
C77   C     C_R   0.106657 0.583078 0.687875 -0.091282
C78   C     C_R   0.416585 0.106654 0.688177 -0.093312
C79   C     C_R   0.639935 0.999993 0.000014 0.545456
C80   C     C_R   0.893293 0.417102 0.687870 -0.090918
C81   C     C_R   0.134587 0.650250 0.781225 0.013373
C82   C     C_R   0.650559 0.865359 0.780405 0.013358
C83   C     C_R   0.865516 0.349795 0.781069 0.013633
C84   C     C_R   0.351360 0.135142 0.782077 0.011024
C85   C     C_R   0.135098 0.350132 0.217871 0.013202
C86   C     C_R   0.650532 0.134269 0.218907 0.013349
C87   C     C_R   0.865844 0.650824 0.219609 0.019668
C88   C     C_R   0.349483 0.865849 0.218841 0.013580
C89   C     C_R   0.634587 0.150250 0.281225 0.013373
C90   C     C_R   0.500000 0.860070 0.500027 0.545377
C91   C     C_R   0.150559 0.365359 0.280405 0.013358
C92   C     C_R   0.365516 0.849795 0.281069 0.013633
C93   C     C_R   0.851360 0.635142 0.282077 0.011024
C94   C     C_R   0.635098 0.850132 0.717871 0.013202
C95   C     C_R   0.150532 0.634269 0.718907 0.013349
C96   C     C_R   0.365845 0.150824 0.719609 0.019668
C97   C     C_R   0.849483 0.365849 0.718841 0.013581
C98   C     C_R   0.139667 0.000030 0.999977 0.549789
C99   C     C_R   0.999997 0.860333 0.999966 0.546023
C100  C     C_R   0.860333 0.999954 0.000020 0.546469
C101  C     C_R   0.860069 0.500008 0.499986 0.547699
C102  C     C_R   0.999974 0.139669 0.000039 0.550670
C103  C     C_R   0.639667 0.500030 0.499977 0.549789
C104  C     C_R   0.499997 0.360333 0.499966 0.546023
C105  C     C_R   0.360333 0.499954 0.500020 0.546469
C106  C     C_R   0.499974 0.639669 0.500039 0.550670
C107  C     C_R   0.050339 0.544564 0.718027 -0.011919
C108  C     C_R   0.544520 0.949632 0.717796 -0.011807
C109  C     C_R   0.949652 0.455590 0.718008 -0.011784
C110  C     C_R   0.455506 0.050369 0.718171 -0.012007
C111  C     C_R   0.050317 0.455127 0.281776 -0.012500
C112  C     C_R   0.499994 0.139933 0.499983 0.545305
C113  C     C_R   0.544636 0.050280 0.282007 -0.012025
C114  C     C_R   0.950118 0.544580 0.282202 -0.009579
C115  C     C_R   0.455470 0.949768 0.281947 -0.011888
C116  C     C_R   0.550339 0.044564 0.218027 -0.011919
C117  C     C_R   0.044520 0.449632 0.217796 -0.011807
C118  C     C_R   0.449652 0.955590 0.218008 -0.011784
C119  C     C_R   0.955506 0.550369 0.218171 -0.012007
C120  C     C_R   0.550316 0.955127 0.781776 -0.012500
C121  C     C_R   0.044636 0.550280 0.782007 -0.012025
C122  C     C_R   0.450118 0.044580 0.782202 -0.009579
C123  C     C_R   0.139935 0.499993 0.500014 0.545456
C124  C     C_R   0.955470 0.449768 0.781947 -0.011888
C125  C     C_R   0.999968 0.500104 0.685816 -0.016670
C126  C     C_R   0.499917 0.000021 0.685795 -0.016725
C127  C     C_R   0.000209 0.499790 0.314183 -0.016006
C128  C     C_R   0.500071 0.000005 0.314180 -0.017011
C129  C     C_R   0.499968 0.000104 0.185816 -0.016670
C130  C     C_R   0.999917 0.500021 0.185795 -0.016725
C131  C     C_R   0.500209 0.999790 0.814183 -0.016007
C132  C     C_R   0.000071 0.500005 0.814180 -0.017011
C133  C     C_1   0.999968 0.217210 0.000105 -0.076697
C134  C     C_1   0.999983 0.282533 0.000083 -0.081096
C135  C     C_1   0.217208 0.000060 0.999923 -0.075242
C136  C     C_1   0.999983 0.782794 0.999916 -0.078952
C137  C     C_1   0.782795 0.999948 0.000052 -0.078807
C138  C     C_1   0.499968 0.717210 0.500105 -0.076697
C139  C     C_1   0.717208 0.500060 0.499923 -0.075242
C140  C     C_1   0.499983 0.282794 0.499916 -0.078952
C141  C     C_1   0.282795 0.499948 0.500052 -0.078807
C142  C     C_3   0.825821 0.287533 0.813615 -0.266952
C143  C     C_3   0.857067 0.264517 0.876252 -0.305761
C144  C     C_3   0.819566 0.195968 0.900378 -0.428858
Cu1   Cu    Cu3+1 0.927460 0.500000 0.000000 0.899383
Cu2   Cu    Cu3+1 0.000000 1.000000 0.061780 0.896041
Cu3   Cu    Cu3+1 0.500000 0.500000 0.438220 0.902102
Cu4   Cu    Cu3+1 0.500000 0.500000 0.561780 0.896041
Cu5   Cu    Cu3+1 0.500000 0.072540 0.000000 0.894880
Cu6   Cu    Cu3+1 0.072540 0.500000 0.000000 0.896212
Cu7   Cu    Cu3+1 0.500000 0.927460 0.000000 0.899243
Cu8   Cu    Cu3+1 0.427460 1.000000 0.500000 0.899383
Cu9   Cu    Cu3+1 0.000000 0.572540 0.500000 0.894880
Cu10  Cu    Cu3+1 0.572540 1.000000 0.500000 0.896212
Cu11  Cu    Cu3+1 0.000000 0.427460 0.500000 0.899243
Cu12  Cu    Cu3+1 0.000000 1.000000 0.938220 0.902102
H1    H     H_    0.072639 0.616864 0.860035 0.134500
H2    H     H_    0.116681 0.426628 0.359606 0.134079
H3    H     H_    0.262396 0.330425 0.283535 0.142819
H4    H     H_    0.262467 0.297920 0.595936 0.151472
H5    H     H_    0.330164 0.352536 0.635419 0.162336
H6    H     H_    0.346037 0.322966 0.557676 0.152388
H7    H     H_    0.417884 0.248463 0.630578 0.170056
H8    H     H_    0.350157 0.194204 0.590749 0.172381
H9    H     H_    0.268489 0.198024 0.680859 0.139145
H10   H     H_    0.328227 0.261642 0.718822 0.148176
H11   H     H_    0.704981 0.261053 0.593467 0.151534
H12   H     H_    0.649195 0.328684 0.631990 0.162956
H13   H     H_    0.427645 0.883046 0.359814 0.134270
H14   H     H_    0.680165 0.344242 0.554645 0.149970
H15   H     H_    0.752763 0.417009 0.628294 0.169606
H16   H     H_    0.808260 0.349273 0.589533 0.173056
H17   H     H_    0.802534 0.268201 0.679886 0.138995
H18   H     H_    0.738464 0.328362 0.716686 0.142834
H19   H     H_    0.747885 0.714528 0.590813 0.151445
H20   H     H_    0.678843 0.654891 0.622714 0.164476
H21   H     H_    0.667941 0.691748 0.546577 0.150034
H22   H     H_    0.589160 0.756955 0.621306 0.169626
H23   H     H_    0.657710 0.816508 0.588358 0.174575
H24   H     H_    0.882410 0.573261 0.360503 0.136856
H25   H     H_    0.734307 0.803656 0.681384 0.138734
H26   H     H_    0.671142 0.738649 0.712970 0.143319
H27   H     H_    0.295027 0.739000 0.593547 0.151450
H28   H     H_    0.350807 0.671355 0.631815 0.163320
H29   H     H_    0.319805 0.655807 0.554483 0.150085
H30   H     H_    0.247229 0.583068 0.628138 0.170082
H31   H     H_    0.191745 0.650763 0.589554 0.173129
H32   H     H_    0.197382 0.731914 0.680031 0.138907
H33   H     H_    0.261515 0.671864 0.716645 0.143116
H34   H     H_    0.572201 0.883268 0.639598 0.134372
H35   H     H_    0.116959 0.572448 0.640031 0.134459
H36   H     H_    0.426582 0.116778 0.640232 0.134413
H37   H     H_    0.882911 0.427809 0.640090 0.133940
H38   H     H_    0.760252 0.205807 0.906460 0.151338
H39   H     H_    0.827778 0.149736 0.868109 0.163288
H40   H     H_    0.843323 0.180879 0.945436 0.149766
H41   H     H_    0.616680 0.926628 0.859606 0.134079
H42   H     H_    0.916362 0.253079 0.871773 0.170840
H43   H     H_    0.848739 0.308864 0.910373 0.173105
H44   H     H_    0.767748 0.303074 0.819928 0.138498
H45   H     H_    0.827839 0.238834 0.783249 0.143323
H46   H     H_    0.221428 0.291578 0.870798 0.158830
H47   H     H_    0.232429 0.221543 0.928669 0.157173
H48   H     H_    0.285031 0.304449 0.933026 0.143198
H49   H     H_    0.361368 0.202562 0.894707 0.173978
H50   H     H_    0.350695 0.271979 0.836880 0.159307
H51   H     H_    0.250392 0.198343 0.787785 0.136369
H52   H     H_    0.927645 0.383046 0.859814 0.134270
H53   H     H_    0.260471 0.129702 0.844343 0.145989
H54   H     H_    0.239635 0.794431 0.906801 0.151706
H55   H     H_    0.172201 0.850399 0.868457 0.163584
H56   H     H_    0.156458 0.819449 0.945753 0.149794
H57   H     H_    0.083619 0.747056 0.872019 0.170128
H58   H     H_    0.151154 0.691384 0.910614 0.173196
H59   H     H_    0.232342 0.696831 0.820196 0.138821
H60   H     H_    0.172478 0.761138 0.783583 0.143242
H61   H     H_    0.791864 0.756335 0.905308 0.152189
H62   H     H_    0.848655 0.826126 0.870973 0.163649
H63   H     H_    0.382410 0.073261 0.860503 0.136856
H64   H     H_    0.814468 0.837658 0.947923 0.148294
H65   H     H_    0.744505 0.913573 0.874903 0.169583
H66   H     H_    0.687833 0.843846 0.909596 0.173437
H67   H     H_    0.698748 0.766905 0.816511 0.139217
H68   H     H_    0.762396 0.830425 0.783535 0.142819
H69   H     H_    0.762467 0.797919 0.095936 0.151472
H70   H     H_    0.830164 0.852535 0.135419 0.162336
H71   H     H_    0.846037 0.822966 0.057676 0.152388
H72   H     H_    0.917884 0.748463 0.130578 0.170056
H73   H     H_    0.850157 0.694204 0.090749 0.172381
H74   H     H_    0.072201 0.383268 0.139598 0.134371
H75   H     H_    0.768488 0.698024 0.180859 0.139145
H76   H     H_    0.828227 0.761642 0.218822 0.148175
H77   H     H_    0.204981 0.761054 0.093467 0.151534
H78   H     H_    0.149195 0.828684 0.131990 0.162956
H79   H     H_    0.180165 0.844243 0.054646 0.149971
H80   H     H_    0.252763 0.917009 0.128295 0.169606
H81   H     H_    0.308259 0.849274 0.089533 0.173056
H82   H     H_    0.302534 0.768202 0.179885 0.138995
H83   H     H_    0.238464 0.828362 0.216686 0.142834
H84   H     H_    0.247886 0.214528 0.090813 0.151445
H85   H     H_    0.616959 0.072448 0.140032 0.134459
H86   H     H_    0.178843 0.154891 0.122714 0.164476
H87   H     H_    0.167941 0.191749 0.046577 0.150034
H88   H     H_    0.089161 0.256955 0.121306 0.169626
H89   H     H_    0.157710 0.316508 0.088358 0.174575
H90   H     H_    0.234307 0.303656 0.181384 0.138734
H91   H     H_    0.171142 0.238649 0.212969 0.143319
H92   H     H_    0.795027 0.238999 0.093547 0.151451
H93   H     H_    0.850807 0.171354 0.131816 0.163320
H94   H     H_    0.819806 0.155806 0.054483 0.150086
H95   H     H_    0.747230 0.083067 0.128138 0.170081
H96   H     H_    0.926582 0.616777 0.140232 0.134413
H97   H     H_    0.691746 0.150762 0.089554 0.173129
H98   H     H_    0.697382 0.231914 0.180031 0.138907
H99   H     H_    0.761514 0.171864 0.216645 0.143116
H100  H     H_    0.260252 0.705806 0.406460 0.151338
H101  H     H_    0.327778 0.649736 0.368108 0.163288
H102  H     H_    0.343324 0.680878 0.445435 0.149767
H103  H     H_    0.416362 0.753078 0.371773 0.170840
H104  H     H_    0.348739 0.808863 0.410373 0.173105
H105  H     H_    0.267748 0.803074 0.319929 0.138498
H106  H     H_    0.327838 0.738834 0.283249 0.143323
H107  H     H_    0.382911 0.927809 0.140090 0.133940
H108  H     H_    0.721426 0.791576 0.370798 0.158830
H109  H     H_    0.732431 0.721543 0.428670 0.157172
H110  H     H_    0.785031 0.804451 0.433024 0.143198
H111  H     H_    0.861369 0.702564 0.394706 0.173978
H112  H     H_    0.850693 0.771980 0.336878 0.159306
H113  H     H_    0.750392 0.698342 0.287785 0.136368
H114  H     H_    0.760471 0.629703 0.344343 0.145989
H115  H     H_    0.739634 0.294431 0.406801 0.151706
H116  H     H_    0.672201 0.350399 0.368456 0.163584
H117  H     H_    0.656457 0.319449 0.445753 0.149795
H118  H     H_    0.572639 0.116864 0.360035 0.134501
H119  H     H_    0.583619 0.247057 0.372018 0.170128
H120  H     H_    0.651154 0.191384 0.410614 0.173196
H121  H     H_    0.732342 0.196830 0.320197 0.138820
H122  H     H_    0.672478 0.261138 0.283583 0.143242
H123  H     H_    0.291864 0.256335 0.405308 0.152190
H124  H     H_    0.348655 0.326126 0.370974 0.163649
H125  H     H_    0.314468 0.337657 0.447923 0.148294
H126  H     H_    0.244505 0.413573 0.374903 0.169583
H127  H     H_    0.187833 0.343846 0.409596 0.173437
H128  H     H_    0.198748 0.266905 0.316511 0.139217
O1    O     O_R   0.938740 0.394190 0.000020 -0.512708
O2    O     O_R   0.894190 0.561260 0.500020 -0.509450
O3    O     O_R   0.561260 0.105810 0.500020 -0.512762
O4    O     O_R   0.105810 0.438740 0.500020 -0.512413
O5    O     O_R   0.438740 0.105810 0.499980 -0.512271
O6    O     O_R   0.894190 0.438740 0.499980 -0.513718
O7    O     O_R   0.561260 0.894190 0.499980 -0.513008
O8    O     O_R   0.105810 0.561260 0.499980 -0.513053
O9    O     O_R   0.938740 0.500000 0.909860 -0.511853
O10   O     O_R   0.500000 0.061260 0.909860 -0.514045
O11   O     O_R   0.061260 0.500000 0.909860 -0.512354
O12   O     O_R   0.394190 0.061260 0.000020 -0.509450
O13   O     O_R   0.500000 0.938740 0.909860 -0.511892
O14   O     O_R   0.938740 0.500000 0.090140 -0.511925
O15   O     O_R   0.500000 0.938740 0.090140 -0.511799
O16   O     O_R   0.061260 0.500000 0.090140 -0.512462
O17   O     O_R   0.500000 0.061260 0.090140 -0.512444
O18   O     O_R   0.438740 0.000000 0.409860 -0.511852
O19   O     O_R   0.000000 0.561260 0.409860 -0.514045
O20   O     O_R   0.561260 0.000000 0.409860 -0.512354
O21   O     O_R   0.000000 0.438740 0.409860 -0.511892
O22   O     O_R   0.438740 0.000000 0.590140 -0.511925
O23   O     O_R   0.061260 0.605810 0.000020 -0.512762
O24   O     O_R   0.000000 0.438740 0.590140 -0.511799
O25   O     O_R   0.561260 0.000000 0.590140 -0.512462
O26   O     O_R   0.000000 0.561260 0.590140 -0.512444
O27   O     O_R   0.105780 0.999970 0.947820 -0.505486
O28   O     O_R   0.999970 0.894220 0.947820 -0.507121
O29   O     O_R   0.894220 0.000030 0.947820 -0.506936
O30   O     O_R   0.000030 0.105780 0.947820 -0.503978
O31   O     O_R   0.105780 0.000030 0.052180 -0.507224
O32   O     O_R   0.999970 0.105780 0.052180 -0.506828
O33   O     O_R   0.894220 0.999970 0.052180 -0.507765
O34   O     O_R   0.605810 0.938740 0.000020 -0.512413
O35   O     O_R   0.000030 0.894220 0.052180 -0.507816
O36   O     O_R   0.605780 0.499970 0.447820 -0.505486
O37   O     O_R   0.499970 0.394220 0.447820 -0.507121
O38   O     O_R   0.394220 0.500030 0.447820 -0.506936
O39   O     O_R   0.500030 0.605780 0.447820 -0.503978
O40   O     O_R   0.605780 0.500030 0.552180 -0.507224
O41   O     O_R   0.499970 0.605780 0.552180 -0.506828
O42   O     O_R   0.394220 0.499970 0.552180 -0.507765
O43   O     O_R   0.500030 0.394220 0.552180 -0.507816
O44   O     O_R   0.938740 0.605810 0.999980 -0.512271
O45   O     O_R   0.394190 0.938740 0.999980 -0.513718
O46   O     O_R   0.061260 0.394190 0.999980 -0.513008
O47   O     O_R   0.605810 0.061260 0.999980 -0.513053
O48   O     O_R   0.438740 0.894190 0.500020 -0.512708

loop_
_geom_bond_atom_site_label_1
_geom_bond_atom_site_label_2
_ccdc_geom_bond_type
C143  H43   S    
Cu2   O33   S    
C82   C94   A    
Cu12  O30   S    
C108  C120  A    
C68   O23   A    
C19   C20   S    
C23   H97   S    
C5    H48   S    
C100  O29   A    
C69   C116  A    
C144  H39   S    
C56   O16   A    
C51   H27   S    
C81   C95   A    
C45   C94   S    
C26   C92   S    
C143  C144  S    
C119  C130  A    
Cu1   O44   S    
C44   H12   S    
C74   C92   A    
C55   O10   A    
C76   C94   A    
C25   H93   S    
C102  O32   A    
C6    H59   S    
C16   H83   S    
C78   C96   A    
Cu6   O23   S    
C66   C122  A    
C12   H76   S    
C8    H55   S    
C48   H19   S    
Cu12  O28   S    
C41   H6    S    
C31   H110  S    
C34   H116  S    
C101  O6    A    
C46   C101  S    
C45   H26   S    
C45   C47   S    
C67   C85   A    
C142  H45   S    
Cu7   O15   S    
Cu3   O38   S    
C42   C97   S    
C26   H105  S    
C72   C113  A    
Cu5   O10   S    
C104  C140  S    
C15   H71   S    
C39   H9    S    
C43   C44   S    
C37   C38   S    
C27   H104  S    
C90   O7    A    
C115  C118  A    
C99   O35   A    
C123  O8    A    
C11   H62   S    
C36   H128  S    
C36   C91   S    
Cu5   O17   S    
C105  O38   A    
C75   C93   A    
Cu8   O48   S    
C103  O36   A    
C4    C5    S    
C19   C85   S    
C18   H78   S    
C6    C7    S    
C33   H120  S    
C54   C132  S    
C64   C120  A    
C3    H51   S    
C29   H113  S    
C118  C129  A    
C102  O30   A    
C49   H32   S    
C99   C136  S    
C58   O17   A    
C76   H34   S    
C100  C137  S    
C10   H66   S    
C71   C88   A    
C38   H123  S    
C20   C21   S    
C22   C23   S    
C30   H111  S    
C108  C126  A    
C32   H121  S    
C46   C139  T    
C80   C97   A    
Cu5   O47   S    
Cu3   Cu4   S    
Cu7   O13   S    
Cu8   O18   S    
C2    C57   S    
C7    C8    S    
C14   H72   S    
Cu5   O12   S    
C15   H69   S    
C36   C37   S    
C40   H8    S    
Cu5   Cu7   S    
C144  H38   S    
C52   C112  S    
C58   C129  S    
Cu10  O7    S    
C124  C132  A    
C65   C124  A    
C38   H125  S    
C60   O21   A    
Cu11  O21   S    
C9    C10   S    
C79   O47   A    
C114  C119  A    
C21   H87   S    
C16   H82   S    
C6    C81   S    
C112  O5    A    
C99   O28   A    
C8    H54   S    
C70   C87   A    
C34   H117  S    
C103  O40   A    
C107  C125  A    
C42   H18   S    
C39   C40   S    
C43   H15   S    
C98   C135  S    
Cu7   O34   S    
C115  C128  A    
Cu3   O39   S    
C29   C30   S    
C41   H4    S    
C24   C79   S    
C17   C18   S    
C49   C95   S    
C22   H99   S    
C98   O31   A    
C110  C126  A    
C65   H52   S    
C20   H89   S    
C28   H102  S    
Cu8   O22   S    
C63   H1    S    
C121  C132  A    
C3    C4    S    
C50   H30   S    
C70   H96   S    
C122  C131  A    
Cu9   O2    S    
C12   H75   S    
C17   H80   S    
C11   H61   S    
Cu8   Cu10  S    
C5    H47   S    
C144  H40   S    
C24   C137  T    
C62   O26   A    
C2    C135  T    
Cu3   O36   S    
C111  C117  A    
C59   O18   A    
C102  C133  S    
C9    H68   S    
C69   H85   S    
C74   C115  A    
C87   C93   A    
C105  O42   A    
C7    H58   S    
C10   C11   S    
Cu6   O46   S    
C25   H92   S    
C6    H60   S    
C49   C50   S    
C98   O27   A    
C14   C15   S    
Cu11  O4    S    
C8    H56   S    
C56   C130  S    
C19   H90   S    
C48   H20   S    
C13   C68   S    
C3    H53   S    
C106  O39   A    
C41   H5    S    
C31   H109  S    
C120  C131  A    
C68   O44   A    
C64   H41   S    
C1    O1    A    
C45   H25   S    
C4    H49   S    
C113  C128  A    
C80   H37   S    
C26   C27   S    
C72   H118  S    
Cu6   O11   S    
Cu3   O37   S    
C47   H22   S    
C90   O48   A    
C30   C31   S    
Cu2   O31   S    
C74   H13   S    
C23   H95   S    
C36   H3    S    
Cu1   Cu6   S    
C55   O13   A    
C16   C17   S    
C80   C109  A    
C61   C126  S    
C112  O3    A    
Cu9   Cu11  S    
Cu1   O1    S    
C37   H127  S    
C71   C118  A    
C9    C82   S    
C76   C108  A    
Cu12  O29   S    
C62   O24   A    
C71   H107  S    
C77   H35   S    
C28   H100  S    
C78   H36   S    
C51   H28   S    
C18   H79   S    
C33   H119  S    
C31   H108  S    
C79   O34   A    
C25   H94   S    
Cu9   O19   S    
C32   C89   S    
Cu10  O20   S    
C50   C51   S    
C75   H24   S    
C67   C117  A    
C1    O46   A    
C38   H124  S    
Cu12  O27   S    
C55   C131  S    
Cu11  O6    S    
C133  C134  T    
C34   H115  S    
C30   H112  S    
C42   C43   S    
C107  C121  A    
C32   H122  S    
Cu9   O26   S    
C20   H88   S    
C143  H42   S    
Cu1   O14   S    
C142  H44   S    
C60   C127  S    
C86   C89   A    
C62   C125  S    
C32   C33   S    
C39   H10   S    
C57   O12   A    
C110  C122  A    
C29   C93   S    
C114  C127  A    
C52   C140  T    
C101  O2    A    
C53   C141  T    
C22   C86   S    
C104  O43   A    
Cu4   O41   S    
C106  C138  S    
C35   C90   S    
Cu11  O24   S    
C83   C97   A    
C3    C84   S    
C16   C88   S    
C142  C143  S    
Cu9   O8    S    
C44   H11   S    
C21   H86   S    
Cu8   O5    S    
C58   O15   A    
C85   C91   A    
C18   H77   S    
C19   H91   S    
C61   O22   A    
C66   H63   S    
C63   C81   A    
C29   H114  S    
C35   C138  T    
C105  C141  S    
C65   C83   A    
C49   H33   S    
C84   C96   A    
C14   H73   S    
C47   H23   S    
C10   H65   S    
C116  C129  A    
C88   C92   A    
C67   H74   S    
C54   O11   A    
C113  C116  A    
C123  O4    A    
C50   H31   S    
C48   H21   S    
C63   C121  A    
C73   C111  A    
Cu2   O35   S    
C15   H70   S    
C77   C107  A    
C73   C91   A    
C40   H7    S    
C53   C123  S    
C5    H46   S    
C56   O14   A    
C59   C128  S    
C73   H2    S    
C77   C95   A    
Cu6   O16   S    
C104  O37   A    
Cu4   O43   S    
C51   H29   S    
C103  C139  S    
C9    H67   S    
C61   O25   A    
C47   C48   S    
C70   C119  A    
Cu4   O42   S    
C33   C34   S    
Cu10  O3    S    
C78   C110  A    
C75   C114  A    
C117  C130  A    
C64   C82   A    
C7    H57   S    
Cu7   O45   S    
C109  C125  A    
C40   C41   S    
C12   C14   S    
C111  C127  A    
C13   C136  T    
C1    C134  S    
C59   O20   A    
C57   O45   A    
C60   O19   A    
C12   C87   S    
C100  O33   A    
C42   H17   S    
C83   C142  S    
C43   H16   S    
C109  C124  A    
C4    H50   S    
C26   H106  S    
C27   H103  S    
Cu1   O9    S    
C72   C89   A    
C106  O41   A    
C37   H126  S    
Cu2   O32   S    
C23   C25   S    
C44   H14   S    
C39   C96   S    
C22   H98   S    
C54   O9    A    
C66   C84   A    
Cu10  O25   S    
C21   H84   S    
Cu2   Cu12  S    
C28   H101  S    
C27   C28   S    
C11   H64   S    
Cu4   O40   S    
C69   C86   A    
C17   H81   S    
