data_mof_unit_54994.cif
_audit_creation_date              2012-10-26T21:02:39-0400
_audit_creation_method            fapswitch 2.2
_symmetry_space_group_name_H-M    P1
_symmetry_Int_Tables_number       1
_space_group_crystal_system       triclinic
_cell_length_a                    12.348088
_cell_length_b                    13.200815
_cell_length_c                    15.06485
_cell_angle_alpha                 77.303042
_cell_angle_beta                  101.551696
_cell_angle_gamma                 116.670595
_cell_volume                      2126.11965928

loop_
_atom_site_label
_atom_site_type_symbol
_atom_type_description
_atom_site_fract_x
_atom_site_fract_y
_atom_site_fract_z
_atom_type_partial_charge
C1    C     C_R   0.854875 0.286583 0.508102 0.530893
C2    C     C_R   0.091931 0.484284 0.832666 -0.113504
C3    C     C_R   0.998130 0.497473 0.768307 -0.012466
C4    C     C_R   0.999347 0.499190 0.671240 0.552364
C5    C     C_R   0.903214 0.508698 0.796968 -0.147807
C6    C     C_R   0.273454 0.023032 0.381809 -0.093884
C7    C     C_R   0.227483 0.834922 0.469187 0.006674
C8    C     C_R   0.814683 0.085287 0.569710 -0.115555
C9    C     C_R   0.735066 0.971215 0.590208 -0.129610
C10   C     C_R   0.611637 0.934223 0.558888 -0.074853
C11   C     C_R   0.565339 0.010587 0.502261 0.038925
C12   C     C_R   0.902219 0.507682 0.075470 0.014363
C13   C     C_R   0.649372 0.124091 0.473637 -0.027008
C14   C     C_R   0.438802 0.977788 0.472481 0.013366
C15   C     C_R   0.398956 0.055837 0.410112 0.061800
C16   C     C_R   0.144997 0.713423 0.486889 0.549979
C17   C     C_R   0.485418 0.163460 0.375433 0.224481
C18   C     C_R   0.608475 0.194965 0.405056 -0.078667
C19   C     C_R   0.350295 0.869205 0.503082 -0.094406
C20   C     C_R   0.188522 0.913020 0.410555 -0.143138
C21   C     C_R   0.772757 0.163532 0.513964 -0.013212
C22   C     C_R   0.351774 0.334865 0.650051 -0.119738
C23   C     C_R   0.186502 0.471390 0.082264 -0.115462
C24   C     C_R   0.763192 0.648945 0.378520 0.019473
C25   C     C_R   0.676318 0.692653 0.359537 -0.101513
C26   C     C_R   0.576145 0.644753 0.409289 0.219551
C27   C     C_R   0.556665 0.543717 0.474923 0.021333
C28   C     C_R   0.999906 0.499705 0.328836 0.548200
C29   C     C_R   0.653689 0.507796 0.495706 0.144413
C30   C     C_R   0.450598 0.479936 0.524092 -0.011963
C31   C     C_R   0.451375 0.392017 0.598571 -0.008840
C32   C     C_R   0.549705 0.360421 0.619815 -0.040044
C33   C     C_R   0.647608 0.419444 0.568201 -0.075563
C34   C     C_R   0.186218 0.471100 0.989746 -0.120579
C35   C     C_R   0.340467 0.494903 0.500519 0.042013
C36   C     C_R   0.251129 0.359226 0.627080 0.374556
C37   C     C_R   0.903816 0.509026 0.167934 -0.129801
C38   C     C_R   0.998951 0.498067 0.232035 -0.010008
C39   C     C_R   0.092832 0.485119 0.203476 -0.118521
C40   C     C_R   0.092633 0.483733 0.111250 0.011659
C41   C     C_R   0.997141 0.495315 0.046921 0.062214
C42   C     C_3   0.547190 0.261070 0.696248 -0.272485
C43   C     C_3   0.651785 0.224343 0.707434 -0.306198
C44   C     C_3   0.632917 0.119783 0.780904 -0.432259
C45   C     C_R   0.092118 0.483230 0.925316 0.008701
C46   C     C_R   0.996900 0.495093 0.953886 0.063082
C47   C     C_R   0.901807 0.507341 0.889463 0.014094
C48   C     C_R   0.807313 0.518575 0.918554 -0.129048
C49   C     C_R   0.807553 0.518803 0.011106 -0.122470
Cl1   Cl    Cl    0.444814 0.262767 0.293805 -0.645233
Cl2   Cl    Cl    0.129775 0.280633 0.693890 -0.627364
Cl3   Cl    Cl    0.497693 0.731568 0.396516 -0.673692
Cu1   Cu    Cu3+1 0.098270 0.475420 0.521130 1.027481
Cu2   Cu    Cu3+1 0.901730 0.524580 0.478870 0.931004
H1    H     H_    0.830786 0.518494 0.189821 0.142254
H2    H     H_    0.324606 0.546588 0.438341 0.198680
H3    H     H_    0.842361 0.689906 0.341525 0.131102
H4    H     H_    0.690796 0.768479 0.308944 0.148348
H5    H     H_    0.720985 0.396460 0.587553 0.190730
H6    H     H_    0.260209 0.462297 0.131077 0.148244
H7    H     H_    0.259725 0.461795 0.968535 0.128750
H8    H     H_    0.165461 0.475622 0.810796 0.162528
H9    H     H_    0.830186 0.518216 0.747477 0.128506
H10   H     H_    0.733597 0.527609 0.869718 0.113742
H11   H     H_    0.734018 0.528058 0.032317 0.124774
H12   H     H_    0.240128 0.080497 0.335070 0.181027
H13   H     H_    0.093263 0.887676 0.383883 0.128832
H14   H     H_    0.629401 0.139206 0.848096 0.166319
H15   H     H_    0.546816 0.045830 0.761941 0.154878
H16   H     H_    0.710032 0.095954 0.787371 0.164629
H17   H     H_    0.655797 0.201822 0.641783 0.176352
H18   H     H_    0.740069 0.295210 0.727632 0.167652
H19   H     H_    0.546459 0.284721 0.762494 0.149285
H20   H     H_    0.460994 0.184535 0.682138 0.159859
H21   H     H_    0.374090 0.807859 0.552423 0.129951
H22   H     H_    0.908776 0.112767 0.599859 0.188085
H23   H     H_    0.556058 0.844677 0.578991 0.135824
H24   H     H_    0.768583 0.911540 0.633209 0.128251
H25   H     H_    0.671719 0.275196 0.371566 0.183157
H26   H     H_    0.349735 0.270252 0.708717 0.128909
H27   H     H_    0.166504 0.476683 0.252811 0.146345
N1    N     N_R   0.246280 0.438190 0.553160 -0.239235
N2    N     N_R   0.754320 0.561190 0.447410 -0.241707
O1    O     O_R   0.972510 0.318130 0.526570 -0.446354
O2    O     O_R   0.806530 0.359650 0.490890 -0.542585
O3    O     O_R   0.082980 0.479210 0.647590 -0.449826
O4    O     O_R   0.917000 0.520730 0.611900 -0.536922
O5    O     O_R   0.193470 0.640350 0.509110 -0.493439
O6    O     O_R   0.027490 0.681870 0.473430 -0.510142
O7    O     O_R   0.083000 0.479270 0.388100 -0.509891
O8    O     O_R   0.917020 0.520790 0.352410 -0.512633

loop_
_geom_bond_atom_site_label_1
_geom_bond_atom_site_label_2
_ccdc_geom_bond_type
C8    C9    A    
C1    C21   S    
C43   H18   S    
C27   C29   A    
C20   H13   S    
C12   C49   A    
C4    O4    A    
Cu1   Cu2   S    
C1    O1    A    
C5    C47   A    
C26   C27   A    
C12   C41   A    
C49   H11   S    
C13   C18   A    
Cu1   O1    S    
C24   N2    A    
C29   N2    A    
C30   C31   A    
C11   C14   A    
C48   H10   S    
C4    O3    A    
C23   C40   A    
C29   C33   A    
C8    H22   S    
C5    H9    S    
C12   C37   A    
C6    C15   A    
C35   N1    A    
C47   C48   A    
C36   N1    A    
C18   H25   S    
C41   C46   A    
C44   H16   S    
Cu1   O3    S    
C28   O8    A    
C9    C10   A    
C16   O6    A    
C33   H5    S    
C27   C30   A    
Cu2   N2    S    
C10   H23   S    
C8    C21   A    
C2    C45   A    
C1    O2    A    
C23   H6    S    
C42   H20   S    
C22   C31   A    
C38   C39   A    
C24   C25   A    
C39   H27   S    
Cu2   O6    S    
C39   C40   A    
C24   H3    S    
C25   C26   A    
C45   C46   A    
C34   H7    S    
Cu1   N1    S    
C43   C44   S    
C37   C38   A    
C26   Cl3   S    
C31   C32   A    
C28   C38   S    
C23   C34   A    
C17   C18   A    
C13   C21   A    
C44   H15   S    
C34   C45   A    
C36   Cl2   S    
C30   C35   A    
C48   C49   A    
C7    C19   A    
C44   H14   S    
C25   H4    S    
C3    C4    S    
C6    C20   A    
C15   C17   A    
C46   C47   A    
C40   C41   A    
C42   H19   S    
C43   H17   S    
C35   H2    S    
C14   C19   A    
C7    C16   S    
C3    C5    A    
C17   Cl1   S    
Cu2   O2    S    
C22   C36   A    
C32   C33   A    
C19   H21   S    
C2    C3    A    
C22   H26   S    
Cu2   O8    S    
C11   C13   A    
Cu2   O4    S    
Cu1   O5    S    
C9    H24   S    
C10   C11   A    
C37   H1    S    
C6    H12   S    
C7    C20   A    
C42   C43   S    
Cu1   O7    S    
C16   O5    A    
C32   C42   S    
C14   C15   A    
C28   O7    A    
C2    H8    S    
