data_mof_unit_19118.cif
_audit_creation_date              2012-12-11T15:57:30-0500
_audit_creation_method            fapswitch 2.2
_symmetry_space_group_name_H-M    P1
_symmetry_Int_Tables_number       1
_space_group_crystal_system       triclinic
_cell_length_a                    10.731682
_cell_length_b                    10.764215
_cell_length_c                    16.968553
_cell_angle_alpha                 99.835405
_cell_angle_beta                  99.785452
_cell_angle_gamma                 61.080749
_cell_volume                      1681.83431768

loop_
_atom_site_label
_atom_site_type_symbol
_atom_type_description
_atom_site_fract_x
_atom_site_fract_y
_atom_site_fract_z
_atom_type_partial_charge
C1    C     C_R   0.354114 0.776967 0.401865 0.550243
C2    C     C_2   0.339408 0.351101 0.833957 -0.106025
C3    C     C_2   0.453263 0.276090 0.791386 -0.024618
C4    C     C_R   0.407239 0.374862 0.356207 0.553776
C5    C     C_2   0.442870 0.332247 0.718042 -0.129676
C6    C     C_1   0.818665 0.342012 0.708533 -0.050486
C7    C     C_1   0.845341 0.313695 0.776277 -0.053989
C8    C     C_1   0.359546 0.762300 0.713655 -0.043528
C9    C     C_1   0.326497 0.809868 0.780614 -0.045336
C10   C     C_R   0.896106 0.307183 0.087611 0.546763
C11   C     C_R   0.321900 0.302808 0.118828 0.550501
C12   C     C_2   0.843637 0.321620 0.163448 -0.124490
C13   C     C_R   0.295671 0.889661 0.083796 0.543647
C14   C     C_R   0.885587 0.297126 0.858625 0.549375
C15   C     C_R   0.308442 0.293637 0.894663 0.550440
C16   C     C_R   0.779779 0.374192 0.405872 0.547358
C17   C     C_R   0.280696 0.880513 0.857316 0.550234
C18   C     C_R   0.382041 0.713161 0.631269 0.558897
C19   C     C_R   0.367222 0.346391 0.581074 0.540744
C20   C     C_R   0.773844 0.380781 0.629474 0.541828
C21   C     C_1   0.376083 0.363014 0.271638 -0.063902
C22   C     C_1   0.350166 0.344425 0.200679 -0.051927
C23   C     C_2   0.905222 0.205801 0.204042 -0.132121
C24   C     C_2   0.875941 0.311598 0.341886 0.012308
C25   C     C_3   0.806682 0.112872 0.293556 -0.244953
C26   C     C_3   0.847398 0.981600 0.231640 -0.455166
C27   C     C_3   0.987931 0.360758 0.343296 -0.283304
C28   C     C_3   0.138273 0.235008 0.353463 -0.420635
C29   C     C_3   0.574607 0.839003 0.185265 -0.353919
C30   C     C_3   0.554819 0.873646 0.359513 -0.344224
C31   C     C_3   0.576736 0.128707 0.808014 -0.237906
C32   C     C_3   0.689171 0.061830 0.747867 -0.425861
C33   C     C_2   0.866047 0.211946 0.283186 -0.008627
C34   C     C_2   0.330543 0.850268 0.331295 -0.117531
C35   C     C_2   0.346468 0.822635 0.159109 -0.113836
C36   C     C_2   0.447039 0.840019 0.213366 -0.009865
C37   C     C_2   0.439943 0.852134 0.302176 -0.011572
C38   C     C_2   0.342501 0.334262 0.658726 -0.099225
Cr1   Cr    Cr6+3 0.608020 0.610770 0.522990 1.005091
Cr2   Cr    Cr6+3 0.289390 0.599570 0.488050 1.010244
Cr3   Cr    Cr6+3 0.602610 0.289690 0.489020 0.980404
Cr4   Cr    Cr6+3 0.053780 0.052210 0.965970 1.014352
Cr5   Cr    Cr6+3 0.060060 0.372530 0.992430 1.026777
Cr6   Cr    Cr6+3 0.372600 0.061970 0.991430 1.003924
H1    H     H_    0.984625 0.103375 0.178651 0.157310
H2    H     H_    0.808968 0.911272 0.247786 0.130215
H3    H     H_    0.849995 0.071026 0.353167 0.169743
H4    H     H_    0.688318 0.173417 0.289961 0.177086
H5    H     H_    0.151213 0.181441 0.406975 0.151114
H6    H     H_    0.159591 0.156415 0.299302 0.154502
H7    H     H_    0.218743 0.273181 0.362055 0.189679
H8    H     H_    0.974348 0.410111 0.288116 0.149856
H9    H     H_    0.979126 0.443142 0.394504 0.165577
H10   H     H_    0.674405 0.772855 0.222025 0.104921
H11   H     H_    0.593454 0.787863 0.122841 0.151109
H12   H     H_    0.530777 0.349011 0.707751 0.140434
H13   H     H_    0.559382 0.949542 0.190138 0.159418
H14   H     H_    0.576735 0.952813 0.338674 0.134163
H15   H     H_    0.520154 0.919115 0.420577 0.153040
H16   H     H_    0.654982 0.770946 0.363137 0.143941
H17   H     H_    0.639836 0.045957 0.686466 0.173129
H18   H     H_    0.739818 0.129832 0.747315 0.163383
H19   H     H_    0.773959 0.956165 0.765449 0.145379
H20   H     H_    0.631627 0.136454 0.869001 0.166013
H21   H     H_    0.533537 0.052595 0.805028 0.183769
H22   H     H_    0.256394 0.454946 0.816832 0.103240
H23   H     H_    0.256474 0.312677 0.666347 0.093681
H24   H     H_    0.767929 0.425494 0.189610 0.097883
H25   H     H_    0.275733 0.789076 0.176428 0.083443
H26   H     H_    0.230794 0.871962 0.294524 0.080716
H27   H     H_    0.797089 0.013520 0.170610 0.163879
H28   H     H_    0.965515 0.919799 0.231540 0.149728
O1    O     O_R   0.749250 0.499990 0.439200 -0.521913
O2    O     O_R   0.411120 0.181190 0.091480 -0.521633
O3    O     O_R   0.364220 0.944920 0.062310 -0.495744
O4    O     O_R   0.477870 0.725740 0.440280 -0.491161
O5    O     O_R   0.158740 0.906940 0.874970 -0.505087
O6    O     O_R   0.930920 0.176940 0.885610 -0.499066
O7    O     O_R   0.910730 0.394510 0.895320 -0.507248
O8    O     O_R   0.185840 0.361180 0.920280 -0.496313
O9    O     O_R   0.399210 0.173040 0.915160 -0.527918
O10   O     O_R   0.353170 0.937370 0.898860 -0.499906
O11   O     O_3   0.162150 0.162240 0.983280 -0.244619
O12   O     O_R   0.299400 0.468710 0.556310 -0.502177
O13   O     O_R   0.260770 0.742210 0.412610 -0.516683
O14   O     O_R   0.297990 0.466320 0.394220 -0.500784
O15   O     O_R   0.487720 0.253870 0.385870 -0.537758
O16   O     O_R   0.721940 0.304340 0.422320 -0.527712
O17   O     O_R   0.750770 0.502570 0.614050 -0.508382
O18   O     O_R   0.479280 0.728140 0.602370 -0.490797
O19   O     O_R   0.262290 0.744790 0.587460 -0.501518
O20   O     O_R   0.489240 0.256450 0.560730 -0.511868
O21   O     O_R   0.723350 0.306730 0.584410 -0.503623
O22   O     O_3   0.500010 0.500010 0.500020 -0.280118
O23   O     O_R   0.170650 0.915100 0.051290 -0.522478
O24   O     O_R   0.941960 0.184500 0.049060 -0.499839
O25   O     O_R   0.922640 0.402670 0.071640 -0.512618
O26   O     O_R   0.196880 0.368740 0.083740 -0.493577

loop_
_geom_bond_atom_site_label_1
_geom_bond_atom_site_label_2
_ccdc_geom_bond_type
C20   O21   A    
C23   H1    S    
Cr6   O3    S    
C34   C37   D    
C26   H28   S    
Cr2   O12   S    
C5    H12   S    
C35   C36   D    
C24   C27   S    
Cr6   O11   S    
C15   O9    A    
C4    O15   A    
C12   H24   S    
C12   C23   D    
C13   O23   A    
C11   O26   A    
Cr4   O24   S    
C18   O19   A    
C36   C37   S    
C32   H17   S    
C13   C35   S    
Cr6   O10   S    
C28   H7    S    
C4    O14   A    
C29   H10   S    
Cr5   O7    S    
Cr5   O11   S    
C17   O10   A    
Cr2   O14   S    
C19   O20   A    
C28   H6    S    
C7    C14   S    
Cr3   O21   S    
C15   O8    A    
C8    C9    T    
C23   C33   S    
C30   H16   S    
Cr5   O26   S    
C34   H26   S    
Cr1   O18   S    
Cr1   O1    S    
C16   C24   S    
C21   C22   T    
C26   H27   S    
C1    C34   S    
C1    O13   A    
Cr3   O15   S    
Cr4   O23   S    
C18   O18   A    
C13   O3    A    
Cr6   O9    S    
C29   H11   S    
C3    C5    S    
C25   C26   S    
Cr1   O4    S    
C8    C18   S    
C16   O1    A    
C30   C37   S    
Cr2   O13   S    
C10   O25   A    
Cr6   O2    S    
Cr1   O22   S    
C19   C38   S    
C28   H5    S    
C31   C32   S    
C29   C36   S    
C10   O24   A    
C30   H15   S    
C17   O5    A    
C14   O7    A    
C3    C31   S    
C2    C15   S    
C25   H4    S    
C10   C12   S    
C9    C17   S    
C29   H13   S    
Cr4   O6    S    
C19   O12   A    
C27   H8    S    
C31   H21   S    
Cr3   O16   S    
C25   H3    S    
C1    O4    A    
C31   H20   S    
Cr4   O11   S    
Cr5   O25   S    
C32   H19   S    
Cr2   O22   S    
C2    H22   S    
C11   O2    A    
C27   H9    S    
C6    C7    T    
Cr3   O22   S    
C6    C20   S    
C20   O17   A    
C11   C22   S    
C24   C33   D    
C2    C3    D    
Cr5   O8    S    
C32   H18   S    
C4    C21   S    
C30   H14   S    
C14   O6    A    
Cr2   O19   S    
C26   H2    S    
Cr3   O20   S    
C38   H23   S    
C35   H25   S    
Cr4   O5    S    
C27   C28   S    
C16   O16   A    
C5    C38   D    
Cr1   O17   S    
C25   C33   S    
