data_mof_unit_65373.cif
_audit_creation_date              2012-10-26T18:03:26-0400
_audit_creation_method            fapswitch 2.2
_symmetry_space_group_name_H-M    P1
_symmetry_Int_Tables_number       1
_space_group_crystal_system       triclinic
_cell_length_a                    39.003818
_cell_length_b                    32.232326
_cell_length_c                    21.739857
_cell_angle_alpha                 89.999314
_cell_angle_beta                  124.238455
_cell_angle_gamma                 90.000154
_cell_volume                      22594.6197323

loop_
_atom_site_label
_atom_site_type_symbol
_atom_type_description
_atom_site_fract_x
_atom_site_fract_y
_atom_site_fract_z
_atom_type_partial_charge
Br1   Br    Br    0.041598 0.799680 0.160777 -0.531473
Br2   Br    Br    0.958399 0.799684 0.839221 -0.531465
Br3   Br    Br    0.552903 0.299664 0.161819 -0.533377
Br4   Br    Br    0.447097 0.299668 0.838185 -0.533349
Br5   Br    Br    0.699006 0.913725 0.194521 -0.497662
Br6   Br    Br    0.300989 0.913698 0.804517 -0.497707
Br7   Br    Br    0.199019 0.413659 0.196866 -0.496801
Br8   Br    Br    0.800980 0.413657 0.802711 -0.496823
C1    C     C_R   0.920417 0.000016 0.420483 0.548349
C2    C     C_R   0.977573 0.025653 0.259118 -0.145475
C3    C     C_1   0.500000 0.338407 0.000002 0.056467
C4    C     C_1   0.000000 0.875864 0.000000 0.032948
C5    C     C_1   0.500000 0.375860 0.000001 0.033218
C6    C     C_1   0.500000 0.124058 1.000000 -0.018086
C7    C     C_1   0.999999 0.624062 0.999999 -0.018116
C8    C     C_R   0.465665 0.771841 0.942677 -0.096638
C9    C     C_R   0.534334 0.771841 0.057325 -0.096642
C10   C     C_R   0.967902 0.271841 0.938592 -0.096231
C11   C     C_R   0.032097 0.271840 0.061409 -0.096232
C12   C     C_R   0.939975 0.946451 0.626152 -0.097120
C13   C     C_R   0.522507 0.525581 0.740959 -0.145566
C14   C     C_R   0.060026 0.946452 0.373851 -0.097112
C15   C     C_R   0.439847 0.446607 0.625992 -0.097378
C16   C     C_R   0.560157 0.446612 0.374014 -0.097375
C17   C     C_R   0.500000 0.793715 0.000001 0.037433
C18   C     C_R   1.000000 0.293715 0.000001 0.038010
C19   C     C_R   0.032096 0.228389 0.061410 -0.099566
C20   C     C_R   0.967903 0.228390 0.938591 -0.099568
C21   C     C_R   0.534334 0.728389 0.057326 -0.099774
C22   C     C_R   0.465666 0.728390 0.942676 -0.099776
C23   C     C_R   1.000000 0.206515 0.000000 0.036707
C24   C     C_R   0.477491 0.525580 0.259038 -0.145566
C25   C     C_R   0.500000 0.706515 0.000001 0.036412
C26   C     C_1   0.500000 0.838506 0.000001 -0.037418
C27   C     C_1   1.000000 0.338506 0.000001 -0.037160
C28   C     C_1   1.000000 0.161723 0.000000 -0.051959
C29   C     C_1   0.500000 0.661723 0.000000 -0.052064
C30   C     C_R   0.916244 0.917456 0.634205 -0.110923
C31   C     C_R   0.083757 0.917457 0.365799 -0.110909
C32   C     C_R   0.416019 0.417687 0.633939 -0.112114
C33   C     C_R   0.583987 0.417693 0.366071 -0.112110
C34   C     C_R   0.921264 0.912764 0.702402 -0.092148
C35   C     C_R   0.024034 0.024149 0.806048 -0.145156
C36   C     C_R   0.078737 0.912764 0.297602 -0.092137
C37   C     C_R   0.421012 0.412982 0.702110 -0.094195
C38   C     C_R   0.578995 0.412987 0.297901 -0.094195
C39   C     C_R   0.948977 0.938056 0.762213 -0.083984
C40   C     C_R   0.051023 0.938056 0.237789 -0.083981
C41   C     C_R   0.448800 0.438186 0.762008 -0.085815
C42   C     C_R   0.551204 0.438190 0.238000 -0.085814
C43   C     C_R   0.972389 0.968671 0.754678 0.025078
C44   C     C_R   0.027611 0.968672 0.245324 0.025081
C45   C     C_R   0.472306 0.468736 0.754580 0.024696
C46   C     C_R   0.975965 0.024150 0.193951 -0.145146
C47   C     C_R   0.527696 0.468739 0.245424 0.024697
C48   C     C_R   0.969494 0.971369 0.686877 0.027369
C49   C     C_R   0.030506 0.971370 0.313124 0.027373
C50   C     C_R   0.469427 0.471443 0.686794 0.027322
C51   C     C_R   0.530575 0.471446 0.313209 0.027324
C52   C     C_3   0.711862 0.086238 0.218680 -0.258086
C53   C     C_3   0.664725 0.092583 0.172937 -0.302596
C54   C     C_3   0.653695 0.138588 0.165683 -0.437742
C55   C     C_3   0.288144 0.086269 0.782241 -0.258141
C56   C     C_3   0.335276 0.092624 0.827918 -0.302588
C57   C     C_R   0.524108 0.524070 0.806119 -0.145144
C58   C     C_3   0.346306 0.138651 0.835606 -0.437740
C59   C     C_3   0.211856 0.586285 0.216389 -0.258100
C60   C     C_3   0.164720 0.592649 0.170527 -0.302306
C61   C     C_3   0.153688 0.638696 0.162062 -0.438406
C62   C     C_3   0.788145 0.586297 0.784070 -0.258105
C63   C     C_3   0.835283 0.592671 0.830050 -0.302273
C64   C     C_3   0.846317 0.638728 0.838827 -0.438387
C65   C     C_R   0.475890 0.524069 0.193878 -0.145143
C66   C     C_R   0.999133 0.996242 0.813323 0.006673
C67   C     C_R   0.000867 0.996243 0.186678 0.006675
C68   C     C_R   0.499127 0.496232 0.813312 0.006411
C69   C     C_R   0.079583 0.000016 0.579517 0.548348
C70   C     C_R   0.500873 0.496232 0.186689 0.006410
C71   C     C_R   0.727674 0.965979 0.226543 0.169553
C72   C     C_R   0.272323 0.965968 0.773066 0.169561
C73   C     C_R   0.227681 0.465946 0.227480 0.169584
C74   C     C_R   0.772319 0.465947 0.772360 0.169589
C75   C     C_R   0.706192 0.004148 0.207513 0.064374
C76   C     C_R   0.293808 0.004150 0.792508 0.064371
C77   C     C_R   0.206194 0.504140 0.207430 0.064349
C78   C     C_R   0.793807 0.504144 0.792602 0.064352
C79   C     C_R   0.729205 0.042079 0.233036 -0.011182
C80   C     C_R   0.420417 0.500015 0.420483 0.548417
C81   C     C_R   0.270797 0.042095 0.767401 -0.011190
C82   C     C_R   0.229202 0.542096 0.231928 -0.011160
C83   C     C_R   0.770799 0.542103 0.768300 -0.011170
C84   C     C_R   0.772884 0.039820 0.276427 -0.114300
C85   C     C_R   0.227118 0.039834 0.724001 -0.114283
C86   C     C_R   0.272881 0.539834 0.275366 -0.114256
C87   C     C_R   0.727120 0.539839 0.724843 -0.114256
C88   C     C_R   0.793633 0.001832 0.294652 -0.005788
C89   C     C_R   0.206367 0.001834 0.705363 -0.005773
C90   C     C_R   0.293634 0.501823 0.294607 -0.005725
C91   C     C_R   0.579583 0.500015 0.579517 0.548416
C92   C     C_R   0.706366 0.501825 0.705409 -0.005723
C93   C     C_R   0.770979 0.965063 0.269725 -0.075120
C94   C     C_R   0.229019 0.965052 0.729881 -0.075120
C95   C     C_R   0.270986 0.465030 0.270677 -0.075141
C96   C     C_R   0.729015 0.465030 0.729158 -0.075137
C97   C     C_R   0.998140 0.999925 0.617107 0.540823
C98   C     C_R   0.001860 0.999926 0.382893 0.540831
C99   C     C_R   0.498149 0.499926 0.617115 0.540893
C100  C     C_R   0.501850 0.499927 0.382885 0.540894
C101  C     C_1   0.661363 0.002626 0.162302 -0.001276
C102  C     C_R   0.995781 0.999370 0.681598 0.005006
C103  C     C_1   0.338637 0.002625 0.837710 -0.001262
C104  C     C_1   0.161364 0.502615 0.162258 -0.001244
C105  C     C_1   0.838636 0.502617 0.837755 -0.001237
C106  C     C_1   0.838379 0.000733 0.339066 -0.048825
C107  C     C_1   0.161620 0.000733 0.660943 -0.048822
C108  C     C_1   0.338380 0.500724 0.339043 -0.048868
C109  C     C_1   0.661620 0.500725 0.660965 -0.048867
C110  C     C_1   0.875826 0.000168 0.376214 -0.017697
C111  C     C_1   0.124173 0.000168 0.623790 -0.017697
C112  C     C_1   0.375827 0.500165 0.376204 -0.017811
C113  C     C_R   0.004219 0.999372 0.318403 0.005008
C114  C     C_1   0.624173 0.500164 0.623799 -0.017810
C115  C     C_1   0.623922 0.000997 0.124479 0.001512
C116  C     C_1   0.376077 0.000996 0.875523 0.001521
C117  C     C_1   0.123923 0.500988 0.124471 0.001587
C118  C     C_1   0.876077 0.500989 0.875531 0.001592
C119  C     C_1   0.500000 0.875992 0.000001 0.004034
C120  C     C_1   1.000000 0.375992 0.000001 0.004124
C121  C     C_R   0.000000 0.920430 0.000000 0.541813
C122  C     C_R   0.500000 0.420429 0.000000 0.540955
C123  C     C_R   0.999844 0.998398 0.880843 0.539967
C124  C     C_R   0.495791 0.499374 0.681602 0.004983
C125  C     C_R   0.000156 0.998398 0.119157 0.539969
C126  C     C_R   0.499843 0.498387 0.880840 0.539537
C127  C     C_R   0.500157 0.498387 0.119160 0.539537
C128  C     C_R   1.000000 0.079594 1.000000 0.556163
C129  C     C_R   0.500000 0.579594 1.000000 0.556182
C130  C     C_R   0.500000 0.920635 0.000000 0.562683
C131  C     C_R   1.000000 0.420635 0.000000 0.562769
C132  C     C_R   0.579383 0.999964 0.079511 0.551397
C133  C     C_R   0.420617 0.999963 0.920489 0.551393
C134  C     C_R   0.079383 0.499961 0.079511 0.551441
C135  C     C_R   0.504209 0.499375 0.318398 0.004984
C136  C     C_R   0.920617 0.499961 0.920489 0.551440
C137  C     C_1   1.000000 0.124237 0.000000 -0.018961
C138  C     C_1   0.500000 0.624237 0.000000 -0.018948
C139  C     C_R   0.500000 0.079454 1.000000 0.540404
C140  C     C_R   1.000000 0.579455 1.000000 0.540432
C141  C     C_R   0.522074 0.228077 0.067332 -0.081933
C142  C     C_R   0.477926 0.228078 0.932671 -0.081916
C143  C     C_R   0.017340 0.728086 0.066914 -0.082164
C144  C     C_R   0.982658 0.728087 0.933084 -0.082140
C145  C     C_R   0.500000 0.206279 0.000001 -0.029069
C146  C     C_R   0.022427 0.025652 0.740881 -0.145484
C147  C     C_R   0.999999 0.706286 0.999999 -0.030167
C148  C     C_R   0.982581 0.771547 0.932731 0.151757
C149  C     C_R   0.017417 0.771545 0.067268 0.151762
C150  C     C_R   0.477839 0.271538 0.932308 0.152268
C151  C     C_R   0.522162 0.271536 0.067695 0.152275
C152  C     C_R   0.999999 0.793561 1.000000 0.059981
C153  C     C_R   0.500000 0.293554 0.000002 0.060439
C154  C     C_1   0.500000 0.161520 0.000000 -0.053243
C155  C     C_1   0.999999 0.661525 0.999998 -0.053597
C156  C     C_1   1.000000 0.838412 0.000000 0.055947
Cu1   Cu    Cu3+1 1.000000 0.041020 0.500000 0.954204
Cu2   Cu    Cu3+1 0.500000 0.000050 0.938220 0.987666
Cu3   Cu    Cu3+1 1.000000 0.500050 0.061780 0.987594
Cu4   Cu    Cu3+1 1.000000 0.500050 0.938220 0.987754
Cu5   Cu    Cu3+1 0.500000 0.541020 0.500000 0.954331
Cu6   Cu    Cu3+1 1.000000 0.958990 0.500000 0.965870
Cu7   Cu    Cu3+1 0.500000 0.458990 0.500000 0.963772
Cu8   Cu    Cu3+1 0.041020 0.999990 0.040980 0.965783
Cu9   Cu    Cu3+1 0.958980 0.999990 0.959020 0.965783
Cu10  Cu    Cu3+1 0.541020 0.499990 0.040980 0.966939
Cu11  Cu    Cu3+1 0.458980 0.499990 0.959020 0.966938
Cu12  Cu    Cu3+1 0.500000 0.000050 0.061780 0.987345
H1    H     H_    0.042610 0.047056 0.737119 0.135633
H2    H     H_    0.460784 0.211338 0.880407 0.153809
H3    H     H_    0.030803 0.711346 0.118855 0.155261
H4    H     H_    0.969194 0.711349 0.881143 0.155293
H5    H     H_    0.942911 0.211875 0.890773 0.121015
H6    H     H_    0.057088 0.211873 0.109228 0.121015
H7    H     H_    0.438931 0.711875 0.898038 0.121500
H8    H     H_    0.561068 0.711874 0.101963 0.121489
H9    H     H_    0.438929 0.788358 0.898042 0.129816
H10   H     H_    0.561070 0.788356 0.101960 0.129771
H11   H     H_    0.942909 0.288357 0.890776 0.128793
H12   H     H_    0.957390 0.047057 0.262879 0.135646
H13   H     H_    0.057090 0.288356 0.109226 0.128773
H14   H     H_    0.934410 0.949390 0.571717 0.138420
H15   H     H_    0.065592 0.949392 0.428286 0.138418
H16   H     H_    0.434311 0.449556 0.571581 0.138472
H17   H     H_    0.565693 0.449562 0.428426 0.138469
H18   H     H_    0.894050 0.898358 0.587426 0.129798
H19   H     H_    0.105951 0.898359 0.412579 0.129813
H20   H     H_    0.393775 0.398654 0.587099 0.130090
H21   H     H_    0.606233 0.398663 0.412914 0.130092
H22   H     H_    0.903367 0.889654 0.708854 0.154467
H23   H     H_    0.542748 0.546931 0.737256 0.135512
H24   H     H_    0.096633 0.889653 0.291151 0.154473
H25   H     H_    0.403039 0.389926 0.708479 0.157538
H26   H     H_    0.596969 0.389933 0.291534 0.157530
H27   H     H_    0.952150 0.932887 0.814310 0.148262
H28   H     H_    0.047850 0.932887 0.185693 0.148261
H29   H     H_    0.451953 0.432997 0.814083 0.148838
H30   H     H_    0.548051 0.433000 0.185925 0.148838
H31   H     H_    0.044486 0.045302 0.850821 0.134357
H32   H     H_    0.955514 0.045303 0.149177 0.134366
H33   H     H_    0.544617 0.545167 0.850951 0.134455
H34   H     H_    0.457249 0.546928 0.262738 0.135513
H35   H     H_    0.455379 0.545164 0.149044 0.134459
H36   H     H_    0.786970 0.935527 0.283777 0.152816
H37   H     H_    0.213026 0.935507 0.715509 0.152787
H38   H     H_    0.286981 0.435475 0.285519 0.152663
H39   H     H_    0.713018 0.435473 0.714168 0.152651
H40   H     H_    0.666844 0.152493 0.221447 0.165483
H41   H     H_    0.665889 0.155452 0.137264 0.164157
H42   H     H_    0.619442 0.142197 0.132259 0.155727
H43   H     H_    0.650540 0.080049 0.115930 0.173256
H44   H     H_    0.651602 0.077045 0.200936 0.174191
H45   H     H_    0.791028 0.068152 0.296341 0.118141
H46   H     H_    0.725112 0.101196 0.273790 0.150264
H47   H     H_    0.724030 0.103490 0.190472 0.150228
H48   H     H_    0.333116 0.152751 0.779967 0.165483
H49   H     H_    0.334159 0.155330 0.864270 0.164114
H50   H     H_    0.380556 0.142265 0.868982 0.155749
H51   H     H_    0.349508 0.079896 0.884814 0.173266
H52   H     H_    0.348349 0.077270 0.799681 0.174179
H53   H     H_    0.274849 0.101451 0.727302 0.150302
H54   H     H_    0.276029 0.103301 0.810734 0.150234
H55   H     H_    0.166851 0.653110 0.217458 0.164658
H56   H     H_    0.208976 0.068175 0.704403 0.118140
H57   H     H_    0.165864 0.655067 0.133172 0.163656
H58   H     H_    0.119436 0.642316 0.128573 0.156472
H59   H     H_    0.150518 0.579604 0.113852 0.173389
H60   H     H_    0.151617 0.577609 0.198966 0.174103
H61   H     H_    0.225122 0.601754 0.271091 0.150150
H62   H     H_    0.224003 0.603035 0.187689 0.150107
H63   H     H_    0.833177 0.653267 0.783529 0.164658
H64   H     H_    0.834119 0.654979 0.867788 0.163628
H65   H     H_    0.880570 0.642353 0.872382 0.156475
H66   H     H_    0.849454 0.579503 0.886638 0.173432
H67   H     H_    0.291020 0.568184 0.294513 0.118056
H68   H     H_    0.848417 0.577751 0.801565 0.174044
H69   H     H_    0.774908 0.601852 0.729449 0.150154
H70   H     H_    0.775966 0.602957 0.812797 0.150105
H71   H     H_    0.708980 0.568191 0.705837 0.118057
H72   H     H_    0.539216 0.211336 0.119595 0.153753
O1    O     O_R   0.940150 0.034640 0.440170 -0.502217
O2    O     O_R   0.440140 0.999970 0.992380 -0.498551
O3    O     O_R   0.059860 0.499970 0.007620 -0.498732
O4    O     O_R   0.940140 0.499970 0.992380 -0.498803
O5    O     O_R   0.499990 0.059890 0.052110 -0.504741
O6    O     O_R   0.500010 0.059890 0.947890 -0.504689
O7    O     O_R   0.999990 0.559890 0.052110 -0.504770
O8    O     O_R   0.000010 0.559890 0.947890 -0.504737
O9    O     O_R   0.940160 0.965370 0.440130 -0.505400
O10   O     O_R   0.059840 0.965370 0.559870 -0.505401
O11   O     O_R   0.440160 0.465370 0.440130 -0.505584
O12   O     O_R   0.059850 0.034640 0.559830 -0.502219
O13   O     O_R   0.559840 0.465370 0.559870 -0.505583
O14   O     O_R   0.999990 0.034640 0.590170 -0.508540
O15   O     O_R   0.000010 0.034640 0.409830 -0.508529
O16   O     O_R   0.499990 0.534640 0.590170 -0.508312
O17   O     O_R   0.500010 0.534640 0.409830 -0.508309
O18   O     O_R   1.000000 0.965370 0.590130 -0.508426
O19   O     O_R   0.000000 0.965370 0.409870 -0.508426
O20   O     O_R   0.500000 0.465370 0.590130 -0.508837
O21   O     O_R   0.500000 0.465370 0.409870 -0.508836
O22   O     O_R   0.034640 0.940150 0.034570 -0.505628
O23   O     O_R   0.440150 0.534640 0.440170 -0.502113
O24   O     O_R   0.965360 0.940150 0.965430 -0.505628
O25   O     O_R   0.534640 0.440150 0.034570 -0.504796
O26   O     O_R   0.465360 0.440150 0.965430 -0.504798
O27   O     O_R   0.034650 0.999990 0.944440 -0.503534
O28   O     O_R   0.965350 0.999990 0.055560 -0.503529
O29   O     O_R   0.534650 0.499990 0.944440 -0.503988
O30   O     O_R   0.465350 0.499990 0.055560 -0.503988
O31   O     O_R   0.965370 0.000000 0.875180 -0.515488
O32   O     O_R   0.034630 0.000000 0.124820 -0.515483
O33   O     O_R   0.465370 0.500000 0.875180 -0.515015
O34   O     O_R   0.559850 0.534640 0.559830 -0.502114
O35   O     O_R   0.534630 0.500000 0.124820 -0.515016
O36   O     O_R   0.034640 0.059840 0.034640 -0.499557
O37   O     O_R   0.965360 0.059840 0.965360 -0.499558
O38   O     O_R   0.534640 0.559840 0.034640 -0.499663
O39   O     O_R   0.465360 0.559840 0.965360 -0.499663
O40   O     O_R   0.500010 0.940200 0.052220 -0.495429
O41   O     O_R   0.499990 0.940200 0.947780 -0.495360
O42   O     O_R   0.000010 0.440200 0.052220 -0.495473
O43   O     O_R   0.999990 0.440200 0.947780 -0.495444
O44   O     O_R   0.559850 0.000040 0.111990 -0.501316
O45   O     O_R   0.440150 0.000040 0.888010 -0.501175
O46   O     O_R   0.059850 0.500040 0.111990 -0.500938
O47   O     O_R   0.940150 0.500040 0.888010 -0.500869
O48   O     O_R   0.559860 0.999970 0.007620 -0.498408

loop_
_geom_bond_atom_site_label_1
_geom_bond_atom_site_label_2
_ccdc_geom_bond_type
C15   C50   A    
C97   C102  S    
C47   C51   A    
C44   C67   A    
C131  O43   A    
Cu10  O35   S    
C98   O19   A    
C7    C155  T    
C100  O21   A    
C120  C131  S    
Cu12  O2    S    
C129  O39   A    
C21   C25   A    
C92   C96   A    
C141  C145  A    
C144  C148  A    
C26   C119  T    
C69   O12   A    
C5    C122  S    
C151  C153  A    
Cu12  O44   S    
C143  C147  A    
C89   C107  S    
C17   C26   S    
Cu6   O19   S    
C125  O28   A    
C16   C33   A    
C88   C106  S    
C93   H36   S    
C126  O33   A    
Cu3   O7    S    
C19   C23   A    
C129  C138  S    
C34   H22   S    
C31   H19   S    
C56   C58   S    
C144  H4    S    
C13   C124  A    
C94   H37   S    
Br6   C72   S    
C9    H10   S    
C45   C50   A    
Cu6   O10   S    
Cu11  O39   S    
C122  O25   A    
Cu12  O40   S    
C104  C117  T    
C55   H54   S    
Cu8   O22   S    
C149  C152  A    
C143  C149  A    
Cu8   O27   S    
C8    C17   A    
Cu4   O3    S    
Br2   C148  S    
C134  O3    A    
C103  C116  T    
C97   O14   A    
C126  O29   A    
C53   H43   S    
C77   C82   A    
C134  O46   A    
C59   H62   S    
C8    H9    S    
C9    C17   A    
C3    C5    T    
C41   C45   A    
C58   H49   S    
C128  O36   A    
C62   H69   S    
C18   C27   S    
C40   C44   A    
C91   O13   A    
C146  H1    S    
C74   C96   A    
C23   C28   S    
C92   C109  S    
C90   C95   A    
Cu2   O45   S    
C127  O30   A    
C62   C83   S    
Cu11  O30   S    
C109  C114  T    
C77   C104  S    
Cu3   O42   S    
C63   H68   S    
C130  O41   A    
C7    C140  S    
C8    C22   A    
Cu10  O38   S    
C10   H11   S    
C84   C88   A    
Cu7   O13   S    
C61   H57   S    
Cu10  Cu11  S    
C80   O11   A    
C87   H71   S    
Cu12  O5    S    
C2    H12   S    
Br5   C71   S    
C35   C146  A    
C51   C135  A    
C66   C123  S    
Br3   C151  S    
C1    C110  S    
Cu5   Cu7   S    
C100  O17   A    
C13   H23   S    
C128  O37   A    
C15   H16   S    
C54   H41   S    
C148  C152  A    
C10   C20   A    
C33   H21   S    
C47   C70   A    
C101  C115  T    
C105  C118  T    
C147  C155  S    
C6    C139  S    
C139  O5    A    
C59   C82   S    
Cu3   O4    S    
C108  C112  T    
C72   C94   A    
C86   H67   S    
C60   H59   S    
C80   O23   A    
C55   C81   S    
Cu1   O15   S    
C64   H63   S    
Cu8   O32   S    
C95   H38   S    
C62   C63   S    
C11   H13   S    
C42   H30   S    
Br7   C73   S    
C140  O8    A    
C141  H72   S    
C46   H32   S    
C116  C133  S    
C122  O26   A    
C52   H47   S    
C85   C89   A    
C73   C95   A    
Cu4   O47   S    
C65   H35   S    
C43   C48   A    
C63   H66   S    
C99   C124  S    
C36   H24   S    
C31   C36   A    
C40   H28   S    
Cu5   O17   S    
Cu7   O11   S    
C63   C64   S    
C129  O38   A    
C16   C51   A    
C14   C31   A    
C118  C136  S    
C100  C135  S    
C81   C85   A    
C53   C54   S    
C83   C87   A    
C55   C56   S    
C36   C40   A    
C28   C137  T    
Cu10  O29   S    
C99   O20   A    
Cu1   O14   S    
C71   C93   A    
C14   H15   S    
C79   C84   A    
C61   H58   S    
C73   C77   A    
C75   C79   A    
C21   H8    S    
C1    O9    A    
C9    C21   A    
C22   H7    S    
C10   C18   A    
C43   C66   A    
C72   C76   A    
Cu2   O48   S    
C57   C68   A    
C78   C105  S    
Br8   C74   S    
C152  C156  S    
C84   H45   S    
C78   C83   A    
C61   H55   S    
C12   H14   S    
C86   C90   A    
C15   C32   A    
C3    C153  S    
C11   C18   A    
C121  O22   A    
C150  C153  A    
Cu2   O41   S    
C50   C124  A    
C60   C61   S    
C142  C145  A    
C99   O16   A    
C119  C130  S    
C29   C138  T    
C80   C112  S    
C70   C127  S    
C123  O31   A    
C89   C94   A    
C12   C48   A    
C55   H53   S    
Cu3   O46   S    
C88   C93   A    
C133  O2    A    
C82   C86   A    
C32   C37   A    
C76   C103  S    
C4    C121  S    
C35   H31   S    
C59   C60   S    
C127  O35   A    
Cu3   Cu4   S    
C68   C126  S    
C87   C92   A    
C39   C43   A    
C74   C78   A    
C59   H61   S    
C25   C29   S    
C30   H18   S    
C107  C111  T    
C52   C53   S    
C6    C154  T    
C132  O44   A    
Cu9   O28   S    
C24   H34   S    
C133  O45   A    
C144  C147  A    
C37   C41   A    
C58   H50   S    
C39   H27   S    
Cu7   O20   S    
C62   H70   S    
C91   C114  S    
C85   H56   S    
C41   H29   S    
C45   C68   A    
Cu1   Cu6   S    
C142  C150  A    
C13   C57   A    
C20   C23   A    
C96   H39   S    
C52   H46   S    
C67   C125  S    
C145  C154  S    
C121  O24   A    
C71   C75   A    
C98   O15   A    
Cu6   O9    S    
C27   C120  T    
C19   H6    S    
C44   C49   A    
C91   O34   A    
C38   H26   S    
Cu4   O43   S    
C131  O42   A    
Cu9   O31   S    
Cu4   O8    S    
Cu6   O18   S    
C53   H44   S    
C2    C113  A    
C14   C49   A    
C125  O32   A    
Cu1   O1    S    
C54   H42   S    
C30   C34   A    
Cu10  O25   S    
C4    C156  T    
C136  O47   A    
C130  O40   A    
Cu5   O34   S    
C24   C135  A    
C60   H60   S    
C143  H3    S    
Br4   C150  S    
C33   C38   A    
C64   H64   S    
C11   C19   A    
C57   H33   S    
C128  C137  S    
C142  H2    S    
C35   C66   A    
C136  O4    A    
C48   C102  A    
C52   C79   S    
C58   H48   S    
C24   C65   A    
C97   O18   A    
C115  C132  S    
Cu5   O16   S    
C46   C67   A    
C1    O1    A    
C20   H5    S    
C123  O27   A    
C102  C146  A    
C12   C30   A    
C90   C108  S    
C117  C134  S    
C65   C70   A    
C75   C101  S    
C141  C151  A    
C106  C110  T    
Cu5   O23   S    
C69   O10   A    
Cu7   O21   S    
C76   C81   A    
C56   H52   S    
Cu8   Cu9   S    
C32   H20   S    
C22   C25   A    
C54   H40   S    
C64   H65   S    
C69   C111  S    
C132  O48   A    
Cu9   O24   S    
C38   C42   A    
C139  O6    A    
Cu2   Cu12  S    
C42   C47   A    
Cu1   O12   S    
Br1   C149  S    
Cu11  O26   S    
C16   H17   S    
C98   C113  S    
Cu2   O6    S    
C34   C39   A    
C56   H51   S    
C2    C46   A    
C49   C113  A    
Cu8   O36   S    
Cu9   O37   S    
C140  O7    A    
C37   H25   S    
Cu11  O33   S    
