data_mof_unit_43247.cif
_audit_creation_date              2013-03-05T15:43:33-0500
_audit_creation_method            fapswitch 2.2
_symmetry_space_group_name_H-M    P1
_symmetry_Int_Tables_number       1
_space_group_crystal_system       triclinic
_cell_length_a                    10.073816
_cell_length_b                    10.734056
_cell_length_c                    13.085789
_cell_angle_alpha                 90.574364
_cell_angle_beta                  70.83262
_cell_angle_gamma                 90.746124
_cell_volume                      1336.42333481

loop_
_atom_site_label
_atom_site_type_symbol
_atom_site_description
_atom_site_fract_x
_atom_site_fract_y
_atom_site_fract_z
_atom_type_partial_charge
O1    O     O_R   0.386950 0.680940 0.500020 -0.613551
O2    O     O_R   0.613110 0.680900 0.499980 -0.610424
C1    C     C_R   0.502765 0.736928 0.495403 0.888489
O3    O     O_R   0.330780 0.500000 0.653640 -0.644469
O4    O     O_R   0.556930 0.499960 0.653610 -0.581936
C2    C     C_R   0.424654 0.521299 0.701419 0.944809
Zn1   Zn    Zn3+2 0.349000 0.500030 0.500020 1.044017
Zn2   Zn    Zn3+2 0.651000 0.499970 0.499980 1.009832
O5    O     O_R   0.386890 0.319100 0.500020 -0.574935
O6    O     O_R   0.613050 0.319060 0.499980 -0.640992
O7    O     O_R   0.443070 0.500040 0.346390 -0.517479
O8    O     O_R   0.669220 0.500000 0.346360 -0.620683
C3    C     C_R   0.497287 0.262784 0.505079 0.824886
C4    C     C_R   0.578195 0.502186 0.295776 0.901559
C5    C     C_R   0.787770 0.484434 0.997374 -0.186046
H1    H     H_    0.840043 0.570922 0.797768 0.132499
H2    H     H_    0.889555 0.454959 0.943704 0.177750
C6    C     C_R   0.626606 0.519463 0.178529 -0.325744
C7    C     C_R   0.240699 0.580862 0.873903 -0.372739
C8    C     C_R   0.198268 0.591730 0.986747 0.431080
C9    C     C_R   0.297298 0.573438 0.039665 0.354370
C10   C     C_R   0.444057 0.579419 0.979169 -0.149492
C11   C     C_R   0.484629 0.591123 0.865469 -0.008114
C12   C     C_R   0.553427 0.564275 0.024500 0.085595
C13   C     C_R   0.690515 0.536655 0.955541 -0.047734
C14   C     C_R   0.730223 0.571424 0.847664 -0.309882
C15   C     C_R   0.628108 0.615495 0.806722 0.518938
C16   C     C_R   0.535293 0.580885 0.134024 0.417436
C17   C     C_R   0.754011 0.468891 0.108592 0.446739
C18   C     C_R   0.382826 0.567989 0.814016 -0.135705
H3    H     H_    0.162013 0.575782 0.833990 0.173163
C19   C     C_2   0.611487 0.067911 0.489015 -0.194816
C20   C     C_2   0.490434 0.130902 0.523254 0.308573
H4    H     H_    0.712287 0.114523 0.452680 0.165987
C21   C     C_2   0.613388 0.934436 0.496951 -0.093622
C22   C     C_2   0.510861 0.867625 0.479352 -0.228011
H5    H     H_    0.699833 0.891864 0.515765 0.192775
H6    H     H_    0.430489 0.909645 0.452538 0.215492
C23   C     C_2   0.076356 0.400901 0.488251 0.373921
N1    N     N_2   0.148270 0.498670 0.498870 -0.196472
H7    H     H_    0.091060 0.574273 0.537678 0.188334
C24   C     C_2   0.919283 0.404017 0.516901 -0.016182
N2    N     N_2   0.852610 0.498640 0.498840 0.031191
H8    H     H_    0.860120 0.318870 0.545339 0.131190
O9    O     O_3   0.847285 0.404830 0.144734 -0.690507
H9    H     H_    0.866766 0.456202 0.201358 0.397079
O10   O     O_3   0.365006 0.073131 0.582142 -0.735747
H10   H     H_    0.290419 0.136533 0.607063 0.363218
N3    N     N_R   0.145850 0.286140 0.447644 0.217384
O11   O     O_R   0.084684 0.180467 0.484058 -0.412702
O12   O     O_R   0.253944 0.286336 0.359564 -0.271265
O13   O     O_3   0.933090 0.590139 0.439777 -0.655900
H11   H     H_    0.867636 0.643989 0.418804 0.388739
O14   O     O_3   0.437705 0.666569 0.192556 -0.703093
H12   H     H_    0.468379 0.700817 0.251890 0.331657
N4    N     N_R   0.246636 0.529485 0.148948 0.265631
O15   O     O_R   0.285186 0.420738 0.171156 -0.331742
O16   O     O_R   0.145943 0.587318 0.221795 -0.264437
O17   O     O_3   0.058826 0.606615 0.047217 -0.715166
H13   H     H_    0.007942 0.634926 0.998582 0.329006
O18   O     O_3   0.664843 0.684053 0.712430 -0.734999
H14   H     H_    0.768635 0.693071 0.683482 0.333250

loop_
_geom_bond_atom_site_label_1
_geom_bond_atom_site_label_2
_geom_bond_distance
_ccdc_geom_bond_type
C9    N4    1.433916 S    
Zn1   N1    2.026969 S    
C19   C21   1.438354 S    
C12   C13   1.412915 A    
C3    C20   1.434839 S    
C11   C15   1.418834 A    
O4    Zn2   1.920575 S    
C12   C16   1.393935 A    
C4    C6    1.462265 S    
C21   C22   1.329555 D    
Zn2   N2    2.026368 S    
Zn2   O8    1.957671 S    
C7    H3    1.083629 S    
C19   C20   1.342246 D    
N3    O12   1.300022 A    
C22   H6    1.086881 S    
O2    C1    1.289481 A    
O8    C4    1.295755 A    
O17   H13   0.991114 S    
C6    C17   1.419986 A    
O1    Zn1   1.974282 S    
C9    C10   1.430585 A    
C8    C9    1.405262 A    
C8    O17   1.377788 S    
Zn1   O7    1.920575 S    
C14   C15   1.395954 A    
O4    C2    1.295038 A    
C24   H8    1.084452 S    
C1    C22   1.417964 S    
O3    Zn1   1.957671 S    
C5    H2    1.084362 S    
Zn2   O6    1.974282 S    
N1    H7    1.029731 S    
C23   N3    1.433511 S    
N4    O16   1.300996 A    
C5    C17   1.392831 A    
C23   C24   1.502334 S    
C10   C11   1.414079 A    
H1    C14   1.084439 S    
O18   H14   0.992031 S    
C20   O10   1.387329 S    
O7    C4    1.303687 A    
C10   C12   1.424060 A    
N2    O13   1.342496 S    
C5    C13   1.395131 A    
C24   N2    1.290509 D    
C11   C18   1.417809 A    
Zn1   O5    1.984139 S    
O10   H10   0.990981 S    
C6    C16   1.412555 A    
O13   H11   0.988006 S    
C21   H5    1.086826 S    
O3    C2    1.310431 A    
N3    O11   1.301233 A    
C23   N1    1.299568 D    
N4    O15   1.300214 A    
O5    C3    1.293555 A    
O14   H12   0.991122 S    
C16   O14   1.383478 S    
C15   O18   1.382842 S    
C2    C18   1.477405 S    
C13   C14   1.388498 A    
O9    H9    0.987980 S    
C7    C18   1.396195 A    
O2    Zn2   1.984136 S    
C7    C8    1.400069 A    
C17   O9    1.376442 S    
O1    C1    1.289264 A    
O6    C3    1.288672 A    
C19   H4    1.087213 S    
