data_mof_unit_5203.cif
_audit_creation_date              2012-10-26T20:57:28-0400
_audit_creation_method            fapswitch 2.2
_symmetry_space_group_name_H-M    P1
_symmetry_Int_Tables_number       1
_space_group_crystal_system       triclinic
_cell_length_a                    14.837636
_cell_length_b                    14.879628
_cell_length_c                    15.821902
_cell_angle_alpha                 74.313328
_cell_angle_beta                  102.521484
_cell_angle_gamma                 116.001274
_cell_volume                      3003.08386292

loop_
_atom_site_label
_atom_site_type_symbol
_atom_type_description
_atom_site_fract_x
_atom_site_fract_y
_atom_site_fract_z
_atom_type_partial_charge
C1    C     C_R   0.880365 0.312353 0.514363 0.558953
C2    C     C_R   0.360184 0.924735 0.486424 -0.043370
C3    C     C_R   0.672946 0.001636 0.572085 0.072478
C4    C     C_R   0.327054 0.998364 0.427917 0.072474
C5    C     C_R   0.535810 0.048271 0.482175 -0.010810
C6    C     C_R   0.464190 0.951729 0.517826 -0.010811
C7    C     C_R   0.498245 0.885671 0.585339 -0.114987
C8    C     C_R   0.501755 0.114329 0.414662 -0.114986
C9    C     C_R   0.600910 0.906957 0.609454 0.280885
C10   C     C_R   0.399089 0.093044 0.390547 0.280883
C11   C     C_R   0.695468 0.625054 0.324868 0.045624
C12   C     C_R   0.119635 0.687647 0.485637 0.558953
C13   C     C_R   0.304532 0.374945 0.675132 0.045624
C14   C     C_R   0.787355 0.619236 0.362267 0.046141
C15   C     C_R   0.212645 0.380764 0.637733 0.046139
C16   C     C_R   0.999925 0.499731 0.659886 0.560098
C17   C     C_R   0.000075 0.500269 0.340114 0.560098
C18   C     C_R   0.717140 0.515928 0.495604 0.204871
C19   C     C_R   0.282860 0.484072 0.504396 0.204871
C20   C     C_R   0.628236 0.535053 0.466284 -0.015037
C21   C     C_R   0.371764 0.464947 0.533716 -0.015037
C22   C     C_R   0.613424 0.577550 0.375561 0.020862
C23   C     C_R   0.777893 0.026881 0.594906 0.290514
C24   C     C_R   0.386576 0.422450 0.624439 0.020862
C25   C     C_R   0.549009 0.504108 0.520159 0.029969
C26   C     C_R   0.450990 0.495892 0.479841 0.029969
C27   C     C_R   0.434683 0.514224 0.387098 -0.132036
C28   C     C_R   0.565317 0.485776 0.612901 -0.132035
C29   C     C_R   0.515225 0.563235 0.336405 -0.104639
C30   C     C_R   0.484774 0.436765 0.663595 -0.104639
C31   C     C_3   0.978086 0.404871 0.048233 -0.107866
C32   C     C_3   0.021914 0.595129 0.951766 -0.107867
C33   C     C_3   0.908395 0.436686 0.969132 -0.102264
C34   C     C_R   0.222107 0.973119 0.405096 0.290515
C35   C     C_3   0.091605 0.563314 0.030868 -0.102264
C36   C     C_1   0.000072 0.499650 0.749731 0.013496
C37   C     C_1   0.999928 0.500350 0.250268 0.013496
C38   C     C_3   0.069512 0.468118 0.994781 0.115398
C39   C     C_3   0.930488 0.531882 0.005219 0.115397
C40   C     C_3   0.000261 0.499732 0.917182 0.026545
C41   C     C_3   0.999739 0.500268 0.082818 0.026545
C42   C     C_1   0.000168 0.499646 0.825419 -0.007895
C43   C     C_1   0.999832 0.500354 0.174581 -0.007894
C44   C     C_R   0.812423 0.203813 0.526145 -0.039241
C45   C     C_R   0.846441 0.128574 0.573627 -0.129582
C46   C     C_R   0.187577 0.796187 0.473856 -0.039243
C47   C     C_3   0.605454 0.749497 0.666594 0.006209
C48   C     C_3   0.639006 0.686477 0.749753 -0.318743
C49   C     C_3   0.394549 0.250505 0.333405 0.006206
C50   C     C_3   0.360999 0.313525 0.250245 -0.318744
C51   C     C_3   0.859161 0.932154 0.584452 -0.016199
C52   C     C_3   0.893537 0.847361 0.633283 -0.354113
C53   C     C_3   0.140859 0.067858 0.415563 -0.016200
C54   C     C_3   0.106466 0.152639 0.366733 -0.354118
C55   C     C_R   0.153559 0.871426 0.426376 -0.129579
C56   C     C_R   0.710891 0.176260 0.493458 -0.132382
C57   C     C_R   0.289109 0.823740 0.506542 -0.132382
C58   C     C_R   0.639816 0.075264 0.513577 -0.043370
Cu1   Cu    Cu3+1 0.081740 0.475690 0.522610 0.986119
Cu2   Cu    Cu3+1 0.918260 0.524310 0.477390 0.986120
H1    H     H_    0.833159 0.385059 0.942550 0.148834
H2    H     H_    0.687589 0.236605 0.457386 0.151674
H3    H     H_    0.074304 0.851158 0.402638 0.140752
H4    H     H_    0.925695 0.148843 0.597367 0.140746
H5    H     H_    0.446262 0.818839 0.624062 0.118482
H6    H     H_    0.553737 0.181160 0.375939 0.118481
H7    H     H_    0.498614 0.583590 0.265634 0.165886
H8    H     H_    0.501386 0.416410 0.734366 0.165887
H9    H     H_    0.645177 0.756445 0.611454 0.137028
H10   H     H_    0.522766 0.708095 0.650212 0.124490
H11   H     H_    0.596235 0.674203 0.804365 0.191354
H12   H     H_    0.166841 0.614941 0.057450 0.148834
H13   H     H_    0.624996 0.611299 0.737771 0.093867
H14   H     H_    0.720828 0.726688 0.770012 0.195100
H15   H     H_    0.477236 0.291905 0.349788 0.124489
H16   H     H_    0.354826 0.243560 0.388544 0.137025
H17   H     H_    0.279177 0.273316 0.229985 0.195101
H18   H     H_    0.375011 0.388704 0.262227 0.093869
H19   H     H_    0.403772 0.325797 0.195635 0.191352
H20   H     H_    0.926818 0.000415 0.561034 0.115737
H21   H     H_    0.804734 0.906360 0.526278 0.122824
H22   H     H_    0.827507 0.775556 0.652606 0.148288
H23   H     H_    0.150034 0.346363 0.676861 0.161664
H24   H     H_    0.933820 0.833890 0.589610 0.098435
H25   H     H_    0.945435 0.869182 0.693406 0.178418
H26   H     H_    0.195304 0.093668 0.473722 0.122828
H27   H     H_    0.073212 0.999598 0.439003 0.115731
H28   H     H_    0.054540 0.130796 0.306629 0.178407
H29   H     H_    0.066211 0.166128 0.410419 0.098435
H30   H     H_    0.172485 0.224440 0.347379 0.148305
H31   H     H_    0.849966 0.653637 0.323139 0.161664
H32   H     H_    0.359280 0.491888 0.352735 0.138215
H33   H     H_    0.640720 0.508112 0.647265 0.138215
H34   H     H_    0.960501 0.326930 0.089014 0.138129
H35   H     H_    0.039499 0.673071 0.910986 0.138127
H36   H     H_    0.312412 0.763394 0.542613 0.151676
I1    I     I_    0.290492 0.613413 0.398342 -0.351315
I2    I     I_    0.709508 0.386587 0.601658 -0.351316
I3    I     I_    0.686766 0.703203 0.191371 -0.318644
I4    I     I_    0.313234 0.296797 0.808629 -0.318646
I5    I     I_    0.819254 0.582923 0.013385 -0.322969
I6    I     I_    0.180746 0.417077 0.986615 -0.322966
N1    N     N_R   0.795440 0.560790 0.443380 -0.249304
N2    N     N_R   0.204560 0.439210 0.556620 -0.249304
O1    O     O_R   0.977900 0.338120 0.529810 -0.513333
O2    O     O_3   0.369785 0.153441 0.316583 -0.497928
O3    O     O_3   0.813479 0.953565 0.641922 -0.502574
O4    O     O_3   0.186519 0.046435 0.358085 -0.502574
O5    O     O_R   0.022100 0.661880 0.470190 -0.513332
O6    O     O_R   0.839850 0.379180 0.491620 -0.470642
O7    O     O_R   0.160150 0.620820 0.508380 -0.470642
O8    O     O_R   0.069010 0.479460 0.640020 -0.499085
O9    O     O_R   0.930990 0.520540 0.359980 -0.499085
O10   O     O_R   0.930960 0.520530 0.601820 -0.472371
O11   O     O_R   0.069040 0.479470 0.398180 -0.472371
O12   O     O_3   0.630214 0.846558 0.683419 -0.497927

loop_
_geom_bond_atom_site_label_1
_geom_bond_atom_site_label_2
_ccdc_geom_bond_type
C38   C40   S    
C21   C26   A    
C8    H6    S    
C23   C45   A    
C22   C29   A    
C27   C29   A    
Cu2   O10   S    
C50   H19   S    
C19   I1    S    
C2    C57   A    
C17   O9    A    
C39   C41   S    
C53   C54   S    
C25   C28   A    
C16   O8    A    
C26   C27   A    
C33   C39   S    
C5    C58   A    
Cu1   N2    S    
C52   H25   S    
C19   C21   A    
C45   H4    S    
C54   H30   S    
C5    C6    A    
C11   C14   A    
C20   C25   A    
C11   I3    S    
C32   C39   S    
C52   H24   S    
C3    C23   A    
C51   H20   S    
C47   H9    S    
Cu2   O5    S    
C29   H7    S    
C36   C42   T    
C57   H36   S    
C55   H3    S    
C46   C55   A    
Cu1   O7    S    
C31   C33   S    
C53   H26   S    
C15   N2    A    
Cu2   N1    S    
C51   H21   S    
C40   C42   S    
Cu1   Cu2   S    
C41   C43   S    
Cu2   O9    S    
C2    C6    A    
C50   H18   S    
C12   O5    A    
C39   I5    S    
C47   O12   S    
C4    C34   A    
C33   C40   S    
C51   C52   S    
C32   C35   S    
C48   H14   S    
C35   C38   S    
C54   H29   S    
C12   C46   S    
C15   H23   S    
C25   C26   A    
C13   C24   A    
C28   H33   S    
C37   C43   T    
C2    C4    A    
C47   H10   S    
C3    C9    A    
C1    O6    A    
C7    H5    S    
C19   N2    A    
C44   C56   A    
C1    C44   S    
C47   C48   S    
C23   O3    S    
C49   H15   S    
Cu1   O8    S    
C49   H16   S    
C27   H32   S    
C53   H27   S    
Cu1   O1    S    
C52   H22   S    
C6    C7    A    
Cu1   O11   S    
C20   C22   A    
C35   H12   S    
C13   C15   A    
C46   C57   A    
C56   H2    S    
C10   O2    S    
C17   C37   S    
C48   H11   S    
C4    C10   A    
C50   H17   S    
C44   C45   A    
C17   O11   A    
C7    C9    A    
C31   C41   S    
C9    O12   S    
C48   H13   S    
C8    C10   A    
C16   O10   A    
C5    C8    A    
C49   O2    S    
C31   H34   S    
C11   C22   A    
C31   C38   S    
C34   O4    S    
C13   I4    S    
C28   C30   A    
C38   I6    S    
C16   C36   S    
C54   H28   S    
C53   O4    S    
C14   N1    A    
C33   H1    S    
C56   C58   A    
C18   C20   A    
C18   N1    A    
C32   C40   S    
C35   C41   S    
C24   C30   A    
C14   H31   S    
Cu2   O6    S    
C3    C58   A    
C34   C55   A    
C32   H35   S    
C51   O3    S    
C49   C50   S    
C21   C24   A    
C18   I2    S    
C12   O7    A    
C30   H8    S    
C1    O1    A    
