data_mof_unit_37518.cif
_audit_creation_date              2012-12-10T19:01:20-0500
_audit_creation_method            fapswitch 2.2
_symmetry_space_group_name_H-M    P1
_symmetry_Int_Tables_number       1
_space_group_crystal_system       triclinic
_cell_length_a                    9.601976
_cell_length_b                    10.816189
_cell_length_c                    15.523552
_cell_angle_alpha                 88.5314
_cell_angle_beta                  73.739571
_cell_angle_gamma                 91.100127
_cell_volume                      1546.64254758

loop_
_atom_site_label
_atom_site_type_symbol
_atom_type_description
_atom_site_fract_x
_atom_site_fract_y
_atom_site_fract_z
_atom_type_partial_charge
C1    C     C_R   0.998426 0.262666 0.501246 0.790472
C2    C     C_R   0.688563 0.535713 0.914227 -0.044188
C3    C     C_R   0.787406 0.494351 0.961104 0.071207
C4    C     C_R   0.550648 0.577197 0.964154 0.073168
C5    C     C_R   0.496647 0.542393 0.056155 0.085282
C6    C     C_R   0.597098 0.503830 0.101568 -0.233129
C7    C     C_R   0.740807 0.483258 0.055156 -0.218174
C8    C     C_R   0.469623 0.659230 0.926581 -0.214959
C9    C     C_R   0.330826 0.690975 0.974398 -0.206755
C10   C     C_R   0.267050 0.638534 0.059760 0.101675
C11   C     C_R   0.347030 0.558500 0.100695 0.040067
C12   C     C_R   0.917386 0.500871 0.672384 0.838148
C13   C     C_R   0.123490 0.665411 0.103903 -0.264391
C14   C     C_R   0.056192 0.615364 0.189655 0.102093
C15   C     C_R   0.272382 0.495955 0.182827 0.053990
C16   C     C_R   0.126185 0.068693 0.471857 0.135623
C17   C     C_R   0.996598 0.129345 0.505622 -0.086350
C18   C     C_R   0.869125 0.060128 0.546326 -0.219584
C19   C     C_R   0.871141 0.931094 0.545949 -0.206764
C20   C     C_R   0.000449 0.871014 0.504585 -0.086855
C21   C     C_R   0.128770 0.941146 0.471120 0.114645
C22   C     C_3   0.231457 0.944439 0.378435 -0.496517
C23   C     C_R   0.001027 0.737605 0.499774 0.798356
C24   C     C_3   0.228725 0.084064 0.380200 -0.453829
C25   C     C_R   0.603552 0.568769 0.437399 0.212471
C26   C     C_R   0.544043 0.422263 0.557041 0.209598
C27   C     C_R   0.395993 0.422738 0.556028 0.239791
C28   C     C_R   0.456973 0.567651 0.436915 0.188431
C29   C     C_3   0.460018 0.703581 0.420756 -0.510912
C30   C     C_3   0.616294 0.705989 0.423791 -0.462810
C31   C     C_R   0.082712 0.504487 0.327886 0.847775
C32   C     C_R   0.872148 0.503457 0.771659 -0.142533
C33   C     C_R   0.132719 0.533043 0.230483 -0.063201
C34   C     C_R   0.930419 0.465259 0.912607 0.144549
C35   C     C_R   0.972273 0.474764 0.819161 -0.250138
C36   C     C_R   0.728202 0.529093 0.819204 0.323019
Cu1   Cu    Cu3+1 0.140670 0.499980 0.500000 0.958256
Cu2   Cu    Cu3+1 0.859330 0.500020 0.500000 0.964453
H1    H     H_    0.813699 0.455844 0.093751 0.142112
H2    H     H_    0.064002 0.727102 0.071832 0.145847
H3    H     H_    0.768192 0.105329 0.576364 0.164204
H4    H     H_    0.771336 0.878638 0.576001 0.161325
H5    H     H_    0.339961 0.910752 0.376857 0.201966
H6    H     H_    0.182864 0.904652 0.327729 0.204698
H7    H     H_    0.333882 0.127849 0.381380 0.202117
H8    H     H_    0.177989 0.126310 0.330673 0.205081
H9    H     H_    0.448811 0.726248 0.352841 0.190947
H10   H     H_    0.386801 0.752345 0.477284 0.224772
H11   H     H_    0.693544 0.736055 0.358827 0.212477
H12   H     H_    0.631358 0.753945 0.483144 0.215320
H13   H     H_    0.271695 0.754371 0.943381 0.147839
H14   H     H_    0.082681 0.453389 0.783542 0.187859
H15   H     H_    0.569072 0.497562 0.173730 0.143827
H16   H     H_    0.514817 0.703400 0.861131 0.195425
N1    N     N_R   0.648210 0.500930 0.499430 -0.205546
N2    N     N_R   0.352300 0.500890 0.499430 -0.198880
O1    O     O_R   0.118810 0.319640 0.500000 -0.552514
O2    O     O_R   0.881230 0.319680 0.499990 -0.606122
O3    O     O_R   0.055580 0.499970 0.629840 -0.572195
O4    O     O_R   0.818000 0.500010 0.629830 -0.535856
O5    O     O_R   0.118770 0.680320 0.500010 -0.583406
O6    O     O_R   0.881190 0.680360 0.500000 -0.576711
O7    O     O_R   0.182000 0.499990 0.370170 -0.580268
O8    O     O_R   0.944420 0.500030 0.370160 -0.565454
N3    N     N_3   0.576866 0.337484 0.620969 -0.616587
H17   H     H_    0.685407 0.330657 0.615295 0.284454
H18   H     H_    0.528601 0.368932 0.685145 0.222601
N4    N     N_3   0.290477 0.341351 0.615295 -0.519460
H19   H     H_    0.287083 0.360451 0.681447 0.193940
H20   H     H_    0.323237 0.250300 0.602971 0.214594
N5    N     N_3   0.322831 0.381956 0.211916 -0.614124
H21   H     H_    0.382780 0.333302 0.157114 0.232208
H22   H     H_    0.383826 0.399171 0.256598 0.230284
N6    N     N_3   0.911269 0.649560 0.235790 -0.587079
H23   H     H_    0.877004 0.721133 0.200654 0.209340
H24   H     H_    0.842747 0.573184 0.235990 0.218887
N7    N     N_3   0.035276 0.423758 0.956095 -0.595454
H25   H     H_    0.994862 0.342747 0.993682 0.218653
H26   H     H_    0.049994 0.491725 0.999435 0.230659
O9    O     O_3   0.626097 0.537511 0.772216 -0.740510
H27   H     H_    0.536071 0.494011 0.808410 0.316755

loop_
_geom_bond_atom_site_label_1
_geom_bond_atom_site_label_2
_ccdc_geom_bond_type
C8    C9    A    
C16   C21   A    
C19   C20   A    
C9    H13   S    
C4    C8    A    
C26   N1    A    
C14   C33   A    
C28   N2    A    
N7    H25   S    
C25   C28   A    
C26   C27   A    
Cu1   Cu2   S    
N6    H24   S    
C29   H9    S    
C24   H7    S    
C14   N6    S    
C28   C29   S    
C5    C11   A    
C3    C7    A    
C34   N7    S    
C5    C6    A    
C34   C35   A    
C18   C19   A    
C13   H2    S    
C27   N4    S    
Cu2   O2    S    
C12   O3    A    
C11   C15   A    
C23   O6    A    
C22   H6    S    
Cu2   N1    S    
C16   C17   A    
N3    H18   S    
C31   C33   S    
C9    C10   A    
C19   H4    S    
C30   H12   S    
C16   C24   S    
C21   C22   S    
C12   C32   S    
Cu1   N2    S    
Cu1   O7    S    
Cu2   O8    S    
N7    H26   S    
N6    H23   S    
C29   H10   S    
C32   C35   A    
C31   O7    A    
C36   O9    S    
C18   H3    S    
C8    H16   S    
N5    H22   S    
C27   N2    A    
O9    H27   S    
C3    C34   A    
C2    C4    A    
C29   C30   S    
C1    O1    A    
C22   H5    S    
C20   C23   S    
C17   C18   A    
Cu1   O3    S    
Cu2   O4    S    
C30   H11   S    
C22   C24   S    
C6    H15   S    
C32   C36   A    
C2    C36   A    
C25   C30   S    
C26   N3    S    
C31   O8    A    
N4    H19   S    
C25   N1    A    
C4    C5    A    
C10   C13   A    
Cu1   O5    S    
C6    C7    A    
C15   N5    S    
C1    C17   S    
C24   H8    S    
C2    C3    A    
N5    H21   S    
C1    O2    A    
C10   C11   A    
C12   O4    A    
C23   O5    A    
C20   C21   A    
N4    H20   S    
N3    H17   S    
C35   H14   S    
C7    H1    S    
C13   C14   A    
C15   C33   A    
Cu1   O1    S    
Cu2   O6    S    
