data_mof_unit_15819.cif
_audit_creation_date              2012-12-11T15:31:56-0500
_audit_creation_method            fapswitch 2.2
_symmetry_space_group_name_H-M    P1
_symmetry_Int_Tables_number       1
_space_group_crystal_system       triclinic
_cell_length_a                    13.589337
_cell_length_b                    13.58643
_cell_length_c                    27.656345
_cell_angle_alpha                 90.387447
_cell_angle_beta                  90.227924
_cell_angle_gamma                 119.98811
_cell_volume                      4422.37391073

loop_
_atom_site_label
_atom_site_type_symbol
_atom_type_description
_atom_site_fract_x
_atom_site_fract_y
_atom_site_fract_z
_atom_type_partial_charge
C1    C     C_R   0.619462 0.898375 0.431288 0.556743
C2    C     C_R   0.760402 0.428399 0.222205 -0.107128
C3    C     C_R   0.748689 0.411963 0.272206 -0.120140
C4    C     C_R   0.662543 0.308992 0.290444 0.039241
C5    C     C_R   0.686348 0.341876 0.190287 0.044586
C6    C     C_1   0.693649 0.363312 0.139173 -0.047973
C7    C     C_1   0.648648 0.289949 0.341698 -0.023241
C8    C     C_1   0.701358 0.389865 0.097274 -0.002179
C9    C     C_1   0.232410 0.862670 0.382741 0.000034
C10   C     C_R   0.073047 0.793992 0.271078 -0.100920
C11   C     C_R   0.054148 0.785014 0.221077 -0.102419
C12   C     C_R   0.599639 0.218511 0.431321 0.556203
C13   C     C_R   0.257439 0.883448 0.207460 -0.102026
C14   C     C_R   0.276327 0.892388 0.257465 -0.103992
C15   C     C_R   0.184230 0.847341 0.289376 0.040352
C16   C     C_R   0.146226 0.829270 0.189158 0.041040
C17   C     C_1   0.124654 0.814225 0.137870 -0.048976
C18   C     C_1   0.205540 0.854029 0.340660 -0.048989
C19   C     C_1   0.097276 0.794776 0.095841 -0.000938
C20   C     C_1   0.633876 0.867979 0.383196 0.034611
C21   C     C_R   0.613195 0.734430 0.269186 -0.134978
C22   C     C_R   0.617865 0.720239 0.219377 -0.111667
C23   C     C_R   0.279397 0.878767 0.430577 0.558493
C24   C     C_R   0.695102 0.922165 0.208235 -0.108327
C25   C     C_R   0.690935 0.938453 0.258340 0.063394
C26   C     C_R   0.649846 0.842538 0.289110 0.008459
C27   C     C_R   0.658750 0.813969 0.188856 0.006140
C28   C     C_1   0.672951 0.800673 0.138137 -0.048018
C29   C     C_1   0.642376 0.852614 0.340796 -0.006073
C30   C     C_1   0.691539 0.788565 0.096595 0.001999
C31   C     C_R   0.641725 0.280703 0.615538 0.009649
C32   C     C_R   0.713551 0.253893 0.642151 -0.145310
C33   C     C_R   0.724501 0.270139 0.691559 -0.123788
C34   C     C_R   0.620447 0.900953 0.569056 0.538911
C35   C     C_R   0.665727 0.315518 0.715338 0.008794
C36   C     C_R   0.603331 0.353667 0.688828 -0.108572
C37   C     C_R   0.592273 0.338895 0.638515 0.053188
C38   C     C_R   0.571660 0.289680 0.794623 -0.116063
C39   C     C_R   0.577437 0.306118 0.844778 0.052752
C40   C     C_R   0.782416 0.383138 0.841020 -0.149606
C41   C     C_R   0.775157 0.365303 0.791655 -0.124340
C42   C     C_R   0.670845 0.323991 0.767971 0.009075
C43   C     C_R   0.686077 0.363249 0.867374 0.006441
C44   C     C_R   0.241330 0.868678 0.618837 -0.021077
C45   C     C_R   0.602314 0.224011 0.568369 0.569927
C46   C     C_R   0.192662 0.930568 0.638946 0.028419
C47   C     C_R   0.179740 0.929994 0.689204 -0.141573
C48   C     C_R   0.210202 0.866162 0.718894 -0.032258
C49   C     C_R   0.260167 0.806059 0.698896 0.041566
C50   C     C_R   0.273524 0.806960 0.649263 -0.143944
C51   C     C_R   0.092243 0.730636 0.780531 -0.048954
C52   C     C_R   0.056746 0.703253 0.827614 -0.099913
C53   C     C_R   0.165575 0.902708 0.850789 -0.091720
C54   C     C_R   0.204550 0.930106 0.803377 -0.043848
C55   C     C_R   0.168499 0.843393 0.768420 0.090493
C56   C     C_R   0.281688 0.882203 0.568896 0.576390
C57   C     C_R   0.093348 0.788620 0.863027 0.028547
C58   C     C_R   0.641163 0.861580 0.615058 0.017719
C59   C     C_R   0.565539 0.751352 0.631509 -0.098952
C60   C     C_R   0.574754 0.720856 0.678619 -0.067784
C61   C     C_R   0.659264 0.800467 0.709517 0.060298
C62   C     C_R   0.735676 0.909660 0.692834 -0.075631
C63   C     C_R   0.727779 0.939532 0.645795 -0.111552
C64   C     C_R   0.772642 0.794343 0.779107 0.056926
C65   C     C_R   0.785582 0.794979 0.828919 -0.147078
C66   C     C_R   0.587308 0.741349 0.841175 0.036947
C67   C     C_1   0.630607 0.264367 0.383693 0.018853
C68   C     C_R   0.575443 0.743605 0.790805 -0.135830
C69   C     C_R   0.667780 0.773175 0.759983 -0.027624
C70   C     C_R   0.695385 0.770994 0.860171 -0.017795
C71   C     C_R   0.049438 0.761245 0.048194 0.551468
C72   C     C_R   0.714327 0.435767 0.049698 0.552791
C73   C     C_R   0.723497 0.770905 0.049412 0.559504
C74   C     C_R   0.043981 0.755794 0.910736 0.536109
C75   C     C_R   0.706725 0.426028 0.913163 0.562386
C76   C     C_R   0.718736 0.764221 0.911181 0.587615
C77   C     C_R   0.589208 0.222184 0.258508 -0.077819
C78   C     C_R   0.600964 0.238544 0.208555 -0.087998
Cr1   Cr    Cr6+3 0.417720 0.831920 0.499820 1.039764
Cr2   Cr    Cr6+3 0.668190 0.085770 0.500360 1.055328
Cr3   Cr    Cr6+3 0.414060 0.082260 0.499840 1.098326
Cr4   Cr    Cr6+3 0.908000 0.821090 0.979770 1.047616
Cr5   Cr    Cr6+3 0.912420 0.571130 0.979880 1.040688
Cr6   Cr    Cr6+3 0.657970 0.566940 0.980940 1.095714
H1    H     H_    0.591127 0.636327 0.204731 0.125257
H2    H     H_    0.754191 0.210990 0.625637 0.142987
H3    H     H_    0.490112 0.249927 0.776110 0.155593
H4    H     H_    0.774072 0.241340 0.711487 0.122552
H5    H     H_    0.852367 0.390062 0.771667 0.123687
H6    H     H_    0.865932 0.422183 0.857656 0.141403
H7    H     H_    0.563907 0.395311 0.707518 0.154027
H8    H     H_    0.542700 0.171431 0.184304 0.111857
H9    H     H_    0.997775 0.615410 0.836061 0.116184
H10   H     H_    0.139558 0.973944 0.705105 0.204394
H11   H     H_    0.192098 0.969534 0.877781 0.131356
H12   H     H_    0.497484 0.690016 0.608481 0.149029
H13   H     H_    0.866491 0.810778 0.843568 0.161889
H14   H     H_    0.515447 0.636242 0.691178 0.151159
H15   H     H_    0.495856 0.728401 0.775465 0.190764
H16   H     H_    0.800267 0.972658 0.716666 0.127973
H17   H     H_    0.785985 0.025522 0.634391 0.132766
H18   H     H_    0.806051 0.479490 0.296510 0.113845
H19   H     H_    0.001251 0.758459 0.295337 0.112514
H20   H     H_    0.329212 0.917456 0.183199 0.113400
H21   H     H_    0.362707 0.933231 0.271270 0.111469
H22   H     H_    0.581493 0.660836 0.292309 0.122030
O1    O     O_R   0.302900 0.805360 0.446400 -0.501190
O2    O     O_R   0.657980 0.180990 0.549630 -0.517079
O3    O     O_R   0.503420 0.197810 0.553190 -0.470077
O4    O     O_R   0.320350 0.978840 0.548910 -0.462966
O5    O     O_3   0.499990 0.999990 0.500010 -0.271787
O6    O     O_R   0.819150 0.845650 0.033320 -0.499872
O7    O     O_R   0.006060 0.815720 0.028680 -0.492492
O8    O     O_R   0.028100 0.664460 0.032550 -0.497706
O9    O     O_R   0.811290 0.477490 0.029660 -0.493366
O10   O     O_R   0.638120 0.455970 0.034270 -0.493708
O11   O     O_R   0.667540 0.672320 0.030160 -0.487533
O12   O     O_R   0.522090 0.841370 0.450730 -0.501173
O13   O     O_R   0.814460 0.840990 0.926980 -0.511501
O14   O     O_R   0.001710 0.811400 0.930110 -0.506063
O15   O     O_R   0.023410 0.659800 0.926210 -0.511216
O16   O     O_R   0.806940 0.473170 0.931090 -0.515563
O17   O     O_R   0.633420 0.451310 0.927930 -0.470296
O18   O     O_R   0.663190 0.668000 0.931580 -0.470283
O19   O     O_3   0.826130 0.653050 0.980200 -0.273977
O20   O     O_R   0.693280 0.995650 0.447220 -0.478855
O21   O     O_R   0.657260 0.178740 0.451050 -0.480368
O22   O     O_R   0.502640 0.195380 0.446850 -0.501516
O23   O     O_R   0.319630 0.976590 0.450330 -0.484582
O24   O     O_R   0.303680 0.807790 0.552740 -0.521328
O25   O     O_R   0.522820 0.843620 0.549310 -0.509720
O26   O     O_R   0.694060 0.998080 0.553560 -0.516565
H23   H     H_    0.522644 0.141994 0.272280 0.116866
H24   H     H_    0.727416 0.993914 0.184010 0.163423
C79   C     C_2   0.731464 0.056344 0.276592 0.562360
O27   O     O_2   0.707337 0.073377 0.317144 -0.522839
O28   O     O_R   0.797153 0.148939 0.246743 -0.704993
H25   H     H_    0.820773 0.224641 0.263082 0.350025
C80   C     C_2   0.469605 0.261399 0.871998 0.586439
O29   O     O_2   0.465330 0.234171 0.914333 -0.495911
O30   O     O_R   0.371318 0.245841 0.848592 -0.708337
H26   H     H_    0.302877 0.212823 0.870605 0.341827
C81   C     C_2   0.531225 0.386328 0.611242 0.599737
O31   O     O_2   0.458099 0.399201 0.631111 -0.513849
O32   O     O_R   0.560108 0.420305 0.563304 -0.677485
H27   H     H_    0.513446 0.452395 0.548880 0.339672
C82   C     C_2   0.149208 0.991322 0.609016 0.591395
O33   O     O_2   0.115084 0.959230 0.567734 -0.500548
O34   O     O_R   0.143312 0.083234 0.628809 -0.680778
H28   H     H_    0.110898 0.116743 0.605251 0.348761
H29   H     H_    0.061645 0.663449 0.753469 0.118671
H30   H     H_    0.262609 0.017702 0.794007 0.140387
C83   C     C_2   0.299124 0.741157 0.728738 0.556151
O35   O     O_2   0.330783 0.770219 0.770496 -0.495327
O36   O     O_R   0.299977 0.646683 0.708796 -0.712755
H31   H     H_    0.324027 0.606771 0.732932 0.346876
H32   H     H_    0.315193 0.763155 0.634562 0.180378
H33   H     H_    0.826137 0.509093 0.208436 0.110258
C84   C     C_2   0.870072 0.816414 0.748004 0.561814
O37   O     O_2   0.966836 0.881412 0.762092 -0.554468
O38   O     O_R   0.851595 0.762726 0.702860 -0.681348
H34   H     H_    0.924941 0.784741 0.685264 0.340860
C85   C     C_2   0.487597 0.712959 0.872251 0.599486
O39   O     O_2   0.500463 0.740967 0.914943 -0.505235
O40   O     O_R   0.378044 0.655321 0.852286 -0.663075
H35   H     H_    0.317192 0.641882 0.876697 0.352999
H36   H     H_    0.967699 0.742427 0.207276 0.106721

loop_
_geom_bond_atom_site_label_1
_geom_bond_atom_site_label_2
_ccdc_geom_bond_type
C48   C55   S    
C66   C68   A    
C21   C26   A    
O40   H35   S    
Cr2   O26   S    
C53   H11   S    
C75   O16   A    
C41   C42   A    
C15   C18   S    
C19   C71   S    
C35   C36   A    
C24   C27   A    
Cr4   O14   S    
C63   H17   S    
C64   C84   S    
O38   H34   S    
C79   O27   D    
C12   O21   A    
C66   C70   A    
C77   C78   A    
Cr6   O17   S    
C72   O9    A    
C71   O7    A    
C75   O17   A    
C32   H2    S    
C49   C83   S    
C10   H19   S    
C85   O40   S    
C33   H4    S    
C38   C42   A    
C46   C82   S    
C60   H14   S    
C10   C15   A    
C38   C39   A    
C45   O3    A    
C61   C69   S    
C65   C70   A    
Cr1   O12   S    
C58   C63   A    
C23   O23   A    
C79   O28   S    
C22   H1    S    
C35   C42   S    
C24   H24   S    
C82   O33   D    
C17   C19   T    
C54   C55   A    
O30   H26   S    
C14   H21   S    
Cr3   O5    S    
C16   C17   S    
C84   O38   S    
C83   O36   S    
C21   H22   S    
C45   O2    A    
C23   O1    A    
C59   C60   A    
Cr6   O10   S    
C21   C22   A    
C11   H36   S    
Cr5   O8    S    
C77   H23   S    
Cr4   O13   S    
Cr5   O19   S    
C4    C7    S    
C56   O4    A    
C44   C46   A    
O32   H27   S    
C20   C29   T    
C40   C43   A    
C50   H32   S    
C43   C75   S    
C12   C67   S    
C39   C80   S    
C8    C72   S    
C76   O13   A    
C73   O11   A    
C51   C52   A    
C76   O18   A    
C47   C48   A    
Cr5   O9    S    
C1    O20   A    
C52   C57   A    
C30   C73   S    
C53   C57   A    
Cr6   O11   S    
C54   H30   S    
C78   H8    S    
C58   C59   A    
C53   C54   A    
Cr1   O24   S    
Cr5   O15   S    
C31   C37   A    
C71   O8    A    
C60   C61   A    
Cr4   O6    S    
C57   C74   S    
C51   H29   S    
Cr4   O19   S    
C62   C63   A    
C11   C16   A    
C44   C56   S    
Cr3   O23   S    
C84   O37   D    
C2    H33   S    
Cr1   O25   S    
Cr1   O1    S    
C52   H9    S    
C64   C69   A    
C24   C25   A    
C13   H20   S    
C62   H16   S    
C36   H7    S    
C40   C41   A    
Cr3   O3    S    
C34   O25   A    
C22   C27   A    
Cr3   O22   S    
C70   C76   S    
C2    C5    A    
C59   H12   S    
C3    C4    A    
O36   H31   S    
C3    H18   S    
C73   O6    A    
C44   C50   A    
Cr6   O19   S    
C81   O32   S    
Cr2   O2    S    
C46   C47   A    
C48   C49   A    
C1    C20   S    
C37   C81   S    
C82   O34   S    
C41   H5    S    
C68   C69   A    
C31   C32   A    
C9    C23   S    
Cr4   O7    S    
C6    C8    T    
C80   O29   D    
C12   O22   A    
Cr2   O21   S    
Cr6   O18   S    
C74   O14   A    
O28   H25   S    
C72   O10   A    
Cr1   O5    S    
C38   H3    S    
C64   C65   A    
C28   C30   T    
C2    C3    A    
C25   C26   A    
C68   H15   S    
C65   H13   S    
C4    C77   A    
O34   H28   S    
C32   C33   A    
C80   O30   S    
C5    C6    S    
Cr2   O20   S    
Cr2   O5    S    
C33   C35   A    
C47   H10   S    
C66   C85   S    
C51   C55   A    
C1    O12   A    
Cr5   O16   S    
C61   C62   A    
C25   C79   S    
C85   O39   D    
C10   C11   A    
C7    C67   T    
C34   O26   A    
C9    C18   T    
C74   O15   A    
Cr3   O4    S    
C39   C43   A    
C26   C29   S    
C36   C37   A    
C49   C50   A    
C31   C45   S    
C13   C16   A    
C27   C28   S    
C34   C58   S    
C14   C15   A    
C40   H6    S    
C5    C78   A    
C13   C14   A    
C56   O24   A    
C81   O31   D    
C83   O35   D    
