data_mof_unit_12742.cif
_audit_creation_date              2013-03-05T15:40:03-0500
_audit_creation_method            fapswitch 2.2
_symmetry_space_group_name_H-M    P1
_symmetry_Int_Tables_number       1
_space_group_crystal_system       triclinic
_cell_length_a                    24.55206
_cell_length_b                    17.314036
_cell_length_c                    15.652958
_cell_angle_alpha                 90.072822
_cell_angle_beta                  128.841855
_cell_angle_gamma                 90.082373
_cell_volume                      5182.64064593

loop_
_atom_site_label
_atom_site_type_symbol
_atom_site_description
_atom_site_fract_x
_atom_site_fract_y
_atom_site_fract_z
_atom_type_partial_charge
C1    C     C_R   0.334546 0.390116 0.202976 -0.189802
C2    C     C_R   0.660798 0.377406 0.782531 -0.187314
C3    C     C_R   0.834106 0.892567 0.200983 -0.174147
C4    C     C_R   0.158916 0.875367 0.781840 -0.185955
H1    H     H_    0.281518 0.393472 0.172509 0.155644
H2    H     H_    0.712473 0.371792 0.807926 0.155193
H3    H     H_    0.781096 0.896439 0.170498 0.165773
H4    H     H_    0.211360 0.871262 0.810318 0.147097
N1    N     N_R   0.389060 0.424180 0.294540 -0.054852
N2    N     N_R   0.610940 0.424180 0.705460 -0.054885
N3    N     N_R   0.889060 0.924180 0.294540 -0.054931
N4    N     N_R   0.110940 0.924180 0.705460 -0.053438
C5    C     C_R   0.599040 0.368910 0.407120 -0.168151
C6    C     C_R   0.402446 0.366159 0.591726 -0.175221
C7    C     C_R   0.085963 0.857961 0.406407 -0.136964
C8    C     C_R   0.912280 0.857630 0.591310 -0.127704
H5    H     H_    0.573767 0.354485 0.323043 0.146299
H6    H     H_    0.426264 0.351414 0.674715 0.147388
H7    H     H_    0.055373 0.840455 0.322051 0.138482
H8    H     H_    0.939471 0.840309 0.674435 0.141144
N5    N     N_R   0.579670 0.423790 0.443360 -0.059471
N6    N     N_R   0.420330 0.423790 0.556640 -0.056911
N7    N     N_R   0.079670 0.923790 0.443360 -0.056048
N8    N     N_R   0.920330 0.923790 0.556640 -0.054030
C9    C     C_R   0.677362 0.374424 0.590007 0.278276
C10   C     C_R   0.325949 0.368859 0.408989 0.292486
C11   C     C_R   0.167271 0.861553 0.588793 0.276407
C12   C     C_R   0.834105 0.859924 0.409010 0.291970
N9    N     N_R   0.625470 0.423490 0.556600 -0.063612
N10   N     N_R   0.374530 0.423490 0.443400 -0.061987
N11   N     N_R   0.125470 0.923490 0.556600 -0.065928
N12   N     N_R   0.874530 0.923490 0.443400 -0.061702
C13   C     C_R   0.574525 0.379273 0.791918 0.284532
C14   C     C_R   0.423335 0.389893 0.200024 0.260871
C15   C     C_R   0.070696 0.876561 0.786561 0.236897
C16   C     C_R   0.922861 0.893516 0.198062 0.226111
N13   N     N_R   0.555250 0.423100 0.705420 -0.056548
N14   N     N_R   0.444750 0.423100 0.294580 -0.060644
N15   N     N_R   0.055250 0.923100 0.705420 -0.060508
N16   N     N_R   0.944750 0.923100 0.294580 -0.064177
C17   C     C_R   0.354762 0.365709 0.143118 0.049757
C18   C     C_R   0.638236 0.345644 0.834946 0.018674
C19   C     C_R   0.854053 0.870437 0.140011 0.052725
C20   C     C_R   0.132042 0.838014 0.826322 0.048312
C21   C     C_R   0.658453 0.335188 0.497872 0.090643
C22   C     C_R   0.345534 0.329273 0.501030 0.077612
C23   C     C_R   0.138337 0.816184 0.495304 0.086609
C24   C     C_R   0.861404 0.814830 0.501439 0.075581
C25   C     C_R   0.318013 0.616543 0.409964 -0.133909
C26   C     C_R   0.684773 0.609213 0.589458 -0.110106
C27   C     C_R   0.812796 0.100225 0.410793 -0.132850
C28   C     C_R   0.188009 0.096557 0.588991 -0.093782
H9    H     H_    0.268820 0.616148 0.328519 0.211473
H10   H     H_    0.734994 0.599704 0.667963 0.206856
H11   H     H_    0.764226 0.093841 0.328998 0.203764
H12   H     H_    0.236445 0.084555 0.669248 0.195039
N17   N     N_R   0.375210 0.577180 0.443400 -0.073631
N18   N     N_R   0.624790 0.577180 0.556600 -0.083330
N19   N     N_R   0.875210 0.077180 0.443400 -0.072934
N20   N     N_R   0.124790 0.077180 0.556600 -0.084311
C29   C     C_R   0.426959 0.616742 0.206024 -0.155651
C30   C     C_R   0.564154 0.637453 0.768812 -0.130784
C31   C     C_R   0.925181 0.117917 0.205331 -0.161086
C32   C     C_R   0.061248 0.140244 0.762336 -0.156766
H13   H     H_    0.455716 0.618017 0.175211 0.201219
H14   H     H_    0.531568 0.652686 0.789911 0.198210
H15   H     H_    0.953273 0.120975 0.173652 0.203600
H16   H     H_    0.025512 0.157595 0.776488 0.188928
N21   N     N_R   0.445430 0.577570 0.294580 -0.076099
N22   N     N_R   0.554570 0.577570 0.705420 -0.065346
N23   N     N_R   0.945430 0.077570 0.294580 -0.075841
N24   N     N_R   0.054570 0.077570 0.705420 -0.069016
C33   C     C_R   0.654789 0.634379 0.768001 0.372127
C34   C     C_R   0.336492 0.615283 0.206476 0.375656
C35   C     C_R   0.152921 0.136695 0.763660 0.374437
C36   C     C_R   0.835384 0.114592 0.208235 0.364499
N25   N     N_R   0.611620 0.576500 0.705460 -0.092974
N26   N     N_R   0.388380 0.576500 0.294540 -0.096373
N27   N     N_R   0.111620 0.076500 0.705460 -0.090902
N28   N     N_R   0.888380 0.076500 0.294540 -0.092999
C37   C     C_R   0.391086 0.615235 0.591856 0.337334
C38   C     C_R   0.609611 0.614522 0.408639 0.358976
C39   C     C_R   0.885661 0.096235 0.592762 0.312299
C40   C     C_R   0.114198 0.099490 0.407956 0.349838
N29   N     N_R   0.421010 0.576890 0.556640 -0.095149
N30   N     N_R   0.578990 0.576890 0.443360 -0.103492
N31   N     N_R   0.921010 0.076890 0.556640 -0.102804
N32   N     N_R   0.078990 0.076890 0.443360 -0.107590
Ni1   Ni    Ni4+2 0.383200 0.500680 0.370150 0.247043
Ni2   Ni    Ni4+2 0.616800 0.500680 0.629850 0.245807
Ni3   Ni    Ni4+2 0.883200 0.000680 0.370150 0.251583
Ni4   Ni    Ni4+2 0.116800 0.000680 0.629850 0.245854
Ni5   Ni    Ni4+2 0.512440 0.500680 0.370150 0.238609
Ni6   Ni    Ni4+2 0.487560 0.500680 0.629850 0.265764
Ni7   Ni    Ni4+2 0.012440 0.000680 0.370150 0.239592
Ni8   Ni    Ni4+2 0.987560 0.000680 0.629850 0.260985
C41   C     C_R   0.327260 0.641935 0.501472 -0.059176
C42   C     C_R   0.675815 0.635522 0.498958 -0.050935
C43   C     C_R   0.817497 0.111827 0.501873 -0.028689
C44   C     C_R   0.183543 0.110506 0.498724 -0.029534
C45   C     C_R   0.358942 0.641377 0.149406 -0.042206
C46   C     C_R   0.625450 0.675489 0.806375 -0.066588
C47   C     C_R   0.856394 0.141957 0.149900 -0.047205
C48   C     C_R   0.122210 0.179077 0.799164 -0.050424
C49   C     C_2   0.743878 0.648888 0.434394 -0.055349
C50   C     C_2   0.254794 0.651545 0.557996 -0.039642
C51   C     C_2   0.240221 0.147122 0.419527 -0.058593
C52   C     C_2   0.766479 0.156178 0.585174 -0.069815
C53   C     C_2   0.730602 0.669842 0.502315 -0.130097
C54   C     C_2   0.273336 0.677729 0.498721 -0.126732
C55   C     C_2   0.244822 0.126779 0.506154 -0.142250
C56   C     C_2   0.757710 0.129516 0.497193 -0.120330
H17   H     H_    0.714584 0.602768 0.375076 0.180379
H18   H     H_    0.279528 0.601092 0.610020 0.161451
H19   H     H_    0.196085 0.132194 0.336742 0.211557
H20   H     H_    0.814625 0.148447 0.667465 0.191542
H21   H     H_    0.758350 0.716674 0.560905 0.159897
H22   H     H_    0.250219 0.728954 0.447977 0.153071
H23   H     H_    0.293345 0.137267 0.588254 0.147501
H24   H     H_    0.707547 0.136573 0.416115 0.143239
C57   C     C_2   0.286937 0.205872 0.430434 -0.143891
C58   C     C_2   0.719467 0.214454 0.573047 -0.146370
C59   C     C_2   0.789880 0.696854 0.426804 -0.120257
C60   C     C_2   0.208828 0.698492 0.566259 -0.113533
C61   C     C_2   0.311094 0.262967 0.504130 -0.169948
C62   C     C_2   0.693730 0.269327 0.496312 -0.173651
C63   C     C_2   0.838715 0.740504 0.512187 -0.192553
C64   C     C_2   0.161750 0.743639 0.482353 -0.199393
H25   H     H_    0.293002 0.208733 0.367480 0.150556
H26   H     H_    0.714419 0.219040 0.637022 0.143245
H27   H     H_    0.776155 0.704241 0.346740 0.157599
H28   H     H_    0.220558 0.703433 0.645287 0.149523
H29   H     H_    0.304824 0.262503 0.566873 0.151488
H30   H     H_    0.698873 0.266668 0.432343 0.147175
H31   H     H_    0.858135 0.725280 0.594309 0.141430
H32   H     H_    0.144543 0.730984 0.400647 0.145435
H33   H     H_    0.225274 0.616392 0.976784 0.163012
H34   H     H_    0.689852 0.797825 0.802245 0.191743
H35   H     H_    0.722659 0.113074 0.977317 0.176202
H36   H     H_    0.191822 0.299665 0.802333 0.193566
H37   H     H_    0.672368 0.212879 0.808475 0.120296
H38   H     H_    0.218360 0.389084 0.988162 0.139841
H39   H     H_    0.226812 0.748102 0.848746 0.108840
H40   H     H_    0.716685 0.887948 0.987796 0.145316
C65   C     C_2   0.678506 0.288502 0.920814 0.244784
C66   C     C_2   0.308836 0.329703 0.034048 0.196569
C67   C     C_2   0.156135 0.762459 0.882544 0.242273
C68   C     C_2   0.808733 0.834296 0.031288 0.191592
C69   C     C_2   0.695144 0.223776 0.893439 -0.196748
C70   C     C_2   0.239816 0.346136 0.966128 -0.189283
C71   C     C_2   0.206287 0.724729 0.887629 -0.181275
C72   C     C_2   0.739117 0.846887 0.965267 -0.187769
H41   H     H_    0.341849 0.726598 0.031969 0.157324
H42   H     H_    0.655717 0.741824 0.950550 0.160303
H43   H     H_    0.833624 0.233602 0.034866 0.161280
H44   H     H_    0.149685 0.246165 0.940942 0.160910
C73   C     C_2   0.317465 0.679679 0.043359 -0.139395
C74   C     C_2   0.656691 0.741196 0.882073 -0.158867
C75   C     C_2   0.812285 0.182876 0.045444 -0.187772
C76   C     C_2   0.152811 0.245056 0.874680 -0.166717
C77   C     C_2   0.249293 0.665089 0.968370 -0.061550
C78   C     C_2   0.690452 0.796374 0.872016 -0.069541
C79   C     C_2   0.744051 0.166503 0.973356 -0.035518
C80   C     C_2   0.190017 0.298494 0.869630 -0.084579
C81   C     C_3   0.705451 0.308671 0.035051 -0.781479
H45   H     H_    0.706302 0.372307 0.044735 0.213986
H46   H     H_    0.670032 0.283707 0.049008 0.275922
H47   H     H_    0.759817 0.288770 0.098448 0.255603
C82   C     C_3   0.339260 0.267348 0.007975 -0.755463
H48   H     H_    0.394966 0.256319 0.077858 0.215543
H49   H     H_    0.311504 0.212208 0.992543 0.277310
H50   H     H_    0.335312 0.284600 0.936056 0.268989
C83   C     C_3   0.119706 0.727430 0.923253 -0.784709
H51   H     H_    0.062717 0.724226 0.854374 0.202267
H52   H     H_    0.135737 0.667531 0.952981 0.268682
H53   H     H_    0.129311 0.763642 0.990055 0.270896
C84   C     C_3   0.840927 0.774647 0.004939 -0.752423
H54   H     H_    0.897542 0.767074 0.073003 0.211792
H55   H     H_    0.816696 0.717635 0.993737 0.278105
H56   H     H_    0.834313 0.792474 0.930892 0.272701
C85   C     C_3   0.751440 0.384763 0.692221 -0.990190
H57   H     H_    0.756402 0.437421 0.737214 0.273782
H58   H     H_    0.769395 0.333194 0.745525 0.239701
H59   H     H_    0.786056 0.392565 0.669964 0.262539
C86   C     C_3   0.252851 0.370858 0.302973 -0.975198
H60   H     H_    0.242071 0.427691 0.262725 0.281281
H61   H     H_    0.244582 0.323046 0.248696 0.238016
H62   H     H_    0.214927 0.363622 0.318808 0.264054
C87   C     C_3   0.243641 0.862827 0.685973 -0.961954
H63   H     H_    0.257854 0.918654 0.730468 0.260284
H64   H     H_    0.257436 0.814373 0.742346 0.231011
H65   H     H_    0.275120 0.857444 0.657623 0.272893
C88   C     C_3   0.759773 0.856767 0.305841 -0.954449
H66   H     H_    0.742723 0.914690 0.267362 0.276930
H67   H     H_    0.753702 0.813660 0.247973 0.230722
H68   H     H_    0.724899 0.840277 0.325258 0.272491
C89   C     C_3   0.545542 0.384861 0.851946 -0.948483
H69   H     H_    0.502127 0.426413 0.811848 0.293256
H70   H     H_    0.527865 0.327088 0.856521 0.240593
H71   H     H_    0.586282 0.406686 0.936335 0.261520
C90   C     C_3   0.455381 0.406454 0.146327 -0.952644
H72   H     H_    0.497848 0.448958 0.195566 0.293128
H73   H     H_    0.476598 0.352949 0.138334 0.240170
H74   H     H_    0.415730 0.431498 0.063628 0.264004
C91   C     C_3   0.047038 0.893170 0.853044 -0.911459
H75   H     H_    0.009972 0.942363 0.816882 0.289605
H76   H     H_    0.021127 0.842475 0.856916 0.234910
H77   H     H_    0.092818 0.909531 0.937871 0.262516
C92   C     C_3   0.954171 0.916007 0.144606 -0.906094
H78   H     H_    0.993263 0.962244 0.192819 0.287927
H79   H     H_    0.979473 0.865823 0.138352 0.240308
H80   H     H_    0.913094 0.938857 0.060986 0.259461
N33   N     N_R   0.726594 0.636062 0.814391 0.206749
O1    O     O_R   0.750564 0.693612 0.793430 -0.480845
O2    O     O_R   0.763858 0.573648 0.857959 -0.434520
N34   N     N_R   0.266650 0.616834 0.168922 0.198254
O3    O     O_R   0.237451 0.682745 0.157400 -0.437342
O4    O     O_R   0.234181 0.552733 0.154675 -0.476833
N35   N     N_R   0.224267 0.140835 0.807813 0.204469
O5    O     O_R   0.245000 0.196240 0.778200 -0.476982
O6    O     O_R   0.264506 0.081298 0.858911 -0.430038
N36   N     N_R   0.765126 0.106247 0.168372 0.207109
O7    O     O_R   0.730521 0.166228 0.160272 -0.448176
O8    O     O_R   0.738757 0.037740 0.153638 -0.469240
N37   N     N_R   0.412941 0.610915 0.700586 0.208847
O9    O     O_R   0.404873 0.669856 0.743314 -0.404359
O10   O     O_R   0.444521 0.549737 0.759713 -0.441104
N38   N     N_R   0.585055 0.615124 0.298505 0.205106
O11   O     O_R   0.583625 0.679932 0.255193 -0.397834
O12   O     O_R   0.579701 0.550545 0.251478 -0.449987
N39   N     N_R   0.902573 0.062105 0.690059 0.211250
O13   O     O_R   0.940402 0.099553 0.782579 -0.438425
O14   O     O_R   0.871057 0.998919 0.682564 -0.405145
N40   N     N_R   0.092101 0.078760 0.302240 0.198401
O15   O     O_R   0.068298 0.132083 0.228215 -0.438607
O16   O     O_R   0.113527 0.013875 0.290650 -0.423184

loop_
_geom_bond_atom_site_label_1
_geom_bond_atom_site_label_2
_geom_bond_distance
_ccdc_geom_bond_type
C39   N31   1.342000 A    
N11   Ni4   1.857195 S    
C68   C84   1.507204 S    
C9    C21   1.383359 A    
C87   H65   1.110513 S    
C90   H73   1.108178 S    
C90   H72   1.100482 S    
C6    H6    1.069120 S    
C22   C61   1.443642 S    
C40   N40   1.425924 S    
C7    C23   1.368862 A    
H38   C70   1.085256 S    
C4    H4    1.068686 S    
C33   N33   1.424847 S    
C54   H22   1.085085 S    
N38   O12   1.298254 A    
N20   N32   1.380651 A    
C53   H21   1.084209 S    
C23   C64   1.448030 S    
C6    C22   1.372096 A    
C65   C81   1.506978 S    
C83   H51   1.109333 S    
C7    H7    1.074171 S    
C49   C59   1.464683 S    
C81   H45   1.110356 S    
N17   Ni1   1.840249 S    
C50   H18   1.085369 S    
N2    N13   1.367013 A    
C1    H1    1.071141 S    
C13   C18   1.386223 A    
C76   C80   1.336067 D    
C49   H17   1.084358 S    
N22   Ni6   1.851187 S    
N34   O4    1.300321 A    
H42   C74   1.087069 S    
N24   N27   1.400452 A    
N21   Ni5   1.856744 S    
N8    Ni8   1.851281 S    
C10   C22   1.382439 A    
C38   N38   1.425430 S    
C15   N15   1.343704 A    
C10   C86   1.496848 S    
C25   H9    1.073595 S    
C86   H61   1.108906 S    
N12   Ni3   1.858852 S    
N23   Ni7   1.856744 S    
C43   C56   1.456146 S    
C14   C90   1.495747 S    
C61   H29   1.085357 S    
C85   H57   1.110176 S    
C20   C67   1.479135 S    
C25   N17   1.338735 A    
C60   H28   1.083171 S    
C87   H64   1.106790 S    
C82   H48   1.108277 S    
C73   C77   1.332960 D    
C91   H77   1.110281 S    
C89   H70   1.109937 S    
N23   N28   1.400400 A    
C16   N16   1.346288 A    
C19   C68   1.464890 S    
C28   N20   1.337820 A    
N37   O10   1.297870 A    
C66   C70   1.350987 D    
C15   C91   1.503658 S    
C17   C66   1.468127 S    
N17   N29   1.380678 A    
C84   H55   1.107286 S    
C8    N8    1.334626 A    
C69   C79   1.453423 S    
C35   N35   1.425549 S    
C5    C21   1.375509 A    
C4    N4    1.330456 A    
N36   O7    1.297760 A    
C37   N29   1.338991 A    
C16   C92   1.499838 S    
C60   C64   1.331543 D    
C34   N34   1.422127 S    
C7    N7    1.329833 A    
C84   H56   1.109066 S    
C36   C47   1.384038 A    
H39   C71   1.083009 S    
N32   Ni7   1.834489 S    
C45   C73   1.454861 S    
C81   H46   1.108254 S    
C42   C53   1.440194 S    
C39   C43   1.383287 A    
N22   N25   1.400452 A    
C9    N9    1.336759 A    
N6    Ni6   1.851281 S    
C30   N22   1.348622 A    
C8    C24   1.370740 A    
N21   N26   1.400400 A    
C2    H2    1.070036 S    
C14   C17   1.385346 A    
N40   O16   1.301004 A    
C48   C76   1.465206 S    
N10   Ni1   1.858852 S    
N18   N30   1.380651 A    
C62   H30   1.085891 S    
N9    Ni2   1.857195 S    
C9    C85   1.499358 S    
C92   H78   1.104227 S    
N20   Ni4   1.841940 S    
N26   Ni1   1.825510 S    
C27   C43   1.370760 A    
C31   H15   1.073931 S    
N25   Ni2   1.823608 S    
C26   C42   1.368839 A    
C38   C42   1.373875 A    
H43   C75   1.086799 S    
C26   N18   1.337103 A    
C68   C72   1.350168 D    
C12   N12   1.345853 A    
C1    N1    1.335220 A    
N34   O3    1.299812 A    
C31   C47   1.393993 A    
C85   H58   1.108773 S    
C52   C58   1.454435 S    
N35   O5    1.299959 A    
C56   H24   1.087496 S    
C30   H14   1.072634 S    
C86   H62   1.110554 S    
N19   Ni3   1.840249 S    
C4    C20   1.383682 A    
N38   O11   1.300815 A    
C71   C77   1.452941 S    
C91   H75   1.109667 S    
N5    N9    1.380680 A    
C28   C44   1.368707 A    
C13   N13   1.353838 A    
C52   C56   1.335004 D    
C40   C44   1.384886 A    
C58   C62   1.340619 D    
C89   H71   1.108378 S    
C29   C45   1.379373 A    
N8    N12   1.380650 A    
C57   C61   1.340483 D    
N30   Ni5   1.834489 S    
N3    Ni3   1.840090 S    
N35   O6    1.300864 A    
N29   Ni6   1.839958 S    
C59   C63   1.334102 D    
C89   H69   1.100857 S    
C13   C89   1.495743 S    
C21   C62   1.442360 S    
C8    H8    1.067989 S    
C88   H68   1.110385 S    
C3    C19   1.372373 A    
N31   Ni8   1.839958 S    
C88   H67   1.108310 S    
N37   O9    1.301167 A    
C5    N5    1.337592 A    
N39   O14   1.301050 A    
C26   H10   1.076116 S    
N36   O8    1.299631 A    
C15   C20   1.389035 A    
N18   Ni2   1.841940 S    
C6    N6    1.338916 A    
C51   H19   1.075748 S    
N27   Ni4   1.823608 S    
C83   H52   1.104379 S    
C37   N37   1.430046 S    
C34   C45   1.387063 A    
C55   H23   1.087268 S    
C1    C17   1.373222 A    
C33   C46   1.389044 A    
C31   N23   1.348741 A    
C84   H54   1.108024 S    
C81   H47   1.107184 S    
C11   N11   1.346505 A    
C35   C48   1.393562 A    
C90   H74   1.110566 S    
C75   C79   1.336727 D    
C27   N19   1.337590 A    
N40   O15   1.300527 A    
C51   C57   1.459446 S    
N16   Ni7   1.867924 S    
N1    Ni1   1.840090 S    
C2    N2    1.327642 A    
C32   H16   1.074018 S    
C39   N39   1.432089 S    
C50   C54   1.343117 D    
C85   H59   1.110468 S    
C11   C23   1.398089 A    
C87   H63   1.110688 S    
C32   C48   1.392294 A    
C49   C53   1.342482 D    
C12   C24   1.392845 A    
C33   N25   1.333766 A    
N6    N10   1.380650 A    
C59   H27   1.082271 S    
C14   N14   1.348504 A    
C51   C55   1.335905 D    
N4    Ni4   1.841956 S    
C36   N28   1.323961 A    
C91   H76   1.107116 S    
C57   H25   1.086206 S    
C46   C74   1.463081 S    
C12   C88   1.498076 S    
C83   H53   1.109366 S    
C67   C83   1.512671 S    
C10   N10   1.340554 A    
H44   C76   1.087119 S    
H36   C80   1.081967 S    
C70   C80   1.460904 S    
H37   C69   1.087774 S    
C3    H3    1.071169 S    
C5    H5    1.074150 S    
C36   N36   1.426449 S    
C52   H20   1.079543 S    
N4    N15   1.367013 A    
C64   H32   1.087883 S    
N33   O2    1.300759 A    
H34   C78   1.083250 S    
C38   N30   1.340579 A    
C24   C63   1.452837 S    
H33   C77   1.082705 S    
C41   C54   1.438625 S    
C47   C75   1.460208 S    
C86   H60   1.108329 S    
C40   N32   1.344585 A    
N5    Ni5   1.856779 S    
C2    C18   1.361156 A    
N28   Ni3   1.825510 S    
N33   O1    1.299307 A    
C67   C71   1.352309 D    
N14   Ni5   1.867924 S    
H35   C79   1.084015 S    
N1    N14   1.367065 A    
C92   H79   1.108196 S    
N7    Ni7   1.856779 S    
N13   Ni6   1.873513 S    
C27   H11   1.075942 S    
C29   N21   1.342332 A    
C32   N24   1.346088 A    
H41   C73   1.087653 S    
N3    N16   1.367065 A    
C63   H31   1.087024 S    
N19   N31   1.380678 A    
N15   Ni8   1.873513 S    
C3    N3    1.334926 A    
C74   C78   1.336552 D    
C25   C41   1.373588 A    
N24   Ni8   1.851187 S    
C29   H13   1.076468 S    
C65   C69   1.351307 D    
N2    Ni2   1.841956 S    
C44   C55   1.461405 S    
H40   C72   1.085004 S    
C88   H66   1.109170 S    
C34   N26   1.332693 A    
C66   C82   1.507880 S    
C50   C60   1.461696 S    
N39   O13   1.299621 A    
C37   C41   1.376144 A    
C16   C19   1.382377 A    
C82   H50   1.109040 S    
C11   C87   1.500752 S    
C18   C65   1.449910 S    
C35   N27   1.334236 A    
C92   H80   1.110631 S    
C58   H26   1.086253 S    
C72   C78   1.459181 S    
C28   H12   1.078444 S    
N7    N11   1.380680 A    
C30   C46   1.389419 A    
C82   H49   1.106922 S    
