data_mof_unit_60551.cif
_audit_creation_date              2012-12-10T17:46:17-0500
_audit_creation_method            fapswitch 2.2
_symmetry_space_group_name_H-M    P1
_symmetry_Int_Tables_number       1
_space_group_crystal_system       triclinic
_cell_length_a                    16.051894
_cell_length_b                    17.922872
_cell_length_c                    17.930366
_cell_angle_alpha                 115.398361
_cell_angle_beta                  99.444577
_cell_angle_gamma                 76.179532
_cell_volume                      4513.82106852

loop_
_atom_site_label
_atom_site_type_symbol
_atom_type_description
_atom_site_fract_x
_atom_site_fract_y
_atom_site_fract_z
_atom_type_partial_charge
C1    C     C_R   0.462008 0.456747 0.281124 0.549127
C2    C     C_R   0.510826 0.550672 0.927843 0.009109
C3    C     C_R   0.535541 0.628811 0.981950 0.059662
C4    C     C_R   0.537420 0.543319 0.719222 0.503399
C5    C     C_R   0.478328 0.504281 0.960476 0.019029
C6    C     C_R   0.480493 0.531056 0.047554 0.022715
C7    C     C_R   0.498720 0.611440 0.098803 -0.143259
C8    C     C_R   0.528375 0.659157 0.068082 0.004570
C9    C     C_R   0.439920 0.434139 0.908870 -0.128971
C10   C     C_R   0.409329 0.389248 0.941533 -0.120444
C11   C     C_R   0.420008 0.409355 0.026112 0.009624
C12   C     C_1   0.889128 0.476836 0.476874 -0.043525
C13   C     C_R   0.459659 0.478318 0.080382 0.034961
C14   C     C_R   0.391851 0.360202 0.056585 -0.139089
C15   C     C_R   0.404280 0.376976 0.140279 -0.179251
C16   C     C_R   0.462162 0.723399 0.547814 0.557615
C17   C     C_R   0.479662 0.488897 0.164366 0.250978
C18   C     C_R   0.559521 0.186575 0.437415 0.019055
C19   C     C_R   0.448514 0.812930 0.567945 0.039555
C20   C     C_R   0.648958 0.048724 0.378362 -0.098115
C21   C     C_R   0.624573 0.131536 0.386139 -0.146523
C22   C     C_R   0.517476 0.157177 0.478806 -0.124751
C23   C     C_1   0.110748 0.525167 0.521849 -0.042251
C24   C     C_R   0.542731 0.074576 0.474502 -0.015181
C25   C     C_R   0.609650 0.019560 0.422772 0.067746
C26   C     C_R   0.503672 0.045583 0.520409 0.010141
C27   C     C_R   0.526849 0.959957 0.508416 -0.006411
C28   C     C_R   0.538100 0.276358 0.452845 0.504767
C29   C     C_R   0.598489 0.909709 0.462815 -0.103751
C30   C     C_R   0.637835 0.936980 0.417128 0.259209
C31   C     C_R   0.444525 0.099861 0.580185 -0.136646
C32   C     C_R   0.410009 0.071108 0.626589 -0.096824
C33   C     C_R   0.428838 0.985971 0.612697 0.026080
C34   C     C_1   0.813836 0.481432 0.481308 0.014132
C35   C     C_R   0.481353 0.928229 0.547022 0.015294
C36   C     C_R   0.393964 0.956294 0.660507 0.004616
C37   C     C_R   0.405231 0.869839 0.637559 -0.205141
C38   C     C_R   0.483520 0.840786 0.520325 0.245155
C39   C     C_R   0.276128 0.513691 0.513037 0.497724
C40   C     C_R   0.724296 0.486759 0.486597 0.512570
C41   C     C_1   0.186254 0.519991 0.517799 0.018299
C42   C     C_2   0.020566 0.531143 0.526698 -0.118029
C43   C     C_2   0.979149 0.471240 0.471680 -0.121062
C44   C     C_3   0.698368 0.803061 0.326279 -0.086259
C45   C     C_R   0.543972 0.569836 0.809439 0.020726
C46   C     C_3   0.456072 0.778841 0.380944 -0.118455
C47   C     C_2   0.348403 0.011790 0.736709 0.219790
C48   C     C_2   0.550849 0.740175 0.129878 0.189687
C49   C     C_3   0.619084 0.501734 0.204685 -0.119755
C50   C     C_R   0.448165 0.440641 0.193763 0.050238
C51   C     C_R   0.562293 0.676259 0.947640 -0.105420
C52   C     C_R   0.566416 0.647042 0.862628 -0.142714
C53   C     C_R   0.519091 0.521289 0.842248 -0.123729
H1    H     H_    0.012754 0.417303 0.422410 0.136325
H2    H     H_    0.986992 0.585040 0.576022 0.141473
H3    H     H_    0.628041 0.850498 0.466223 0.178735
H4    H     H_    0.425962 0.166333 0.595900 0.108056
H5    H     H_    0.381079 0.339252 0.163216 0.118575
H6    H     H_    0.378736 0.336990 0.899815 0.132140
H7    H     H_    0.577221 0.737802 0.984996 0.181895
H8    H     H_    0.584504 0.686386 0.838355 0.142406
H9    H     H_    0.506953 0.460248 0.799152 0.126695
H10   H     H_    0.630941 0.797932 0.300501 0.131723
H11   H     H_    0.720440 0.766159 0.364600 0.123562
H12   H     H_    0.487466 0.640053 0.163691 0.156034
H13   H     H_    0.739484 0.774455 0.273195 0.179736
H14   H     H_    0.439980 0.839758 0.374403 0.104806
H15   H     H_    0.396709 0.761372 0.388050 0.147352
H16   H     H_    0.483333 0.729969 0.322754 0.159676
H17   H     H_    0.300081 0.989978 0.754021 0.107663
H18   H     H_    0.513230 0.776985 0.183451 0.088817
H19   H     H_    0.635012 0.486303 0.140970 0.125343
H20   H     H_    0.633547 0.443802 0.216703 0.140863
H21   H     H_    0.661446 0.544728 0.248614 0.144633
H22   H     H_    0.428541 0.414417 0.842874 0.111886
H23   H     H_    0.360037 0.308658 0.015498 0.141375
H24   H     H_    0.380295 0.846355 0.674339 0.099752
H25   H     H_    0.365433 0.116563 0.671213 0.171617
H26   H     H_    0.699892 0.008047 0.338387 0.176368
H27   H     H_    0.657770 0.152841 0.353187 0.142423
H28   H     H_    0.464747 0.200471 0.513814 0.131501
O1    O     O_3   0.500000 0.500000 0.500000 -0.442055
O2    O     O_R   0.299440 0.550140 0.473730 -0.544155
O3    O     O_R   0.684420 0.431670 0.431640 -0.539130
O4    O     O_R   0.331720 0.471780 0.548240 -0.537153
O5    O     O_R   0.684420 0.546410 0.546380 -0.528669
O6    O     O_3   0.709010 0.887272 0.372445 -0.575672
O7    O     O_3   0.518005 0.781322 0.447198 -0.589933
O8    O     O_2   0.367755 0.079349 0.783563 -0.518486
O9    O     O_2   0.614300 0.763798 0.125125 -0.524619
O10   O     O_3   0.532777 0.542893 0.218059 -0.598087
O11   O     O_R   0.525630 0.690350 0.582790 -0.530976
O12   O     O_R   0.571070 0.303900 0.411450 -0.547496
O13   O     O_R   0.412800 0.516450 0.332470 -0.523911
O14   O     O_R   0.490500 0.489300 0.673290 -0.544086
O15   O     O_R   0.525640 0.414150 0.306600 -0.546494
O16   O     O_R   0.571060 0.580100 0.687640 -0.548160
O17   O     O_R   0.412790 0.677900 0.493930 -0.536102
O18   O     O_R   0.490510 0.327840 0.511830 -0.546443
Zn1   Zn    Zn3+2 0.569080 0.577860 0.577850 0.961861
Zn2   Zn    Zn3+2 0.407860 0.560080 0.450890 0.959521
Zn3   Zn    Zn3+2 0.453980 0.448130 0.557350 0.931086
Zn4   Zn    Zn3+2 0.569080 0.413920 0.413920 0.947718

loop_
_geom_bond_atom_site_label_1
_geom_bond_atom_site_label_2
_ccdc_geom_bond_type
C27   C29   A    
C18   C21   A    
C40   O3    A    
C44   H13   S    
C17   O10   S    
O12   Zn4   S    
C7    C8    A    
C39   C41   S    
C44   H11   S    
C46   H15   S    
C26   C27   A    
C23   C42   S    
C34   C40   S    
C36   C37   A    
C24   C26   A    
C12   C43   S    
C52   H8    S    
C16   C19   S    
C5    C6    A    
C11   C14   A    
C20   C25   A    
C33   C36   A    
C36   C47   S    
C15   C50   A    
C40   O5    A    
C46   H16   S    
C19   C37   A    
O13   Zn2   S    
C1    O13   A    
C49   H19   S    
O1    Zn4   S    
C44   O6    S    
O5    Zn1   S    
C9    C10   A    
O14   Zn3   S    
C45   C53   A    
C26   C31   A    
C49   H21   S    
C48   O9    D    
C4    O16   A    
C47   O8    D    
C49   O10   S    
C46   O7    S    
C4    C45   S    
C44   H10   S    
C51   C52   A    
C22   H28   S    
C35   C38   A    
C18   C28   S    
C24   C25   A    
C3    C8    A    
C3    C51   A    
C45   C52   A    
C27   C35   A    
C37   H24   S    
C38   O7    S    
C28   O12   A    
C14   H23   S    
C8    C48   S    
C47   H17   S    
C5    C9    A    
C29   C30   A    
C19   C38   A    
C42   H2    S    
C7    H12   S    
C4    O14   A    
C53   H9    S    
C43   H1    S    
C31   C32   A    
O1    Zn3   S    
C28   O18   A    
C16   O11   A    
C15   H5    S    
C49   H20   S    
C2    C5    A    
C42   C43   D    
C39   O4    A    
C48   H18   S    
C12   C34   T    
O16   Zn1   S    
O11   Zn1   S    
C1    C50   S    
C25   C30   A    
O2    Zn2   S    
C20   H26   S    
C18   C22   A    
O1    Zn1   S    
C2    C53   A    
C17   C50   A    
C6    C7    A    
C29   H3    S    
O17   Zn2   S    
C23   C41   T    
C13   C17   A    
C32   C33   A    
C31   H4    S    
C2    C3    A    
C39   O2    A    
C46   H14   S    
C6    C13   A    
C11   C13   A    
C16   O17   A    
C1    O15   A    
C21   H27   S    
C33   C35   A    
O1    Zn2   S    
C10   H6    S    
C22   C24   A    
C10   C11   A    
C32   H25   S    
O18   Zn3   S    
C20   C21   A    
O15   Zn4   S    
O3    Zn4   S    
C14   C15   A    
C51   H7    S    
C9    H22   S    
C30   O6    S    
O4    Zn3   S    
