data_mof_unit_45634.cif
_audit_creation_date              2012-12-10T17:19:25-0500
_audit_creation_method            fapswitch 2.2
_symmetry_space_group_name_H-M    P1
_symmetry_Int_Tables_number       1
_space_group_crystal_system       triclinic
_cell_length_a                    15.103634
_cell_length_b                    10.791167
_cell_length_c                    9.650115
_cell_angle_alpha                 90.098754
_cell_angle_beta                  89.389201
_cell_angle_gamma                 93.629758
_cell_volume                      1569.58688005

loop_
_atom_site_label
_atom_site_type_symbol
_atom_type_description
_atom_site_fract_x
_atom_site_fract_y
_atom_site_fract_z
_atom_type_partial_charge
C1    C     C_R   0.499747 0.263107 0.499879 0.768492
C2    C     C_R   0.907930 0.486367 0.371932 -0.096787
C3    C     C_R   0.951494 0.517376 0.750274 -0.149544
C4    C     C_R   0.043596 0.516305 0.751710 -0.056982
C5    C     C_R   0.091583 0.505226 0.627401 0.002268
C6    C     C_R   0.046272 0.495246 0.500218 -0.054596
C7    C     C_R   0.093661 0.484275 0.374436 -0.016876
C8    C     C_R   0.047959 0.474191 0.248582 0.621717
C9    C     C_R   0.955796 0.475299 0.247560 -0.187580
C10   C     C_R   0.184008 0.504429 0.628110 0.649807
C11   C     C_R   0.231504 0.494554 0.502504 -0.197025
C12   C     C_R   0.328691 0.496475 0.500779 0.889895
C13   C     C_R   0.185887 0.483999 0.376774 -0.232038
C14   C     C_R   0.340185 0.121830 0.586867 -0.230677
C15   C     C_R   0.264009 0.054021 0.632002 -0.288833
C16   C     C_R   0.262324 0.925316 0.636971 0.652259
C17   C     C_R   0.336662 0.863336 0.595945 0.512516
C18   C     C_R   0.415157 0.929924 0.548444 -0.203025
C19   C     C_R   0.416598 0.061329 0.545684 0.044945
C20   C     C_R   0.494187 0.129316 0.500001 -0.096784
C21   C     C_R   0.568802 0.069880 0.456871 -0.218618
C22   C     C_R   0.568258 0.941901 0.459507 0.702185
C23   C     C_R   0.496597 0.737045 0.500524 1.029411
C24   C     C_R   0.492129 0.871127 0.502598 -0.234673
C25   C     C_R   0.600622 0.693154 0.139872 0.522286
C26   C     C_R   0.629987 0.799678 0.069138 0.418213
C27   C     C_R   0.629295 0.800359 0.927685 0.403209
C28   C     C_R   0.599967 0.694253 0.857050 0.465714
C29   C     C_R   0.549025 0.594352 0.924416 -0.083656
C30   C     C_R   0.549145 0.594096 0.073988 -0.167618
C31   C     C_R   0.452431 0.412633 0.074104 0.722414
C32   C     C_R   0.452746 0.412588 0.926777 -0.034010
C33   C     C_R   0.671174 0.499388 0.499120 0.945263
C34   C     C_R   0.815454 0.487388 0.371567 0.636042
C35   C     C_R   0.768194 0.498527 0.497282 -0.183168
C36   C     C_R   0.814015 0.508504 0.622891 -0.241508
C37   C     C_R   0.906075 0.507468 0.624607 0.116861
C38   C     C_R   0.953381 0.496365 0.498884 0.021397
Cu1   Cu    Cu3+1 0.499990 0.499990 0.640660 1.084181
Cu2   Cu    Cu3+1 0.500010 0.500010 0.359340 1.115009
H1    H     H_    0.338299 0.221833 0.583828 0.163277
H2    H     H_    0.628526 0.123296 0.423918 0.183459
N1    N     N_R   0.500860 0.501210 0.147910 -0.201368
N2    N     N_R   0.500890 0.501290 0.852040 -0.180090
O1    O     O_R   0.499990 0.319640 0.618810 -0.607742
O2    O     O_R   0.500000 0.319660 0.381240 -0.530636
O3    O     O_R   0.370250 0.499960 0.618800 -0.500023
O4    O     O_R   0.370260 0.499980 0.381230 -0.583011
O5    O     O_R   0.500000 0.680340 0.618760 -0.500125
O6    O     O_R   0.500010 0.680360 0.381190 -0.558125
O7    O     O_R   0.629740 0.500020 0.618770 -0.542338
O8    O     O_R   0.629750 0.500040 0.381200 -0.467006
F1    F     F_    0.772086 0.476529 0.248912 -0.632333
H3    H     H_    0.206060 0.101671 0.663266 0.205733
F2    F     F_    0.187884 0.859738 0.681644 -0.598257
F3    F     F_    0.330425 0.738575 0.604608 -0.651088
F4    F     F_    0.643810 0.886918 0.425218 -0.541276
F5    F     F_    0.402348 0.323248 0.142372 -0.642437
F6    F     F_    0.637567 0.685889 0.264432 -0.528829
F7    F     F_    0.672699 0.895562 0.137381 -0.513752
F8    F     F_    0.670852 0.897117 0.858174 -0.535763
F9    F     F_    0.636437 0.689199 0.730379 -0.581650
H4    H     H_    0.778144 0.517279 0.719992 0.212037
H5    H     H_    0.413618 0.340860 0.872438 0.160070
H6    H     H_    0.915784 0.525998 0.847496 0.168099
H7    H     H_    0.077055 0.524370 0.850307 0.247720
F10   F     F_    0.227126 0.514579 0.751032 -0.608440
H8    H     H_    0.222335 0.475726 0.280200 0.252503
F11   F     F_    0.092325 0.463276 0.126454 -0.653166
H9    H     H_    0.922133 0.467512 0.149046 0.214473

loop_
_geom_bond_atom_site_label_1
_geom_bond_atom_site_label_2
_ccdc_geom_bond_type
C36   C37   A    
Cu1   O7    S    
C23   C24   S    
C6    C38   A    
C37   C38   A    
C18   C24   A    
C33   O7    A    
C36   H4    S    
C25   F6    S    
C2    C38   A    
C19   C20   A    
C12   O4    A    
Cu1   O1    S    
C2    C34   A    
C22   F4    S    
C17   C18   A    
C32   N2    A    
C16   F2    S    
C11   C12   S    
C5    C10   A    
C10   F10   S    
C21   C22   A    
C20   C21   A    
C33   O8    A    
C4    H7    S    
C11   C13   A    
C17   F3    S    
C1    O1    A    
C26   C27   A    
C3    H6    S    
C31   N1    A    
C12   O3    A    
Cu2   O6    S    
C31   F5    S    
C27   C28   A    
C28   C29   A    
Cu1   O5    S    
C18   C19   A    
C6    C7    A    
C14   H1    S    
C29   N2    A    
C5    C6    A    
C1    O2    A    
C31   C32   A    
C22   C24   A    
C30   N1    A    
C23   O5    A    
C7    C8    A    
C10   C11   A    
Cu2   O2    S    
Cu1   N2    S    
C29   C30   A    
C15   C16   A    
Cu1   Cu2   S    
C15   H3    S    
C7    C13   A    
C16   C17   A    
C9    H9    S    
C32   H5    S    
C34   F1    S    
Cu1   O3    S    
C34   C35   A    
C25   C30   A    
Cu2   O4    S    
C8    F11   S    
C14   C15   A    
C4    C5    A    
C1    C20   S    
C27   F8    S    
C33   C35   S    
C25   C26   A    
Cu2   O8    S    
C2    C9    A    
C26   F7    S    
C14   C19   A    
C13   H8    S    
Cu2   N1    S    
C3    C4    A    
C21   H2    S    
C3    C37   A    
C8    C9    A    
C23   O6    A    
C35   C36   A    
C28   F9    S    
