data_mof_unit_39145.cif
_audit_creation_date              2012-10-26T20:17:10-0400
_audit_creation_method            fapswitch 2.2
_symmetry_space_group_name_H-M    P1
_symmetry_Int_Tables_number       1
_space_group_crystal_system       triclinic
_cell_length_a                    10.613397
_cell_length_b                    11.093698
_cell_length_c                    9.823276
_cell_angle_alpha                 111.011908
_cell_angle_beta                  98.093339
_cell_angle_gamma                 90.957368
_cell_volume                      1066.12034652

loop_
_atom_site_label
_atom_site_type_symbol
_atom_type_description
_atom_site_fract_x
_atom_site_fract_y
_atom_site_fract_z
_atom_type_partial_charge
C1    C     C_R   0.492993 0.254829 0.440937 0.541816
C2    C     C_3   0.122937 0.501536 0.503655 0.047380
C3    C     C_3   0.971900 0.614138 0.597540 -0.124154
C4    C     C_3   0.028314 0.388226 0.403840 -0.122190
C5    C     C_2   0.484372 0.116765 0.407750 -0.111258
C6    C     C_2   0.514140 0.883524 0.589262 -0.114716
C7    C     C_2   0.525486 0.066273 0.510112 0.237934
C8    C     C_2   0.487518 0.930531 0.480546 0.222115
C9    C     C_2   0.510725 0.510373 0.081296 -0.015572
C10   C     C_2   0.489434 0.489500 0.918700 -0.014035
C11   C     C_3   0.302943 0.840348 0.322056 0.014576
C12   C     C_R   0.506721 0.745364 0.558674 0.540131
C13   C     C_3   0.248486 0.765312 0.159900 -0.243069
C14   C     C_3   0.102870 0.752934 0.134282 -0.493722
C15   C     C_3   0.724634 0.160056 0.630969 0.028852
C16   C     C_3   0.802489 0.050006 0.648983 -0.284973
C17   C     C_3   0.943521 0.074652 0.644691 -0.490893
C18   C     C_R   0.259453 0.500613 0.501470 0.542752
C19   C     C_R   0.740629 0.500351 0.498863 0.543654
C20   C     C_3   0.057490 0.516551 0.637607 -0.114261
C21   C     C_3   0.942880 0.485912 0.363721 -0.112100
C22   C     C_3   0.960604 0.403232 0.537739 -0.127936
C23   C     C_3   0.039786 0.599256 0.463758 -0.126937
C24   C     C_3   0.877326 0.500737 0.497543 0.046610
Cu1   Cu    Cu3+1 0.522260 0.521810 0.644920 0.935920
Cu2   Cu    Cu3+1 0.477740 0.478190 0.355080 0.938738
H1    H     H_    0.925537 0.323066 0.568052 0.091413
H2    H     H_    0.054630 0.295623 0.325049 0.105000
H3    H     H_    0.264141 0.937754 0.356705 0.103744
H4    H     H_    0.271921 0.787301 0.390135 0.142314
H5    H     H_    0.281571 0.816181 0.090861 0.166866
H6    H     H_    0.284109 0.666871 0.124690 0.186211
H7    H     H_    0.067426 0.696634 0.196227 0.145343
H8    H     H_    0.067173 0.701452 0.014871 0.143335
H9    H     H_    0.064757 0.850193 0.169970 0.143343
H10   H     H_    0.764947 0.252393 0.719970 0.164618
H11   H     H_    0.735287 0.171209 0.524612 0.114335
H12   H     H_    0.075635 0.680520 0.435728 0.089651
H13   H     H_    0.792431 0.040840 0.756021 0.167322
H14   H     H_    0.766115 0.957226 0.558391 0.159268
H15   H     H_    0.956027 0.080819 0.536929 0.141277
H16   H     H_    0.997090 0.993653 0.658698 0.144533
H17   H     H_    0.983483 0.166195 0.735234 0.144342
H18   H     H_    0.624482 0.623221 0.934615 0.203318
H19   H     H_    0.375320 0.376996 0.065426 0.200489
H20   H     H_    0.107139 0.529001 0.749618 0.111750
H21   H     H_    0.893416 0.473539 0.251665 0.117194
H22   H     H_    0.549661 0.947472 0.701893 0.112673
H23   H     H_    0.436763 0.056039 0.298420 0.104094
H24   H     H_    0.415909 0.417075 0.845665 0.154918
H25   H     H_    0.584206 0.582834 0.154365 0.163375
H26   H     H_    0.945528 0.706719 0.676350 0.104944
N1    N     N_2   0.444270 0.445410 0.137360 -0.356080
N2    N     N_2   0.555730 0.554590 0.862640 -0.351258
O1    O     O_R   0.511880 0.332340 0.577400 -0.447545
O2    O     O_3   0.595637 0.141277 0.646361 -0.573937
O3    O     O_R   0.488120 0.667660 0.422600 -0.442429
O4    O     O_R   0.474280 0.295500 0.332650 -0.504054
O5    O     O_R   0.525720 0.704500 0.667350 -0.505838
O6    O     O_R   0.335640 0.518390 0.622350 -0.508222
O7    O     O_R   0.664360 0.481610 0.377650 -0.503964
O8    O     O_R   0.298050 0.481550 0.377590 -0.502653
O9    O     O_R   0.701950 0.518450 0.622410 -0.502410
O10   O     O_3   0.437554 0.850768 0.336913 -0.571939

loop_
_geom_bond_atom_site_label_1
_geom_bond_atom_site_label_2
_ccdc_geom_bond_type
C14   H8    S    
C2    C4    S    
C3    H26   S    
C17   H17   S    
Cu1   O6    S    
C2    C18   S    
C23   H12   S    
Cu2   O4    S    
C9    C10   S    
C13   H6    S    
C3    C23   S    
C9    H25   S    
C14   H9    S    
C15   O2    S    
C14   H7    S    
C19   C24   S    
Cu2   O8    S    
H19   N1    S    
C7    C8    S    
C13   C14   S    
C6    C12   S    
C4    C21   S    
C11   C13   S    
C5    H23   S    
C3    C24   S    
C6    H22   S    
C7    O2    S    
C16   H14   S    
C1    C5    S    
C12   O3    A    
C18   O6    A    
C4    H2    S    
Cu2   O7    S    
C20   C22   S    
C22   C24   S    
C22   H1    S    
C21   C23   S    
C1    O1    A    
C10   N2    D    
Cu2   O3    S    
C17   H15   S    
C9    N1    D    
C16   H13   S    
C2    C20   S    
C15   C16   S    
C8    O10   S    
C19   O7    A    
H18   N2    S    
C15   H10   S    
C3    C20   S    
Cu2   N1    S    
C4    C22   S    
Cu1   N2    S    
C11   H3    S    
C11   O10   S    
Cu1   O9    S    
C21   C24   S    
C2    C23   S    
C5    C7    D    
C17   H16   S    
C15   H11   S    
C6    C8    D    
Cu1   O5    S    
Cu1   Cu2   S    
C1    O4    A    
C12   O5    A    
C13   H5    S    
C18   O8    A    
Cu1   O1    S    
C11   H4    S    
C19   O9    A    
C16   C17   S    
C21   H21   S    
C20   H20   S    
C10   H24   S    
