data_mof_unit_62295.cif
_audit_creation_date              2012-12-10T17:11:58-0500
_audit_creation_method            fapswitch 2.2
_symmetry_space_group_name_H-M    P1
_symmetry_Int_Tables_number       1
_space_group_crystal_system       triclinic
_cell_length_a                    21.650671
_cell_length_b                    21.663897
_cell_length_c                    22.149119
_cell_angle_alpha                 59.847465
_cell_angle_beta                  118.90323
_cell_angle_gamma                 90.204553
_cell_volume                      7461.15303424

loop_
_atom_site_label
_atom_site_type_symbol
_atom_type_description
_atom_site_fract_x
_atom_site_fract_y
_atom_site_fract_z
_atom_type_partial_charge
C1    C     C_R   0.622255 0.497792 0.504564 0.955493
C2    C     C_3   0.289589 0.711753 0.082267 0.079574
C3    C     C_3   0.188261 0.729807 0.973642 -0.236556
C4    C     C_3   0.207172 0.793013 0.917633 0.109257
C5    C     C_3   0.208330 0.761139 0.027919 -0.242249
C6    C     C_3   0.226233 0.825226 0.970150 -0.120230
C7    C     C_1   0.335505 0.665678 0.173267 0.003064
C8    C     C_1   0.161926 0.837879 0.826674 -0.026045
C9    C     C_R   0.751430 0.357934 0.629028 0.613972
C10   C     C_R   0.806284 0.290349 0.674238 -0.178471
C11   C     C_R   0.860494 0.288794 0.657985 -0.241045
C12   C     C_R   0.418646 0.581735 0.337458 0.875845
C13   C     C_R   0.862490 0.355501 0.599650 -0.173090
C14   C     C_R   0.809585 0.424964 0.555810 0.039104
C15   C     C_R   0.749861 0.425702 0.565307 -0.037624
C16   C     C_R   0.691613 0.494568 0.511162 -0.098061
C17   C     C_R   0.696390 0.561551 0.456006 -0.210368
C18   C     C_R   0.757803 0.561333 0.452006 -0.189134
C19   C     C_R   0.814213 0.493863 0.501614 -0.072083
C20   C     C_3   0.710890 0.216423 0.028950 0.571386
C21   C     C_3   0.693424 0.302280 0.971409 -0.277326
C22   C     C_1   0.626041 0.372873 0.751433 -0.125097
C23   C     C_R   0.378093 0.501748 0.496227 0.849815
C24   C     C_1   0.875232 0.125484 0.248570 -0.109095
C25   C     C_3   0.726306 0.204872 0.974052 0.553613
C26   C     C_3   0.709994 0.289835 0.917312 -0.103062
C27   C     C_3   0.808503 0.196290 0.027936 0.577166
C28   C     C_3   0.792970 0.207789 0.082684 -0.134514
C29   C     C_3   0.792652 0.281851 0.970315 -0.265099
C30   C     C_3   0.776869 0.293339 0.026070 -0.283370
C31   C     C_1   0.664075 0.335010 0.826466 0.096111
C32   C     C_1   0.838157 0.162621 0.173543 0.118997
C33   C     C_R   0.252335 0.484891 0.376165 -0.169997
C34   C     C_R   0.581032 0.418308 0.662482 0.957804
C35   C     C_R   0.196227 0.466865 0.327510 -0.124455
C36   C     C_R   0.138192 0.453756 0.338210 -0.137493
C37   C     C_R   0.134560 0.461322 0.395404 -0.169620
C38   C     C_R   0.189507 0.482350 0.443148 0.102089
C39   C     C_R   0.251175 0.490036 0.436876 0.095922
C40   C     C_R   0.309349 0.503627 0.491004 -0.099953
C41   C     C_R   0.304403 0.514355 0.545725 -0.193562
C42   C     C_R   0.242599 0.510398 0.548946 -0.203868
C43   C     C_R   0.185386 0.494985 0.498046 -0.109141
C44   C     C_R   0.997504 0.882415 0.495121 0.957553
C45   C     C_3   0.288431 0.743684 0.971755 -0.228832
C46   C     C_R   0.080980 0.918528 0.662546 0.877606
C47   C     C_R   0.999691 0.120206 0.498991 0.843470
C48   C     C_R   0.919039 0.081439 0.337508 0.950398
C49   C     C_R   0.002133 0.620590 0.499374 0.871164
C50   C     C_R   0.879835 0.497839 0.500349 0.867628
C51   C     C_R   0.997474 0.378660 0.501435 0.855717
C52   C     C_R   0.120044 0.497551 0.499605 0.865874
C53   C     C_R   0.009121 0.879815 0.367952 0.621212
C54   C     C_R   0.028237 0.871835 0.319882 -0.163604
C55   C     C_R   0.044526 0.802093 0.333956 -0.238316
C56   C     C_3   0.308242 0.774999 0.025993 -0.232160
C57   C     C_R   0.038394 0.740541 0.393512 -0.175579
C58   C     C_R   0.016482 0.747805 0.440961 0.035503
C59   C     C_R   0.006923 0.816697 0.432569 -0.038870
C60   C     C_R   0.994323 0.819686 0.488418 -0.093242
C61   C     C_R   0.984776 0.758727 0.545063 -0.210397
C62   C     C_R   0.989171 0.693423 0.548980 -0.187493
C63   C     C_R   0.004493 0.687786 0.497359 -0.074122
C64   C     C_R   0.033550 0.103677 0.649508 -0.163178
C65   C     C_R   0.044845 0.096733 0.720225 -0.125615
C66   C     C_R   0.038515 0.160129 0.720613 -0.155099
C67   C     C_1   0.373551 0.627343 0.248381 -0.158483
C68   C     C_R   0.022112 0.230518 0.650910 -0.183191
C69   C     C_R   0.011998 0.239395 0.578233 0.110213
C70   C     C_R   0.015928 0.174775 0.577594 0.097891
C71   C     C_R   0.002745 0.182530 0.505065 -0.074916
C72   C     C_R   0.988819 0.250939 0.435455 -0.212632
C73   C     C_R   0.986132 0.314073 0.435670 -0.198338
C74   C     C_R   0.997437 0.309669 0.505670 -0.118697
C75   C     C_1   0.124826 0.874750 0.751587 -0.177290
C76   C     C_3   0.269999 0.680919 0.028959 0.701810
H1    H     H_    0.357916 0.792940 0.048845 0.167816
H2    H     H_    0.901845 0.235978 0.691747 0.173648
H3    H     H_    0.904647 0.352482 0.587730 0.145018
H4    H     H_    0.761588 0.614070 0.410417 0.161633
H5    H     H_    0.645220 0.346168 0.947079 0.189693
H6    H     H_    0.798359 0.329057 0.048843 0.192379
H7    H     H_    0.825907 0.308965 0.945068 0.191813
H8    H     H_    0.349150 0.524722 0.587091 0.163397
H9    H     H_    0.320454 0.736499 0.947643 0.163386
H10   H     H_    0.198112 0.462494 0.281802 0.150688
H11   H     H_    0.095493 0.438248 0.301598 0.140127
H12   H     H_    0.088971 0.449554 0.402345 0.152026
H13   H     H_    0.030282 0.920178 0.271223 0.189808
H14   H     H_    0.060642 0.795956 0.297501 0.176520
H15   H     H_    0.207276 0.885674 0.944140 0.145779
H16   H     H_    0.979964 0.647196 0.592062 0.160716
H17   H     H_    0.979048 0.255552 0.380269 0.144036
H18   H     H_    0.039277 0.052745 0.652075 0.137894
H19   H     H_    0.058150 0.042051 0.774682 0.138357
H20   H     H_    0.046359 0.154848 0.775328 0.142126
H21   H     H_    0.017248 0.276094 0.656828 0.165732
H22   H     H_    0.976022 0.366614 0.380822 0.165272
H23   H     H_    0.176382 0.767751 0.052354 0.164047
H24   H     H_    0.651752 0.614138 0.414820 0.162579
H25   H     H_    0.806679 0.238855 0.722121 0.181689
O1    O     O_R   0.591660 0.448290 0.500000 -0.578027
O2    O     O_R   0.948250 0.908380 0.499990 -0.627267
O3    O     O_R   0.113330 0.938270 0.623230 -0.613252
O4    O     O_R   0.009880 0.938380 0.623210 -0.624213
O5    O     O_R   0.051750 0.091470 0.500010 -0.622725
O6    O     O_R   0.948300 0.091580 0.500000 -0.621692
O7    O     O_R   0.990120 0.061470 0.376790 -0.570678
O8    O     O_R   0.886670 0.061580 0.376770 -0.616162
O9    O     O_R   0.965170 0.626380 0.430470 -0.615976
O10   O     O_R   0.034730 0.556800 0.569600 -0.617505
O11   O     O_R   0.873600 0.534810 0.430420 -0.613834
O12   O     O_R   0.591590 0.551700 0.500020 -0.632959
O13   O     O_R   0.943150 0.465220 0.569550 -0.624945
O14   O     O_R   0.965270 0.443220 0.430400 -0.626039
O15   O     O_R   0.034830 0.373630 0.569530 -0.638528
O16   O     O_R   0.056850 0.534790 0.430450 -0.635184
O17   O     O_R   0.126400 0.465210 0.569580 -0.609117
O18   O     O_R   0.438430 0.509910 0.376770 -0.616468
O19   O     O_R   0.438360 0.613320 0.376790 -0.619804
O20   O     O_R   0.408410 0.448300 0.499980 -0.626156
O21   O     O_R   0.408340 0.551710 0.500000 -0.623524
O22   O     O_R   0.561640 0.386680 0.623210 -0.553667
O23   O     O_R   0.561570 0.490090 0.623230 -0.633725
O24   O     O_R   0.051700 0.908270 0.500000 -0.584410
Zn1   Zn    Zn3+2 0.500040 0.430950 0.499990 1.039458
Zn2   Zn    Zn3+2 0.499960 0.569050 0.500010 0.978174
Zn3   Zn    Zn3+2 0.069070 0.999850 0.500010 1.022313
Zn4   Zn    Zn3+2 0.930930 1.000000 0.499990 0.995433
Zn5   Zn    Zn3+2 0.953560 0.546470 0.407100 0.969964
Zn6   Zn    Zn3+2 0.046440 0.453550 0.592900 0.969574
F1    F     F_    0.669629 0.181809 0.060212 -0.609467
F2    F     F_    0.867871 0.140916 0.058180 -0.609773
F3    F     F_    0.699902 0.159777 0.946500 -0.593659
H26   H     H_    0.295671 0.495661 0.364717 0.154075
H27   H     H_    0.238968 0.520290 0.590675 0.163653
H28   H     H_    0.975101 0.761274 0.587561 0.159891
F4    F     F_    0.988806 0.950249 0.346971 -0.668622
H29   H     H_    0.051816 0.687348 0.402459 0.167336
H30   H     H_    0.138918 0.711362 0.951065 0.159871
F5    F     F_    0.293409 0.605723 0.060978 -0.655617
F6    F     F_    0.703428 0.356634 0.651953 -0.677512

loop_
_geom_bond_atom_site_label_1
_geom_bond_atom_site_label_2
_ccdc_geom_bond_type
C66   C68   A    
C21   C26   S    
C13   H3    S    
C34   O22   A    
C49   C63   S    
C27   C29   S    
C41   C42   A    
C37   H12   S    
C35   C36   A    
C51   C74   S    
O6    Zn4   S    
C53   C59   A    
O19   Zn2   S    
C23   O20   A    
C48   O7    A    
C53   C54   A    
C33   C39   A    
C45   C76   S    
C36   C37   A    
C37   C38   A    
C29   H7    S    
C55   H14   S    
C5    C6    S    
C35   H10   S    
C43   C52   S    
C20   C25   S    
C23   C40   S    
C46   O4    A    
O5    Zn3   S    
C57   H29   S    
C42   H27   S    
C18   C19   A    
C73   C74   A    
O21   Zn2   S    
C68   H21   S    
O17   Zn6   S    
C2    C7    S    
C12   O19   A    
C5    H23   S    
C45   C56   S    
C68   C69   A    
C62   H16   S    
O24   Zn3   S    
C70   C71   A    
C64   C70   A    
C9    C10   A    
C4    C8    S    
C49   O10   A    
C52   O16   A    
C48   O8    A    
C6    H15   S    
C59   C60   A    
C13   C14   A    
C61   C62   A    
C1    O12   A    
C20   F1    S    
C46   C75   S    
C44   O2    A    
C23   O21   A    
C4    C45   S    
C36   H11   S    
C73   H22   S    
C22   C34   S    
C12   C67   S    
C44   O24   A    
C22   C31   T    
C53   F4    S    
C27   F2    S    
C28   C32   S    
C54   H13   S    
C4    C6    S    
C39   C40   A    
C16   C17   A    
O22   Zn1   S    
O4    Zn4   S    
C20   C28   S    
C3    C5    S    
C58   C59   A    
C41   H8    S    
C46   O3    A    
C8    C75   T    
C51   O14   A    
C56   H1    S    
C60   C61   A    
C50   O13   A    
C24   C48   S    
C30   H6    S    
C45   H9    S    
C24   C32   T    
O13   Zn6   S    
C29   C30   S    
C25   F3    S    
C11   H2    S    
C12   O18   A    
C33   H26   S    
O3    Zn3   S    
C47   O5    A    
C62   C63   A    
C50   O11   A    
C17   C18   A    
C69   C74   A    
C1    C16   S    
O7    Zn3   S    
O16   Zn5   S    
O2    Zn4   S    
C47   C71   S    
O23   Zn2   S    
C72   H17   S    
O10   Zn6   S    
C40   C41   A    
C21   H5    S    
C47   O6    A    
C55   C57   A    
O8    Zn4   S    
C38   C43   A    
C2    C5    S    
C42   C43   A    
C3    C4    S    
C2    C76   S    
C66   H20   S    
C58   C63   A    
C54   C55   A    
C34   O23   A    
C26   C31   S    
C14   C19   A    
C10   H25   S    
C6    C56   S    
C72   C73   A    
O1    Zn1   S    
C9    F6    S    
O12   Zn2   S    
C25   C27   S    
C21   C30   S    
C51   O15   A    
C64   C65   A    
C28   C30   S    
C25   C26   S    
C64   H18   S    
O20   Zn1   S    
C2    C56   S    
C76   F5    S    
C11   C13   A    
C19   C50   S    
C61   H28   S    
C57   C58   A    
C38   C39   A    
O15   Zn6   S    
C44   C60   S    
C33   C35   A    
O9    Zn5   S    
C9    C15   A    
C69   C70   A    
C17   H24   S    
C10   C11   A    
C7    C67   T    
O18   Zn1   S    
C65   H19   S    
C71   C72   A    
C20   C21   S    
C26   C29   S    
C18   H4    S    
C65   C66   A    
C27   C28   S    
C3    C76   S    
C14   C15   A    
C3    H30   S    
O11   Zn5   S    
C1    O1    A    
C15   C16   A    
C49   O9    A    
O14   Zn5   S    
C52   O17   A    
