data_mof_unit_42964.cif
_audit_creation_date              2012-12-10T17:23:44-0500
_audit_creation_method            fapswitch 2.2
_symmetry_space_group_name_H-M    P1
_symmetry_Int_Tables_number       1
_space_group_crystal_system       triclinic
_cell_length_a                    38.856208
_cell_length_b                    21.798921
_cell_length_c                    21.67381
_cell_angle_alpha                 90.029114
_cell_angle_beta                  124.926783
_cell_angle_gamma                 89.969234
_cell_volume                      15051.6180164

loop_
_atom_site_label
_atom_site_type_symbol
_atom_type_description
_atom_site_fract_x
_atom_site_fract_y
_atom_site_fract_z
_atom_type_partial_charge
C1    C     C_R   0.999888 0.999973 0.119764 0.870884
C2    C     C_R   0.000106 0.999946 0.880227 0.870852
C3    C     C_R   0.499895 0.499974 0.119781 0.870301
C4    C     C_R   0.500045 0.500002 0.880119 0.870414
C5    C     C_3   0.272975 0.998661 0.206851 -0.456027
C6    C     C_3   0.727027 0.998784 0.793145 -0.456358
C7    C     C_3   0.772955 0.498739 0.206860 -0.456289
C8    C     C_3   0.226522 0.446462 0.764465 -0.459031
C9    C     C_3   0.224462 0.999866 0.158688 -0.511692
C10   C     C_3   0.775539 0.000042 0.841305 -0.512012
C11   C     C_3   0.724443 0.499944 0.158752 -0.512077
C12   C     C_3   0.275061 0.446910 0.813332 -0.510452
C13   C     C_1   0.336850 0.001300 0.336131 -0.120618
C14   C     C_1   0.663149 0.001280 0.663866 -0.120509
C15   C     C_1   0.836855 0.501319 0.336119 -0.120525
C16   C     C_1   0.163136 0.500272 0.663578 -0.120160
C17   C     C_1   0.162944 0.000834 0.163935 -0.066281
C18   C     C_1   0.837055 0.000894 0.836054 -0.066162
C19   C     C_1   0.662950 0.500800 0.164061 -0.065713
C20   C     C_1   0.337036 0.500112 0.835706 -0.068493
C21   C     C_1   0.125425 0.000286 0.126036 -0.189518
C22   C     C_1   0.874575 0.000337 0.873957 -0.189507
C23   C     C_1   0.625429 0.500268 0.126124 -0.188295
C24   C     C_1   0.374562 0.499998 0.873680 -0.190318
C25   C     C_R   0.059257 0.073124 0.248716 -0.319484
C26   C     C_R   0.940767 0.073207 0.751386 -0.319251
C27   C     C_R   0.558892 0.573809 0.248393 -0.319031
C28   C     C_R   0.442823 0.577060 0.753259 -0.332457
C29   C     C_R   0.081990 0.118255 0.303274 0.433117
C30   C     C_R   0.918119 0.118470 0.696993 0.432474
C31   C     C_R   0.581271 0.619344 0.302543 0.432142
C32   C     C_R   0.420969 0.622997 0.699479 0.424065
C33   C     C_R   0.075593 0.126733 0.360088 0.409696
C34   C     C_R   0.924536 0.126973 0.640217 0.409693
C35   C     C_R   0.574842 0.627737 0.359329 0.410109
C36   C     C_R   0.426931 0.630203 0.642015 0.414734
C37   C     C_R   0.046226 0.090463 0.360712 -0.290405
C38   C     C_R   0.953823 0.090561 0.639441 -0.290089
C39   C     C_R   0.545791 0.590961 0.360327 -0.290249
C40   C     C_R   0.455152 0.592022 0.640222 -0.288577
C41   C     C_R   0.024081 0.043243 0.306988 0.022714
C42   C     C_R   0.975922 0.043260 0.693056 0.022615
C43   C     C_R   0.523889 0.543504 0.306835 0.022446
C44   C     C_R   0.476633 0.544287 0.693512 0.019541
C45   C     C_R   0.080967 0.000026 0.081173 0.890200
C46   C     C_R   0.919033 0.000042 0.918825 0.890135
C47   C     C_R   0.580968 0.500023 0.081193 0.889862
C48   C     C_R   0.419029 0.499999 0.918718 0.887682
C49   C     C_R   0.027715 0.038556 0.246633 -0.001137
C50   C     C_R   0.972277 0.038556 0.753394 -0.001040
C51   C     C_R   0.527541 0.538863 0.246494 -0.000839
C52   C     C_R   0.473218 0.540292 0.754168 0.003359
C53   C     C_R   0.998791 0.000215 0.312539 -0.164961
C54   C     C_R   0.001191 0.000190 0.687435 -0.165167
C55   C     C_R   0.498802 0.500227 0.312580 -0.164420
C56   C     C_R   0.501120 0.500187 0.687246 -0.166271
C57   C     C_R   0.973089 0.957871 0.254372 0.042474
C58   C     C_R   0.026846 0.957756 0.745497 0.042112
C59   C     C_R   0.473290 0.457642 0.254626 0.042386
C60   C     C_R   0.526138 0.457022 0.744656 0.041135
C61   C     C_R   0.970564 0.961853 0.187356 0.080119
C62   C     C_R   0.029364 0.961695 0.812513 0.080238
C63   C     C_R   0.470738 0.461595 0.187583 0.079721
C64   C     C_R   0.528770 0.460960 0.811765 0.080217
C65   C     C_R   0.999504 0.999919 0.185605 -0.155908
C66   C     C_R   0.000458 0.999836 0.814348 -0.155821
C67   C     C_R   0.499515 0.499925 0.185645 -0.155694
C68   C     C_R   0.500517 0.500162 0.814293 -0.157434
C69   C     C_R   0.949545 0.911845 0.260999 -0.174677
C70   C     C_R   0.050358 0.911688 0.738766 -0.173956
C71   C     C_R   0.449942 0.411426 0.261486 -0.174721
C72   C     C_R   0.548962 0.410259 0.737164 -0.174039
C73   C     C_R   0.920725 0.875798 0.199490 -0.131267
C74   C     C_R   0.079139 0.875540 0.800186 -0.130082
C75   C     C_R   0.421271 0.375108 0.200157 -0.131168
C76   C     C_R   0.577221 0.373211 0.797995 -0.128969
C77   C     C_R   0.914739 0.884737 0.130557 -0.147716
C78   C     C_R   0.085123 0.884425 0.869133 -0.147767
C79   C     C_R   0.415223 0.383995 0.131165 -0.146299
C80   C     C_R   0.583421 0.381981 0.867132 -0.147162
C81   C     C_R   0.939276 0.927264 0.124155 -0.153802
C82   C     C_R   0.060621 0.927004 0.875632 -0.153823
C83   C     C_R   0.439564 0.426747 0.124540 -0.152683
C84   C     C_R   0.559617 0.425388 0.874366 -0.151572
C85   C     C_R   0.499979 0.879953 0.499962 1.022968
C86   C     C_R   0.000030 0.379962 0.500016 1.022943
C87   C     C_3   0.226114 0.943986 0.262330 0.394656
C88   C     C_3   0.773923 0.943948 0.737758 0.394825
C89   C     C_3   0.726148 0.443919 0.262371 0.394761
C90   C     C_3   0.273404 0.492955 0.704943 0.388788
C91   C     C_R   0.418921 0.000423 0.418488 0.935029
C92   C     C_R   0.581079 0.000406 0.581512 0.935213
C93   C     C_R   0.918922 0.500416 0.418487 0.935472
C94   C     C_R   0.081076 0.500204 0.581479 0.935356
C95   C     C_R   0.499926 0.120269 0.499960 0.858429
C96   C     C_R   0.999998 0.620236 0.500016 0.859414
C97   C     C_R   0.000006 0.879851 0.500015 0.864832
C98   C     C_R   0.500005 0.379883 0.500011 0.865224
C99   C     C_R   0.999646 0.999204 0.379491 0.928539
C100  C     C_R   0.000352 0.999218 0.620503 0.928178
C101  C     C_R   0.499648 0.499235 0.379503 0.928421
C102  C     C_R   0.500337 0.499163 0.620443 0.928352
C103  C     C_R   0.000001 0.120121 0.500074 1.069077
C104  C     C_R   0.499986 0.620111 0.499983 1.068288
C105  C     C_R   0.452454 0.811518 0.358192 0.521675
C106  C     C_R   0.547387 0.811552 0.641617 0.520845
C107  C     C_R   0.952678 0.311486 0.358354 0.521280
C108  C     C_R   0.047625 0.311628 0.641749 0.520578
C109  C     C_R   0.450660 0.785230 0.297382 -0.327691
C110  C     C_R   0.548975 0.785494 0.702302 -0.328015
C111  C     C_R   0.951136 0.285372 0.297716 -0.329179
C112  C     C_R   0.049305 0.285627 0.702524 -0.326690
C113  C     C_R   0.960871 0.224380 0.300246 -0.291348
C114  C     C_R   0.039507 0.224687 0.700061 -0.291451
C115  C     C_R   0.460142 0.724147 0.299773 -0.290644
C116  C     C_R   0.539313 0.724496 0.699848 -0.288752
C117  C     C_R   0.967831 0.188036 0.359706 0.476994
C118  C     C_R   0.032375 0.188216 0.640519 0.477042
C119  C     C_R   0.467217 0.687925 0.359375 0.476313
C120  C     C_R   0.532330 0.688119 0.640368 0.477379
C121  C     C_R   0.982345 0.217254 0.430364 -0.092499
C122  C     C_R   0.017813 0.217341 0.569809 -0.092175
C123  C     C_R   0.482035 0.717211 0.430149 -0.092401
C124  C     C_R   0.517715 0.717287 0.569659 -0.091177
C125  C     C_3   0.225541 0.060343 0.258667 -0.344976
C126  C     C_3   0.774418 0.060311 0.741215 -0.345094
C127  C     C_3   0.725553 0.560278 0.258854 -0.345074
C128  C     C_3   0.275345 0.561766 0.801486 -0.350500
C129  C     C_R   0.478063 0.781552 0.429860 -0.063518
C130  C     C_R   0.521774 0.781583 0.569946 -0.063663
C131  C     C_R   0.978274 0.281560 0.430033 -0.064087
C132  C     C_R   0.021946 0.281639 0.570089 -0.064640
C133  C     C_R   0.000023 0.185710 0.500076 -0.165990
C134  C     C_R   0.499930 0.685683 0.499937 -0.165936
C135  C     C_R   0.499953 0.813428 0.499912 -0.158790
C136  C     C_R   0.000086 0.313454 0.500044 -0.159242
C137  C     C_R   0.558192 0.187980 0.483328 -0.207017
C138  C     C_R   0.442008 0.188271 0.517654 -0.206824
C139  C     C_R   0.059000 0.687814 0.485453 -0.205993
C140  C     C_R   0.941110 0.687961 0.514904 -0.208176
C141  C     C_R   0.581047 0.219493 0.462116 -0.127217
C142  C     C_R   0.419290 0.219962 0.539116 -0.126636
C143  C     C_R   0.082443 0.719325 0.465514 -0.105812
C144  C     C_R   0.917709 0.719550 0.534924 -0.127031
C145  C     C_R   0.075630 0.781855 0.448730 0.052032
C146  C     C_R   0.924525 0.782092 0.551665 0.059124
C147  C     C_R   0.574055 0.282002 0.445273 0.059151
C148  C     C_R   0.426259 0.282522 0.555705 0.055861
C149  C     C_R   0.046979 0.812968 0.456875 -0.261911
C150  C     C_R   0.953130 0.813135 0.543389 -0.262063
C151  C     C_R   0.545901 0.313105 0.454730 -0.262016
C152  C     C_R   0.454274 0.313463 0.545799 -0.261024
C153  C     C_R   0.024877 0.782204 0.481865 0.077158
C154  C     C_R   0.975200 0.782284 0.518348 0.076026
C155  C     C_R   0.524350 0.282295 0.480793 0.075607
C156  C     C_R   0.475734 0.282458 0.519622 0.075645
C157  C     C_R   0.527527 0.218299 0.488223 0.080820
C158  C     C_R   0.472543 0.218441 0.512311 0.080525
C159  C     C_R   0.027997 0.718200 0.489297 0.076051
C160  C     C_R   0.972081 0.718273 0.510950 0.080677
C161  C     C_R   0.000024 0.813843 0.500067 -0.186792
C162  C     C_R   0.500017 0.313926 0.500114 -0.186765
C163  C     C_3   0.274366 0.061708 0.305804 -0.145794
C164  C     C_3   0.725592 0.061667 0.694103 -0.144633
C165  C     C_3   0.774377 0.561684 0.305910 -0.144672
C166  C     C_3   0.226573 0.561736 0.754943 -0.140780
C167  C     C_R   0.499978 0.186532 0.500131 -0.192838
C168  C     C_R   0.000024 0.686447 0.500086 -0.191320
C169  C     C_1   0.374399 0.000946 0.373269 -0.189561
C170  C     C_1   0.625601 0.000919 0.626733 -0.189702
C171  C     C_1   0.874402 0.500950 0.373258 -0.189856
C172  C     C_1   0.125591 0.500190 0.626534 -0.188470
C173  C     C_3   0.208696 0.001259 0.210118 0.244591
C174  C     C_3   0.791303 0.001302 0.789869 0.244550
C175  C     C_3   0.708703 0.501233 0.210229 0.244292
C176  C     C_3   0.291282 0.500614 0.789701 0.248246
C177  C     C_3   0.274896 0.944626 0.310686 -0.406728
C178  C     C_3   0.725140 0.944577 0.689382 -0.406877
C179  C     C_3   0.774934 0.444599 0.310686 -0.407964
C180  C     C_3   0.224610 0.493592 0.657095 -0.400118
C181  C     C_3   0.291031 0.001738 0.291756 0.253666
C182  C     C_3   0.708968 0.001740 0.708236 0.253751
C183  C     C_3   0.791038 0.501754 0.291777 0.254163
C184  C     C_3   0.208958 0.501073 0.708475 0.253917
H1    H     H_    0.288036 0.943586 0.371660 0.229373
H2    H     H_    0.712009 0.943461 0.628413 0.229209
H3    H     H_    0.788097 0.443526 0.371669 0.228848
H4    H     H_    0.211849 0.530713 0.614293 0.228580
H5    H     H_    0.214805 0.902769 0.224822 0.036251
H6    H     H_    0.785250 0.902793 0.775341 0.036536
H7    H     H_    0.714814 0.402727 0.224823 0.037278
H8    H     H_    0.283782 0.446879 0.698733 0.042129
H9    H     H_    0.286213 0.902114 0.299149 0.111402
H10   H     H_    0.713841 0.902097 0.700956 0.111556
H11   H     H_    0.786253 0.402116 0.299097 0.111689
H12   H     H_    0.212515 0.449778 0.625152 0.121153
H13   H     H_    0.284654 0.037958 0.190922 0.187997
H14   H     H_    0.715309 0.038105 0.809020 0.187929
H15   H     H_    0.784625 0.538055 0.190942 0.187794
H16   H     H_    0.215628 0.449208 0.801852 0.188251
H17   H     H_    0.891438 0.858050 0.082115 0.131177
H18   H     H_    0.108398 0.857661 0.917511 0.131211
H19   H     H_    0.392015 0.357112 0.082845 0.133671
H20   H     H_    0.606369 0.354571 0.915119 0.131551
H21   H     H_    0.066658 0.066022 0.208171 0.189321
H22   H     H_    0.933343 0.066090 0.791888 0.189376
H23   H     H_    0.566387 0.566750 0.207973 0.189693
H24   H     H_    0.435436 0.571003 0.793906 0.187078
H25   H     H_    0.041260 0.099961 0.403998 0.204930
H26   H     H_    0.958790 0.100043 0.596163 0.204826
H27   H     H_    0.540829 0.600305 0.403651 0.204420
H28   H     H_    0.459738 0.600526 0.596298 0.206025
H29   H     H_    0.953103 0.902786 0.313376 0.149090
H30   H     H_    0.046805 0.902681 0.686376 0.149401
H31   H     H_    0.453533 0.402454 0.313910 0.148779
H32   H     H_    0.545300 0.401498 0.684624 0.147550
H33   H     H_    0.902520 0.841526 0.205078 0.135393
H34   H     H_    0.097318 0.841235 0.794520 0.136028
H35   H     H_    0.403213 0.340686 0.205917 0.135838
H36   H     H_    0.594883 0.338357 0.791767 0.135706
H37   H     H_    0.933030 0.932801 0.069079 0.148918
H38   H     H_    0.066875 0.932500 0.930724 0.149029
H39   H     H_    0.433239 0.432263 0.069404 0.150373
H40   H     H_    0.566184 0.430910 0.929681 0.149546
H41   H     H_    0.560331 0.810440 0.753429 0.156882
H42   H     H_    0.439250 0.810074 0.246187 0.157249
H43   H     H_    0.060787 0.310639 0.753675 0.157276
H44   H     H_    0.939779 0.310279 0.246581 0.156904
H45   H     H_    0.957296 0.203889 0.251360 0.162750
H46   H     H_    0.043109 0.204326 0.749008 0.162712
H47   H     H_    0.456299 0.703501 0.250725 0.163185
H48   H     H_    0.542940 0.704042 0.748775 0.162194
H49   H     H_    0.396702 0.195203 0.543755 0.176254
H50   H     H_    0.603744 0.194630 0.457831 0.175504
H51   H     H_    0.894744 0.694711 0.538428 0.175249
H52   H     H_    0.105435 0.694435 0.462095 0.184529
H53   H     H_    0.565353 0.139891 0.496489 0.159054
H54   H     H_    0.434861 0.140156 0.504711 0.159263
H55   H     H_    0.065939 0.639654 0.498428 0.161077
H56   H     H_    0.934164 0.639800 0.501960 0.158313
H57   H     H_    0.042085 0.861250 0.442934 0.141226
H58   H     H_    0.958021 0.861431 0.557280 0.140901
H59   H     H_    0.540949 0.361425 0.440981 0.139742
H60   H     H_    0.459233 0.361815 0.559384 0.139573
H61   H     H_    0.212821 0.101429 0.221486 0.136992
H62   H     H_    0.787121 0.101456 0.778319 0.137201
H63   H     H_    0.712801 0.601396 0.221732 0.137408
H64   H     H_    0.288383 0.567532 0.862191 0.133878
H65   H     H_    0.213879 0.062972 0.295031 0.238566
H66   H     H_    0.786065 0.062832 0.704825 0.238422
H67   H     H_    0.713929 0.562813 0.295281 0.238272
H68   H     H_    0.287379 0.601050 0.786243 0.233813
H69   H     H_    0.283523 0.101037 0.285272 0.093593
H70   H     H_    0.716422 0.101038 0.714607 0.093684
H71   H     H_    0.783496 0.601045 0.285358 0.093756
H72   H     H_    0.217691 0.562589 0.795553 0.092438
H73   H     H_    0.211946 0.958705 0.121610 0.176018
H74   H     H_    0.788095 0.958950 0.878475 0.175943
H75   H     H_    0.711915 0.458820 0.121611 0.176055
H76   H     H_    0.286749 0.402380 0.806930 0.181165
H77   H     H_    0.212863 0.040952 0.121491 0.198539
H78   H     H_    0.787099 0.041198 0.878409 0.198479
H79   H     H_    0.712834 0.541069 0.121620 0.198434
H80   H     H_    0.287166 0.451529 0.873727 0.196381
H81   H     H_    0.283523 0.955726 0.194625 0.186912
H82   H     H_    0.716524 0.955868 0.805435 0.186966
H83   H     H_    0.783487 0.455820 0.194571 0.186994
H84   H     H_    0.214822 0.402277 0.733257 0.184361
O1    O     O_R   0.000000 0.948260 0.091620 -0.620422
O2    O     O_R   1.000000 0.948260 0.908380 -0.620362
O3    O     O_R   0.500000 0.448260 0.091620 -0.620165
O4    O     O_R   0.500000 0.448260 0.908380 -0.619176
O5    O     O_R   0.965320 0.000030 0.373720 -0.617131
O6    O     O_R   0.034680 0.000030 0.626280 -0.617094
O7    O     O_R   0.465320 0.500030 0.373720 -0.616679
O8    O     O_R   0.534680 0.500030 0.626280 -0.616137
O9    O     O_R   0.034670 0.000000 0.443070 -0.651372
O10   O     O_R   0.965330 0.000000 0.556930 -0.651641
O11   O     O_R   0.534670 0.500000 0.443070 -0.651450
O12   O     O_R   0.465330 0.500000 0.556930 -0.651938
O13   O     O_R   0.965330 0.091670 0.465370 -0.622452
O14   O     O_R   0.034670 0.091670 0.534630 -0.622825
O15   O     O_R   0.465330 0.591670 0.465370 -0.623115
O16   O     O_R   0.534670 0.591670 0.534630 -0.622147
O17   O     O_R   0.000000 0.051730 0.091640 -0.630996
O18   O     O_R   1.000000 0.051730 0.908360 -0.631014
O19   O     O_R   0.500000 0.551730 0.091640 -0.631104
O20   O     O_R   0.500000 0.551730 0.908360 -0.631717
O21   O     O_R   0.061430 0.948260 0.061430 -0.624258
O22   O     O_R   0.938570 0.948260 0.938570 -0.624172
O23   O     O_R   0.561430 0.448260 0.061430 -0.624098
O24   O     O_R   0.438570 0.448260 0.938570 -0.619377
O25   O     O_R   0.061430 0.051730 0.061450 -0.621055
O26   O     O_R   0.938570 0.051730 0.938550 -0.621076
O27   O     O_R   0.561430 0.551730 0.061450 -0.621330
O28   O     O_R   0.438570 0.551730 0.938550 -0.619506
O29   O     O_R   0.500000 0.908550 0.551750 -0.589458
O30   O     O_R   0.500000 0.908550 0.448250 -0.589603
O31   O     O_R   0.000000 0.408550 0.551750 -0.588633
O32   O     O_R   1.000000 0.408550 0.448250 -0.590666
O33   O     O_R   0.438570 0.000200 0.490310 -0.628694
O34   O     O_R   0.561430 0.000200 0.509690 -0.628930
O35   O     O_R   0.938570 0.500200 0.490310 -0.628720
O36   O     O_R   0.061430 0.500200 0.509690 -0.630807
O37   O     O_R   0.438570 0.000170 0.386870 -0.605423
O38   O     O_R   0.561430 0.000170 0.613130 -0.605169
O39   O     O_R   0.938570 0.500170 0.386870 -0.605244
O40   O     O_R   0.061430 0.500170 0.613130 -0.607142
O41   O     O_R   0.500000 0.091840 0.551720 -0.628853
O42   O     O_R   0.500000 0.091840 0.448280 -0.628738
O43   O     O_R   0.000000 0.591840 0.551720 -0.628662
O44   O     O_R   1.000000 0.591840 0.448280 -0.629396
O45   O     O_R   0.965310 0.908380 0.465300 -0.632033
O46   O     O_R   0.034690 0.908380 0.534700 -0.630562
O47   O     O_R   0.465310 0.408380 0.465300 -0.632067
O48   O     O_R   0.534690 0.408380 0.534700 -0.631419
Zn1   Zn    Zn3+2 0.000000 0.930910 0.000000 0.949014
Zn2   Zn    Zn3+2 0.500000 0.430910 0.000000 0.956503
Zn3   Zn    Zn3+2 1.000000 0.069090 0.000000 0.923640
Zn4   Zn    Zn3+2 0.500000 0.569090 0.000000 0.924244
Zn5   Zn    Zn3+2 0.500000 0.000200 0.569080 0.971025
Zn6   Zn    Zn3+2 0.500000 0.000200 0.430920 0.970385
Zn7   Zn    Zn3+2 0.000000 0.500200 0.569080 0.970094
Zn8   Zn    Zn3+2 1.000000 0.500200 0.430920 0.965422
Zn9   Zn    Zn3+2 0.953690 0.000030 0.453700 0.922922
Zn10  Zn    Zn3+2 0.046310 0.000030 0.546300 0.925099
Zn11  Zn    Zn3+2 0.453690 0.500030 0.453700 0.921156
Zn12  Zn    Zn3+2 0.546310 0.500030 0.546300 0.923808
O49   O     O_3   0.111884 0.152069 0.302669 -0.643745
C185  C     C_3   0.094295 0.208564 0.265370 0.113086
H85   H     H_    0.120264 0.242478 0.289567 0.171164
H86   H     H_    0.070938 0.227642 0.274726 0.144251
C186  C     C_3   0.074659 0.202405 0.180874 -0.369828
H87   H     H_    0.097990 0.182206 0.172521 0.240888
H88   H     H_    0.046994 0.171509 0.154587 0.229260
C187  C     C_3   0.060403 0.264494 0.141436 -0.967533
H89   H     H_    0.036681 0.285167 0.148397 0.264510
H90   H     H_    0.046022 0.258358 0.080405 0.265904
H91   H     H_    0.087597 0.296080 0.165013 0.266705
O50   O     O_3   0.888292 0.152412 0.697729 -0.644406
C188  C     C_3   0.905993 0.208798 0.735257 0.114359
H92   H     H_    0.880097 0.242856 0.711152 0.172681
H93   H     H_    0.929415 0.227764 0.726034 0.144954
C189  C     C_3   0.925571 0.202490 0.819712 -0.371320
H94   H     H_    0.902171 0.182415 0.827930 0.241041
H95   H     H_    0.953164 0.171431 0.845916 0.229425
C190  C     C_3   0.939959 0.264483 0.859399 -0.964405
H96   H     H_    0.963754 0.285026 0.852582 0.264677
H97   H     H_    0.954290 0.258239 0.920393 0.265343
H98   H     H_    0.912839 0.296231 0.835901 0.267897
O51   O     O_3   0.610843 0.653705 0.301547 -0.644514
C191  C     C_3   0.592710 0.709786 0.263549 0.114559
H99   H     H_    0.618343 0.744240 0.287377 0.172940
H100  H     H_    0.569144 0.728435 0.272620 0.144870
C192  C     C_3   0.573181 0.703096 0.179141 -0.371957
H101  H     H_    0.596722 0.683294 0.171087 0.241079
H102  H     H_    0.545805 0.671658 0.153172 0.229714
C193  C     C_3   0.558359 0.764836 0.138951 -0.962335
H103  H     H_    0.534412 0.785092 0.145582 0.265006
H104  H     H_    0.544085 0.758307 0.078011 0.264970
H105  H     H_    0.585254 0.796962 0.162208 0.268086
O52   O     O_3   0.392220 0.658799 0.701399 -0.646955
C194  C     C_3   0.411416 0.714444 0.739494 0.126106
H106  H     H_    0.386369 0.749825 0.716329 0.176343
H107  H     H_    0.434989 0.731834 0.729785 0.142188
C195  C     C_3   0.431378 0.707837 0.824056 -0.371490
H108  H     H_    0.407803 0.689245 0.832712 0.246174
H109  H     H_    0.458227 0.675426 0.849343 0.227686
C196  C     C_3   0.447386 0.769336 0.864490 -0.960652
H110  H     H_    0.471379 0.788375 0.857247 0.263848
H111  H     H_    0.461946 0.762863 0.925533 0.265088
H112  H     H_    0.421047 0.802443 0.841924 0.270751
O53   O     O_3   0.096520 0.172448 0.413360 -0.647761
C197  C     C_3   0.136378 0.150767 0.473207 0.125007
H113  H     H_    0.157243 0.191308 0.499500 0.171228
H114  H     H_    0.151578 0.120148 0.454042 0.155835
C198  C     C_3   0.133492 0.118440 0.532988 -0.392335
H115  H     H_    0.117575 0.149005 0.550421 0.236956
H116  H     H_    0.114823 0.075676 0.509285 0.227766
C199  C     C_3   0.176913 0.101621 0.601911 -0.953229
H117  H     H_    0.193763 0.072294 0.585367 0.275422
H118  H     H_    0.173680 0.075669 0.642373 0.266192
H119  H     H_    0.195573 0.143734 0.629996 0.266491
O54   O     O_3   0.903759 0.172896 0.587209 -0.646982
C200  C     C_3   0.863786 0.151625 0.527322 0.124785
H120  H     H_    0.843054 0.192358 0.501451 0.169890
H121  H     H_    0.848543 0.120992 0.546345 0.154998
C201  C     C_3   0.866448 0.119525 0.467145 -0.389075
H122  H     H_    0.882378 0.150113 0.449805 0.236894
H123  H     H_    0.885015 0.076622 0.490451 0.227058
C202  C     C_3   0.822924 0.103112 0.398235 -0.962096
H124  H     H_    0.806068 0.073753 0.414691 0.274567
H125  H     H_    0.825986 0.077335 0.357439 0.266787
H126  H     H_    0.804363 0.145394 0.370574 0.264764
O55   O     O_3   0.595355 0.673895 0.412114 -0.646734
C203  C     C_3   0.635512 0.653160 0.471963 0.124905
H127  H     H_    0.655952 0.694183 0.497636 0.170024
H128  H     H_    0.650922 0.622865 0.452929 0.155093
C204  C     C_3   0.633187 0.620824 0.532356 -0.389088
H129  H     H_    0.617123 0.651094 0.549756 0.236872
H130  H     H_    0.614894 0.577693 0.509225 0.226979
C205  C     C_3   0.676867 0.604911 0.601165 -0.962364
H131  H     H_    0.693859 0.575918 0.584631 0.274509
H132  H     H_    0.674065 0.578913 0.642104 0.266920
H133  H     H_    0.695156 0.647409 0.628687 0.264747
O56   O     O_3   0.407118 0.676783 0.589610 -0.644976
C206  C     C_3   0.366042 0.658195 0.531043 0.117127
H134  H     H_    0.347351 0.700449 0.503691 0.171921
H135  H     H_    0.349739 0.632825 0.552014 0.145853
C207  C     C_3   0.366383 0.620188 0.471732 -0.391473
H136  H     H_    0.383508 0.645672 0.452716 0.238782
H137  H     H_    0.382697 0.575882 0.496521 0.224299
C208  C     C_3   0.321908 0.606537 0.403982 -0.973698
H138  H     H_    0.304114 0.581687 0.422016 0.266690
H139  H     H_    0.323233 0.577258 0.363467 0.268294
H140  H     H_    0.305310 0.649843 0.375354 0.265886
O57   O     O_3   0.211869 0.944355 0.309854 -0.610159
C209  C     C_3   0.205597 0.884106 0.325854 0.093920
H141  H     H_    0.211785 0.884614 0.382644 0.188253
H142  H     H_    0.227926 0.850178 0.328481 0.110391
C210  C     C_3   0.160000 0.864328 0.268504 -0.374390
H143  H     H_    0.138667 0.896366 0.271331 0.244031
H144  H     H_    0.152346 0.866257 0.210679 0.215208
C211  C     C_3   0.152462 0.799213 0.283947 -0.885922
H145  H     H_    0.172044 0.766157 0.277692 0.248914
H146  H     H_    0.118911 0.786940 0.243188 0.269870
H147  H     H_    0.160362 0.795784 0.341807 0.305845
O58   O     O_3   0.788179 0.944177 0.690252 -0.610258
C212  C     C_3   0.794466 0.883876 0.674339 0.092315
H148  H     H_    0.788276 0.884273 0.617548 0.186553
H149  H     H_    0.772146 0.850000 0.671764 0.110904
C213  C     C_3   0.840068 0.864105 0.731716 -0.375232
H150  H     H_    0.861391 0.896055 0.728801 0.244080
H151  H     H_    0.847733 0.866186 0.789544 0.215388
C214  C     C_3   0.847611 0.798913 0.716414 -0.881936
H152  H     H_    0.828050 0.765949 0.722786 0.249704
H153  H     H_    0.881169 0.786649 0.757172 0.270344
H154  H     H_    0.839688 0.795323 0.658545 0.304791
O59   O     O_3   0.711908 0.444147 0.309897 -0.610090
C215  C     C_3   0.706455 0.383808 0.326969 0.091292
H155  H     H_    0.712957 0.384576 0.383992 0.185686
H156  H     H_    0.729011 0.350331 0.329606 0.110842
C216  C     C_3   0.661025 0.362934 0.270458 -0.375567
H157  H     H_    0.639518 0.394294 0.273654 0.244482
H158  H     H_    0.652951 0.364947 0.212347 0.215377
C217  C     C_3   0.654459 0.297509 0.286666 -0.876306
H159  H     H_    0.674088 0.265078 0.279758 0.248251
H160  H     H_    0.620977 0.284493 0.246734 0.272219
H161  H     H_    0.662982 0.293943 0.344939 0.303431
O60   O     O_3   0.288126 0.541477 0.681970 -0.607588
C218  C     C_3   0.296473 0.521123 0.629719 0.104401
H162  H     H_    0.292545 0.561096 0.594429 0.184824
H163  H     H_    0.273851 0.485466 0.590461 0.109223
C219  C     C_3   0.341825 0.498131 0.671178 -0.357091
H164  H     H_    0.363262 0.534187 0.710801 0.252030
H165  H     H_    0.346137 0.456499 0.704430 0.210594
C220  C     C_3   0.353502 0.482749 0.616628 -0.924132
H166  H     H_    0.332774 0.445937 0.577272 0.271923
H167  H     H_    0.386523 0.466501 0.648661 0.270235
H168  H     H_    0.350554 0.523986 0.583900 0.253095
O61   O     O_3   0.431587 0.866084 0.350796 -0.641538
C221  C     C_3   0.392121 0.872913 0.280690 0.083217
H169  H     H_    0.370269 0.892008 0.293263 0.171877
H170  H     H_    0.377601 0.828773 0.250995 0.102880
C222  C     C_3   0.395411 0.918038 0.229554 -0.317236
H171  H     H_    0.421067 0.951522 0.264046 0.259660
H172  H     H_    0.402787 0.893092 0.193927 0.182746
C223  C     C_3   0.354669 0.953278 0.177465 -0.976744
H173  H     H_    0.327844 0.921073 0.145192 0.257830
H174  H     H_    0.357144 0.981013 0.137203 0.266445
H175  H     H_    0.349060 0.984934 0.210909 0.272362
O62   O     O_3   0.568408 0.865938 0.649089 -0.641559
C224  C     C_3   0.607856 0.872598 0.719260 0.083140
H176  H     H_    0.629782 0.891522 0.706792 0.171995
H177  H     H_    0.622257 0.828393 0.748884 0.102575
C225  C     C_3   0.604609 0.917815 0.770420 -0.316852
H178  H     H_    0.578872 0.951210 0.735944 0.259696
H179  H     H_    0.597384 0.892910 0.806255 0.182007
C226  C     C_3   0.645308 0.953194 0.822257 -0.978071
H180  H     H_    0.672196 0.921075 0.854528 0.257511
H181  H     H_    0.642865 0.981016 0.862529 0.265865
H182  H     H_    0.650791 0.984781 0.788625 0.272825
O63   O     O_3   0.931642 0.365898 0.350837 -0.641378
C227  C     C_3   0.892189 0.372514 0.280668 0.083988
H183  H     H_    0.870250 0.391449 0.293131 0.171917
H184  H     H_    0.877819 0.328294 0.251049 0.102682
C228  C     C_3   0.895407 0.417704 0.229504 -0.317827
H185  H     H_    0.921078 0.451176 0.263978 0.259370
H186  H     H_    0.902716 0.392792 0.193761 0.181727
C229  C     C_3   0.854657 0.452966 0.177558 -0.978705
H187  H     H_    0.827822 0.420774 0.145313 0.257701
H188  H     H_    0.857080 0.480748 0.137266 0.265481
H189  H     H_    0.849101 0.484582 0.211107 0.272855
O64   O     O_3   0.068505 0.366153 0.649211 -0.641672
C230  C     C_3   0.108416 0.372117 0.718679 0.081337
H190  H     H_    0.130063 0.390486 0.705269 0.171669
H191  H     H_    0.122601 0.327719 0.747962 0.105157
C231  C     C_3   0.106323 0.417647 0.770853 -0.314070
H192  H     H_    0.081807 0.452812 0.737186 0.259498
H193  H     H_    0.097918 0.393415 0.805396 0.183122
C232  C     C_3   0.148100 0.450120 0.824305 -0.986415
H194  H     H_    0.173873 0.416129 0.855629 0.259335
H195  H     H_    0.146358 0.477921 0.865385 0.265789
H196  H     H_    0.154863 0.481491 0.792197 0.268248
O65   O     O_3   0.960101 0.125551 0.347834 -0.656702
C233  C     C_3   0.917904 0.114036 0.285384 0.137066
H197  H     H_    0.914918 0.064884 0.270119 0.177550
H198  H     H_    0.909268 0.138219 0.233281 0.111544
C234  C     C_3   0.885891 0.128257 0.303689 -0.352485
H199  H     H_    0.890983 0.096844 0.348481 0.242712
H200  H     H_    0.889668 0.176242 0.323941 0.211283
C235  C     C_3   0.841024 0.120043 0.234422 -1.000847
H201  H     H_    0.834902 0.151126 0.188545 0.266970
H202  H     H_    0.818563 0.131435 0.248808 0.272763
H203  H     H_    0.835753 0.071799 0.214421 0.266392
O66   O     O_3   0.039910 0.125677 0.652312 -0.656976
C236  C     C_3   0.082066 0.113885 0.714765 0.136739
H204  H     H_    0.084857 0.064795 0.730133 0.177542
H205  H     H_    0.090836 0.138264 0.766852 0.111506
C237  C     C_3   0.114109 0.127449 0.696379 -0.352964
H206  H     H_    0.108932 0.095717 0.651753 0.242865
H207  H     H_    0.110449 0.175313 0.675873 0.211334
C238  C     C_3   0.158956 0.119147 0.765682 -0.996886
H208  H     H_    0.165171 0.150556 0.811390 0.266955
H209  H     H_    0.181444 0.130036 0.751224 0.273552
H210  H     H_    0.164095 0.071005 0.785952 0.266608
O67   O     O_3   0.459581 0.625420 0.347625 -0.656141
C239  C     C_3   0.417214 0.613773 0.285920 0.136059
H211  H     H_    0.414488 0.564978 0.269364 0.175770
H212  H     H_    0.407659 0.639251 0.234050 0.111753
C240  C     C_3   0.385895 0.625700 0.306434 -0.346108
H213  H     H_    0.391314 0.592353 0.349835 0.242055
H214  H     H_    0.390071 0.672815 0.329302 0.211890
C241  C     C_3   0.340708 0.618841 0.237771 -1.004519
H215  H     H_    0.334042 0.652216 0.193470 0.267216
H216  H     H_    0.318803 0.627940 0.254052 0.272795
H217  H     H_    0.335206 0.571542 0.214829 0.266047
O68   O     O_3   0.540120 0.625642 0.652242 -0.656798
C242  C     C_3   0.582322 0.614142 0.714660 0.137093
H218  H     H_    0.585372 0.564928 0.729662 0.177898
H219  H     H_    0.590881 0.638130 0.766847 0.111440
C243  C     C_3   0.614338 0.628705 0.696480 -0.353730
H220  H     H_    0.609211 0.597633 0.651362 0.242720
H221  H     H_    0.610594 0.676832 0.676708 0.211075
C244  C     C_3   0.659201 0.620206 0.765660 -1.000508
H222  H     H_    0.665333 0.650916 0.811864 0.266912
H223  H     H_    0.681669 0.631901 0.751402 0.272632
H224  H     H_    0.664454 0.571822 0.785148 0.266247
C245  C     C_2   0.098703 0.815727 0.424029 0.390617
H225  H     H_    0.092756 0.864270 0.410841 0.063913
O69   O     O_2   0.124612 0.789997 0.418157 -0.585368
C246  C     C_2   0.901503 0.816048 0.576461 0.380718
H226  H     H_    0.907448 0.864600 0.589604 0.066079
O70   O     O_2   0.875641 0.790379 0.582466 -0.592015
C247  C     C_2   0.596439 0.315868 0.419168 0.381702
H227  H     H_    0.590462 0.364441 0.406216 0.066035
O71   O     O_2   0.621777 0.290087 0.411791 -0.591810
C248  C     C_2   0.404032 0.316632 0.582066 0.381653
H228  H     H_    0.409768 0.365353 0.594188 0.060766
O72   O     O_2   0.379146 0.290920 0.590672 -0.569906
C249  C     C_2   0.293842 0.074111 0.388315 0.405518
H229  H     H_    0.318718 0.107898 0.417824 0.054720
O73   O     O_2   0.282949 0.045710 0.422969 -0.538067
C250  C     C_2   0.706093 0.073974 0.611574 0.404081
H230  H     H_    0.681208 0.107762 0.582049 0.054498
O74   O     O_2   0.716982 0.045496 0.576926 -0.540202
C251  C     C_2   0.793895 0.574056 0.388443 0.404585
H231  H     H_    0.818742 0.607889 0.417915 0.054602
O75   O     O_2   0.783066 0.545582 0.423150 -0.540609
C252  C     C_2   0.207714 0.619018 0.707345 0.387528
H232  H     H_    0.183261 0.643525 0.706924 0.054092
O76   O     O_2   0.218603 0.637326 0.667740 -0.536143

loop_
_geom_bond_atom_site_label_1
_geom_bond_atom_site_label_2
_ccdc_geom_bond_type
C10   C174  S    
C202  H126  S    
C128  C166  S    
C251  H231  S    
C5    H81   S    
C55   C59   A    
C126  H62   S    
C220  H166  S    
C154  C161  A    
C230  H190  S    
C164  C250  S    
C14   C170  T    
C47   O23   A    
C225  H179  S    
C179  H11   S    
C186  H87   S    
C53   C99   S    
C224  C225  S    
C177  H9    S    
C199  H118  S    
C203  H128  S    
C152  H60   S    
C26   C50   A    
C243  H220  S    
C221  H170  S    
C60   C72   A    
C252  O76   D    
C86   O31   A    
C90   C176  S    
C140  H56   S    
C244  H224  S    
C193  H105  S    
C204  H130  S    
C206  C207  S    
C149  C153  A    
C64   C84   A    
C198  C199  S    
C217  H161  S    
C94   C172  S    
C146  C150  A    
C240  H213  S    
C92   C170  S    
C239  H211  S    
C249  O73   D    
C70   C74   A    
C96   C168  S    
C151  C155  A    
C119  O67   S    
C209  H142  S    
C126  C174  S    
C196  H112  S    
C83   H39   S    
C93   O39   A    
C139  C159  A    
C208  H139  S    
C145  C245  S    
C26   H22   S    
C41   C49   A    
C98   C162  S    
C17   C173  S    
C158  C167  A    
C155  C162  A    
C25   C29   A    
C185  H85   S    
C123  C134  A    
C27   C31   A    
C70   H30   S    
C28   C32   A    
C166  C184  S    
O50   C188  S    
C234  H200  S    
C30   C34   A    
C58   C70   A    
O29   Zn5   S    
C233  H197  S    
O2    Zn1   S    
C17   C21   T    
C10   H78   S    
C153  C161  A    
C11   H75   S    
C19   C23   T    
C95   O42   A    
C33   O53   S    
C87   C177  S    
C78   C82   A    
C192  H101  S    
C75   H35   S    
C127  C165  S    
C235  H201  S    
C231  H192  S    
C124  C130  A    
C111  C113  A    
C178  C182  S    
C34   O54   S    
C213  H150  S    
O14   Zn10  S    
C220  H168  S    
C229  H187  S    
C110  C116  A    
C186  C187  S    
C106  C130  A    
C248  H228  S    
C217  H160  S    
C144  H51   S    
O19   Zn4   S    
C148  C248  S    
O66   C236  S    
O43   Zn7   S    
C16   C184  S    
C57   C61   A    
C82   H38   S    
C119  C123  A    
O17   Zn3   S    
C59   C63   A    
O28   Zn4   S    
C7    C183  S    
O9    Zn10  S    
C60   C64   A    
C125  H65   S    
C4    O4    A    
C245  O69   D    
C247  H227  S    
C236  H204  S    
C2    O2    A    
C239  C240  S    
C187  H89   S    
C156  C158  A    
C160  C168  A    
C137  H53   S    
C216  H158  S    
C141  C147  A    
C96   O43   A    
C151  H59   S    
C178  H2    S    
C61   C65   A    
O1    Zn1   S    
C237  H207  S    
C100  O6    A    
C73   C77   A    
C241  H215  S    
C193  H104  S    
O45   Zn9   S    
C166  C252  S    
C75   C79   A    
C104  O16   A    
C180  C184  S    
C199  H117  S    
C214  H153  S    
O6    Zn10  S    
C210  H143  S    
C29   C33   A    
C163  C181  S    
O51   C191  S    
C90   O60   S    
C222  C223  S    
C112  C114  A    
C90   H8    S    
C212  H148  S    
C104  C134  S    
C6    C182  S    
C64   C68   A    
C240  H214  S    
C108  O64   S    
C104  O15   A    
C238  H210  S    
C1    O1    A    
O52   C194  S    
C204  H129  S    
C191  C192  S    
C91   C169  S    
C88   C174  S    
C12   H80   S    
C197  H113  S    
C129  C135  A    
C139  C143  A    
C213  C214  S    
C85   O29   A    
C201  H122  S    
C241  H217  S    
C6    H82   S    
C1    C65   S    
C9    C173  S    
C219  H164  S    
C47   O27   A    
O10   Zn9   S    
C48   O28   A    
C132  C136  A    
C12   C176  S    
C218  C219  S    
C44   C52   A    
C246  O70   D    
C232  H194  S    
C116  H48   S    
C242  C243  S    
O4    Zn2   S    
C187  H91   S    
C31   O51   S    
C45   O25   A    
C227  H183  S    
O25   Zn3   S    
C27   C51   A    
C222  H171  S    
C21   C45   S    
C188  H93   S    
C90   C180  S    
C23   C47   S    
C62   C66   A    
C39   H27   S    
C24   C48   S    
C152  C156  A    
O62   C224  S    
C131  C136  A    
C4    C68   S    
C5    H13   S    
O36   Zn8   S    
C116  C120  A    
C241  H216  S    
C191  H100  S    
C197  C198  S    
C143  H52   S    
C147  C151  A    
C5    C9    S    
C88   O58   S    
C209  C210  S    
C50   C66   A    
C138  C158  A    
O63   C227  S    
C8    C12   S    
C74   H34   S    
C219  C220  S    
C51   C67   A    
C38   H26   S    
C7    H83   S    
C195  C196  S    
C41   C53   A    
C207  H136  S    
C42   C50   A    
C199  H119  S    
C113  C117  A    
C18   C174  S    
C43   C55   A    
C211  H145  S    
C192  H102  S    
C26   C30   A    
C210  C211  S    
C13   C181  S    
C105  C129  A    
C97   O46   A    
C194  C195  S    
O32   Zn8   S    
C29   O49   S    
C91   O37   A    
O58   C212  S    
C205  H131  S    
C212  C213  S    
C202  H125  S    
C105  C109  A    
C45   O21   A    
C243  C244  S    
C35   O55   S    
C18   C22   T    
C107  C111  A    
O11   Zn12  S    
C164  H70   S    
C76   C80   A    
C223  H174  S    
C2    C66   S    
C77   H17   S    
C219  H165  S    
C238  H208  S    
C88   C178  S    
C224  H177  S    
C97   C161  S    
C137  C157  A    
C56   C102  S    
C32   O52   S    
C140  C160  A    
C190  H98   S    
C243  H221  S    
C99   O9    A    
C221  C222  S    
C20   C176  S    
C92   O38   A    
C201  C202  S    
C177  C181  S    
C222  H172  S    
C230  C231  S    
O39   Zn8   S    
C206  H135  S    
C37   C41   A    
C19   C175  S    
C198  H116  S    
C8    H16   S    
C218  H162  S    
C40   C44   A    
C118  O66   S    
C223  H173  S    
C91   O33   A    
C239  H212  S    
C249  H229  S    
C232  H196  S    
C242  H218  S    
O30   Zn6   S    
C94   O40   A    
C46   O26   A    
C200  H121  S    
C227  C228  S    
O12   Zn11  S    
O47   Zn11  S    
C196  H111  S    
C163  C249  S    
C208  H138  S    
C9    H73   S    
C155  C157  A    
C235  H202  S    
C125  H61   S    
C226  H180  S    
C80   C84   A    
C157  C167  A    
C1    O17   A    
C226  H182  S    
O16   Zn12  S    
C3    O19   A    
C178  H10   S    
O68   C242  S    
C185  H86   S    
C111  H44   S    
C87   O57   S    
C196  H110  S    
C54   C58   A    
C234  H199  S    
O24   Zn2   S    
C179  H3    S    
O48   Zn12  S    
C233  H198  S    
C177  H1    S    
C215  H155  S    
O35   Zn7   S    
C163  H69   S    
C149  H57   S    
C195  H108  S    
C95   O41   A    
C180  H4    S    
C14   C182  S    
C211  H147  S    
C185  C186  S    
C15   C183  S    
C231  H193  S    
C194  H106  S    
C69   C73   A    
C98   O47   A    
C103  O14   A    
C72   C76   A    
C92   O34   A    
C233  C234  S    
C213  H151  S    
C62   C82   A    
C112  H43   S    
C34   C38   A    
C127  C175  S    
C220  H167  S    
C36   O56   S    
C209  H141  S    
C229  H188  S    
C25   H21   S    
C5    C181  S    
C225  H178  S    
C186  H88   S    
C30   O50   S    
C87   C173  S    
C248  O72   D    
C128  C176  S    
C231  C232  S    
O37   Zn6   S    
C148  C152  A    
C69   H29   S    
C203  H127  S    
O20   Zn4   S    
C187  H90   S    
C138  C142  A    
C190  H96   S    
C53   C57   A    
C221  H169  S    
O46   Zn10  S    
C252  H232  S    
O61   C221  S    
O22   Zn1   S    
C33   C37   A    
C56   C60   A    
C115  C119  A    
C95   C167  S    
C250  O74   D    
C229  H189  S    
C165  C183  S    
C35   C39   A    
O59   C215  S    
C245  H225  S    
C48   O24   A    
C44   C56   A    
C189  C190  S    
C77   C81   A    
C109  H42   S    
C15   C171  T    
C4    O20   A    
C113  H45   S    
C96   O44   A    
C144  C146  A    
C22   C46   S    
C130  C135  A    
C208  H140  S    
C251  O75   D    
C84   H40   S    
C31   C35   A    
O13   Zn9   S    
C89   C175  S    
C165  C251  S    
C32   C36   A    
O15   Zn11  S    
C127  H67   S    
C236  H205  S    
C200  H120  S    
C137  C141  A    
C93   C171  S    
C234  C235  S    
C100  O10   A    
C101  O11   A    
C140  C144  A    
C102  O12   A    
C6    C10   S    
C236  C237  S    
O55   C203  S    
C38   C42   A    
O42   Zn6   S    
C124  C134  A    
C81   H37   S    
C40   H28   S    
C11   C175  S    
C215  C216  S    
C126  H66   S    
O44   Zn8   S    
C42   C54   A    
C79   C83   A    
C238  H209  S    
C43   C51   A    
C80   H20   S    
C76   H36   S    
C180  H12   S    
C228  C229  S    
C197  H114  S    
C164  C182  S    
C108  C112  A    
C150  H58   S    
C201  H123  S    
C74   C78   A    
C63   C83   A    
C146  C246  S    
O56   C206  S    
O8    Zn12  S    
C61   C81   A    
C165  H71   S    
C225  C226  S    
C145  C149  A    
C218  H163  S    
C204  C205  S    
C58   C62   A    
C235  H203  S    
O5    Zn9   S    
C217  H159  S    
C242  H219  S    
O49   C185  S    
O7    Zn11  S    
C203  C204  S    
C8    H84   S    
C125  C173  S    
O54   C200  S    
C227  H184  S    
O57   C209  S    
C99   O5    A    
C3    O3    A    
C202  H124  S    
C188  H92   S    
C7    C11   S    
O27   Zn4   S    
O65   C233  S    
C128  H68   S    
C49   C65   A    
C147  C247  S    
O34   Zn6   S    
C118  C122  A    
C71   H31   S    
C205  H132  S    
O67   C239  S    
C159  C168  A    
C46   O22   A    
C117  C121  A    
C216  C217  S    
C244  H223  S    
C20   C24   T    
C141  H50   S    
C9    H77   S    
C166  H72   S    
C206  H134  S    
C223  H175  S    
C11   H79   S    
O23   Zn2   S    
C106  O62   S    
C115  H47   S    
C52   C68   A    
C2    O18   A    
C200  C201  S    
C25   C49   A    
C8    C184  S    
C211  H146  S    
O60   C218  S    
C156  C162  A    
C210  H144  S    
C191  H99   S    
C97   O45   A    
C194  H107  S    
C54   C100  S    
C125  C163  S    
C121  C131  A    
C126  C164  S    
C122  C132  A    
C179  C183  S    
C212  H149  S    
C102  O8    A    
C63   C67   A    
C108  C132  A    
C139  H55   S    
C128  H64   S    
C142  C148  A    
C36   C40   A    
C240  C241  S    
C207  C208  S    
C228  H186  S    
C6    H14   S    
C237  H206  S    
C39   C43   A    
C224  H176  S    
C153  C159  A    
C122  C133  A    
C154  C160  A    
C190  H97   S    
C205  H133  S    
C16   C172  T    
C85   O30   A    
C10   H74   S    
C244  H222  S    
C89   H7    S    
C73   H33   S    
C230  H191  S    
C189  H94   S    
C105  O61   S    
C247  O71   D    
C37   H25   S    
C198  H115  S    
C114  C118  A    
O40   Zn7   S    
C85   C135  S    
C89   O59   S    
C86   C136  S    
C246  H226  S    
C142  H49   S    
C189  H95   S    
C79   H19   S    
C232  H195  S    
O33   Zn5   S    
O21   Zn1   S    
C228  H185  S    
O41   Zn5   S    
C250  H230  S    
O26   Zn3   S    
C106  C110  A    
C188  C189  S    
C143  C145  A    
O64   C230  S    
C72   H32   S    
C88   H6    S    
C207  H137  S    
C93   O35   A    
C3    C67   S    
C78   H18   S    
C94   O36   A    
C110  H41   S    
C107  O63   S    
C114  H46   S    
C226  H181  S    
C55   C101  S    
C87   H5    S    
C121  C133  A    
C214  H154  S    
C107  C131  A    
C120  O68   S    
C103  C133  S    
C216  H157  S    
O53   C197  S    
C71   C75   A    
C28   C52   A    
C237  C238  S    
C28   H24   S    
C13   C169  T    
O3    Zn2   S    
C215  H156  S    
C138  H54   S    
C27   H23   S    
C89   C179  S    
C7    H15   S    
C193  H103  S    
O38   Zn5   S    
C195  H109  S    
C109  C115  A    
C214  H152  S    
C86   O32   A    
C192  C193  S    
C127  H63   S    
O31   Zn7   S    
C150  C154  A    
C117  O65   S    
C101  O7    A    
C98   O48   A    
C12   H76   S    
C57   C69   A    
O18   Zn3   S    
C103  O13   A    
C123  C129  A    
C120  C124  A    
C59   C71   A    
