data_mof_unit_57349.cif
_audit_creation_date              2012-12-10T17:57:27-0500
_audit_creation_method            fapswitch 2.2
_symmetry_space_group_name_H-M    P1
_symmetry_Int_Tables_number       1
_space_group_crystal_system       triclinic
_cell_length_a                    9.505604
_cell_length_b                    10.845719
_cell_length_c                    13.410771
_cell_angle_alpha                 90.182181
_cell_angle_beta                  73.019469
_cell_angle_gamma                 90.490033
_cell_volume                      1322.2611067

loop_
_atom_site_label
_atom_site_type_symbol
_atom_type_description
_atom_site_fract_x
_atom_site_fract_y
_atom_site_fract_z
_atom_type_partial_charge
C1    C     C_R   0.500342 0.737755 0.500502 0.810879
C2    C     C_R   0.427666 0.455898 0.981527 0.028871
C3    C     C_R   0.469859 0.440764 0.871771 -0.007332
C4    C     C_R   0.538170 0.445460 0.033274 0.057107
C5    C     C_R   0.677089 0.393543 0.980638 0.082908
C6    C     C_R   0.705831 0.356890 0.876271 0.218031
C7    C     C_R   0.603712 0.381013 0.823029 -0.202038
C8    C     C_R   0.518391 0.494077 0.133292 -0.165309
C9    C     C_R   0.755215 0.418672 0.136795 -0.201624
C10   C     C_R   0.374334 0.482013 0.814825 -0.078159
C11   C     C_R   0.631926 0.937581 0.477596 -0.163084
C12   C     C_R   0.421868 0.493066 0.700170 0.803032
C13   C     C_R   0.629507 0.065154 0.478430 -0.195691
C14   C     C_R   0.494869 0.127703 0.505046 -0.096776
C15   C     C_R   0.361092 0.059986 0.532860 0.275660
C16   C     C_R   0.365219 0.932520 0.530670 -0.193087
C17   C     C_R   0.499679 0.871147 0.502725 -0.080473
C18   C     C_R   0.902644 0.584261 0.557634 -0.001947
C19   C     C_R   0.051557 0.584196 0.557643 0.004661
C20   C     C_R   0.096803 0.414691 0.443619 0.104019
C21   C     C_R   0.948020 0.414938 0.443343 0.044135
C22   C     C_R   0.497984 0.261900 0.502412 0.820843
C23   C     C_R   0.578121 0.497191 0.299858 0.806453
C24   C     C_R   0.784110 0.380515 0.033621 -0.150774
C25   C     C_R   0.621384 0.474620 0.187310 -0.064276
C26   C     C_R   0.231179 0.518524 0.868868 -0.201249
C27   C     C_R   0.181504 0.511828 0.976631 -0.151132
C28   C     C_R   0.276377 0.478321 0.033624 0.255719
Cu1   Cu    Cu3+1 0.359340 0.499980 0.500000 1.003331
Cu2   Cu    Cu3+1 0.640660 0.500020 0.500000 0.965354
H1    H     H_    0.836236 0.402167 0.177561 0.191906
H2    H     H_    0.733452 0.114728 0.456952 0.175364
H3    H     H_    0.262376 0.881288 0.552227 0.173877
H4    H     H_    0.828110 0.651644 0.603872 0.132916
H5    H     H_    0.089335 0.651521 0.603916 0.121349
H6    H     H_    0.170960 0.346389 0.398427 0.164695
H7    H     H_    0.910083 0.347118 0.397559 0.135386
H8    H     H_    0.889832 0.339443 0.996732 0.197570
H9    H     H_    0.424066 0.549964 0.169942 0.190388
H10   H     H_    0.155285 0.548831 0.827569 0.179162
H11   H     H_    0.067052 0.530695 0.016083 0.173764
H12   H     H_    0.629525 0.347841 0.743867 0.203686
H13   H     H_    0.736992 0.891138 0.455901 0.167558
N1    N     N_R   0.147940 0.499970 0.499970 -0.168327
N2    N     N_R   0.852060 0.500060 0.499990 -0.175451
O1    O     O_R   0.381250 0.680340 0.500010 -0.593672
O2    O     O_R   0.618820 0.680370 0.500010 -0.587093
O3    O     O_R   0.323240 0.499950 0.650980 -0.563377
O4    O     O_R   0.560810 0.499980 0.650980 -0.591896
O5    O     O_R   0.381180 0.319630 0.499990 -0.541735
O6    O     O_R   0.618750 0.319660 0.499990 -0.600978
O7    O     O_R   0.439190 0.500020 0.349020 -0.568411
O8    O     O_R   0.676760 0.500050 0.349020 -0.578659
Br1   Br    Br    0.167897 0.130831 0.578695 -0.466630
Br2   Br    Br    0.886535 0.280147 0.799235 -0.474834
Br3   Br    Br    0.179561 0.433281 0.175770 -0.624611

loop_
_geom_bond_atom_site_label_1
_geom_bond_atom_site_label_2
_ccdc_geom_bond_type
C24   H8    S    
Cu2   O6    S    
C15   Br1   S    
C9    C24   A    
C11   H13   S    
C6    C7    A    
C8    H9    S    
C16   H3    S    
C11   C13   A    
C4    C8    A    
C27   H11   S    
C13   H2    S    
C1    C17   S    
C2    C3    A    
C12   O3    A    
Cu1   O1    S    
C22   O5    A    
C10   C26   A    
C12   O4    A    
C28   Br3   S    
C9    C25   A    
C3    C10   A    
C19   H5    S    
C13   C14   A    
C19   N1    A    
C8    C25   A    
C18   H4    S    
C26   H10   S    
C23   O7    A    
Cu1   Cu2   S    
C5    C24   A    
C10   C12   S    
C6    Br2   S    
C2    C4    A    
C1    O2    A    
C20   N1    A    
Cu2   O4    S    
C23   O8    A    
C3    C7    A    
Cu1   O5    S    
C23   C25   S    
Cu1   N1    S    
C26   C27   A    
C5    C6    A    
Cu2   O8    S    
C1    O1    A    
C22   O6    A    
C9    H1    S    
Cu1   O3    S    
C15   C16   A    
C20   H6    S    
C18   N2    A    
Cu2   O2    S    
C21   H7    S    
C20   C21   A    
C14   C22   S    
C18   C19   A    
C7    H12   S    
C27   C28   A    
C14   C15   A    
C4    C5    A    
C2    C28   A    
Cu2   N2    S    
C11   C17   A    
C16   C17   A    
C21   N2    A    
Cu1   O7    S    
