data_mof_unit_22197.cif
_audit_creation_date              2012-10-26T19:04:43-0400
_audit_creation_method            fapswitch 2.2
_symmetry_space_group_name_H-M    P1
_symmetry_Int_Tables_number       1
_space_group_crystal_system       triclinic
_cell_length_a                    9.618542
_cell_length_b                    10.861765
_cell_length_c                    13.552524
_cell_angle_alpha                 94.299957
_cell_angle_beta                  74.442801
_cell_angle_gamma                 90.565017
_cell_volume                      1360.10045744

loop_
_atom_site_label
_atom_site_type_symbol
_atom_type_description
_atom_site_fract_x
_atom_site_fract_y
_atom_site_fract_z
_atom_type_partial_charge
C1    C     C_R   0.502489 0.736591 0.491520 0.561019
C2    C     C_R   0.386973 0.494887 0.811710 0.001578
C3    C     C_R   0.254279 0.878805 0.454047 -0.102714
C4    C     C_R   0.424831 0.495339 0.698870 0.549520
C5    C     C_R   0.121024 0.939076 0.476767 -0.111389
C6    C     C_R   0.102835 0.054754 0.529744 -0.105775
C7    C     C_R   0.221868 0.115925 0.549175 -0.098260
C8    C     C_R   0.361732 0.061655 0.514966 0.022779
C9    C     C_R   0.372652 0.934880 0.483092 0.025064
C10   C     C_R   0.501525 0.870254 0.481366 -0.012518
C11   C     C_R   0.626082 0.936653 0.483028 -0.145736
C12   C     C_R   0.454949 0.495309 0.973255 0.030947
C13   C     C_R   0.622085 0.064180 0.493545 -0.162539
C14   C     C_R   0.491147 0.128357 0.509884 -0.009901
C15   C     C_R   0.901375 0.324055 0.371195 -0.093000
C16   C     C_R   0.496565 0.262845 0.505852 0.522165
C17   C     C_R   0.991299 0.228344 0.317718 -0.180283
C18   C     C_R   0.131980 0.223323 0.323349 -0.171301
C19   C     C_R   0.184216 0.316670 0.379104 -0.098741
C20   C     C_R   0.095077 0.410684 0.439785 0.135665
C21   C     C_R   0.946878 0.412402 0.437885 0.130083
C22   C     C_R   0.906665 0.584990 0.559122 0.148543
C23   C     C_R   0.491931 0.470952 0.865419 0.030491
C24   C     C_R   0.054627 0.584856 0.557838 -0.018864
C25   C     C_R   0.577010 0.494448 0.300423 0.522178
C26   C     C_R   0.811689 0.473467 0.026132 -0.144139
C27   C     C_R   0.622766 0.482917 0.186856 0.001033
C28   C     C_R   0.247602 0.535150 0.867434 -0.140215
C29   C     C_R   0.213363 0.558659 0.973424 -0.152735
C30   C     C_R   0.316013 0.540365 0.025958 -0.120426
C31   C     C_2   0.815900 0.683314 0.625286 0.602116
C32   C     C_3   0.413011 0.352634 0.164701 -0.268074
C33   C     C_3   0.410263 0.249020 0.081415 -0.437908
C34   C     C_R   0.559903 0.477202 0.026268 0.049617
C35   C     C_R   0.706331 0.464672 0.972087 0.035005
C36   C     C_R   0.741974 0.433224 0.866885 -0.114989
C37   C     C_R   0.633263 0.424437 0.816393 -0.077509
C38   C     C_R   0.522334 0.453305 0.130056 -0.001161
C39   C     C_R   0.769419 0.492905 0.133234 -0.151767
Cu1   Cu    Cu3+1 0.359340 0.500010 0.500010 0.904422
Cu2   Cu    Cu3+1 0.640660 0.499990 0.499990 0.958594
H1    H     H_    0.851642 0.507443 0.173920 0.133423
H2    H     H_    0.296329 0.315306 0.368903 0.181367
H3    H     H_    0.852117 0.409063 0.824863 0.109193
H4    H     H_    0.094527 0.653974 0.604991 0.136516
H5    H     H_    0.924972 0.466457 0.985708 0.110200
H6    H     H_    0.166537 0.554944 0.828498 0.133800
H7    H     H_    0.287529 0.565453 0.107739 0.115340
H8    H     H_    0.108223 0.595658 0.014954 0.115343
H9    H     H_    0.664288 0.382373 0.739049 0.156222
H10   H     H_    0.727783 0.890108 0.474684 0.180686
H11   H     H_    0.673369 0.734445 0.760496 0.333555
H12   H     H_    0.263868 0.790469 0.410408 0.146113
H13   H     H_    0.350330 0.278211 0.027607 0.162204
H14   H     H_    0.521755 0.220118 0.038085 0.160832
H15   H     H_    0.354555 0.167174 0.117220 0.128868
H16   H     H_    0.445992 0.304469 0.223975 0.137232
H17   H     H_    0.303926 0.394098 0.195974 0.157871
H18   H     H_    0.031208 0.894791 0.455088 0.144994
H19   H     H_    0.997504 0.099023 0.552690 0.126056
H20   H     H_    0.201594 0.204416 0.592576 0.149415
H21   H     H_    0.722395 0.112389 0.489387 0.141463
H22   H     H_    0.798138 0.325217 0.356752 0.183542
H23   H     H_    0.952371 0.159354 0.269948 0.119388
H24   H     H_    0.202951 0.149609 0.280924 0.124626
N1    N     N_R   0.852480 0.498790 0.499000 -0.277090
N2    N     N_R   0.148360 0.498710 0.498970 -0.269557
O1    O     O_R   0.381190 0.680360 0.500010 -0.513073
O2    O     O_R   0.727136 0.658439 0.721144 -0.687903
O3    O     O_R   0.618760 0.680340 0.500000 -0.471234
O4    O     O_R   0.323240 0.499990 0.650990 -0.509809
O5    O     O_R   0.560820 0.499960 0.650980 -0.468592
O6    O     O_R   0.381240 0.319660 0.500000 -0.538145
O7    O     O_R   0.618810 0.319640 0.499990 -0.535445
O8    O     O_R   0.439180 0.500040 0.349020 -0.520618
O9    O     O_R   0.676760 0.500010 0.349010 -0.530942
O10   O     O_2   0.829191 0.789315 0.600217 -0.576719

loop_
_geom_bond_atom_site_label_1
_geom_bond_atom_site_label_2
_ccdc_geom_bond_type
C33   H14   S    
C28   H6    S    
Cu1   O4    S    
C21   N1    A    
C11   C13   A    
C20   N2    A    
C19   C20   A    
C32   H17   S    
C7    C8    A    
C29   H8    S    
C18   H24   S    
C12   C23   A    
C16   O7    A    
C24   H4    S    
C30   H7    S    
C28   C29   A    
C34   C35   A    
C17   H23   S    
C5    C6    A    
C26   C39   A    
C27   C38   A    
C1    O1    A    
Cu1   O6    S    
C18   C19   A    
C7    H20   S    
H11   O2    S    
C24   N2    A    
Cu2   O7    S    
C22   N1    A    
C13   H21   S    
C35   C36   A    
C27   C39   A    
C8    C9    A    
Cu1   N2    S    
C32   C38   S    
C9    C10   A    
C33   H15   S    
C13   C14   A    
C32   H16   S    
C19   H2    S    
C31   O10   D    
C39   H1    S    
C22   C31   S    
C5    H18   S    
C16   O6    A    
C6    H19   S    
C23   C37   A    
C25   O8    A    
C2    C4    S    
C29   C30   A    
C3    C9    A    
C15   C21   A    
C17   C18   A    
Cu2   N1    S    
Cu2   O5    S    
Cu1   Cu2   S    
C14   C16   S    
C36   H3    S    
C12   C34   A    
C4    O5    A    
C33   H13   S    
C15   C17   A    
C36   C37   A    
C8    C14   A    
C12   C30   A    
C34   C38   A    
C1    C10   S    
C3    C5    A    
C6    C7    A    
C25   C27   S    
C1    O3    A    
Cu1   O8    S    
C25   O9    A    
C32   C33   S    
Cu2   O9    S    
C37   H9    S    
C3    H12   S    
C22   C24   A    
C11   H10   S    
C10   C11   A    
C26   H5    S    
C26   C35   A    
C31   O2    S    
C20   C21   A    
Cu1   O1    S    
C2    C23   A    
C15   H22   S    
C2    C28   A    
C4    O4    A    
Cu2   O3    S    
