data_mof_unit_20602.cif
_audit_creation_date              2012-12-11T16:13:11-0500
_audit_creation_method            fapswitch 2.2
_symmetry_space_group_name_H-M    P1
_symmetry_Int_Tables_number       1
_space_group_crystal_system       triclinic
_cell_length_a                    23.609563
_cell_length_b                    13.647569
_cell_length_c                    28.431416
_cell_angle_alpha                 90.051831
_cell_angle_beta                  90.759681
_cell_angle_gamma                 89.821341
_cell_volume                      9160.12264542

loop_
_atom_site_label
_atom_site_type_symbol
_atom_type_description
_atom_site_fract_x
_atom_site_fract_y
_atom_site_fract_z
_atom_type_partial_charge
C1    C     C_R   0.285304 0.005155 0.816132 0.554683
C2    C     C_3   0.499558 0.720771 0.972647 0.176762
C3    C     C_R   0.205752 0.023325 0.523069 -0.144769
C4    C     C_R   0.296140 0.523883 0.527832 0.017427
C5    C     C_R   0.705687 0.531947 0.476948 -0.007242
C6    C     C_R   0.808278 0.057091 0.521434 0.051413
C7    C     C_R   0.201941 0.030016 0.473679 0.009091
C8    C     C_R   0.250910 0.566343 0.552743 -0.007971
C9    C     C_R   0.727790 0.618161 0.457279 0.013711
C10   C     C_R   0.764414 0.106412 0.545329 0.023495
C11   C     C_R   0.246039 0.077874 0.449777 -0.007950
C12   C     C_R   0.241686 0.549554 0.455306 0.009020
C13   C     C_3   0.001519 0.213453 0.028808 0.172817
C14   C     C_R   0.732428 0.591996 0.554476 0.029548
C15   C     C_R   0.756627 0.087440 0.447962 0.010493
C16   C     C_R   0.252363 0.062601 0.547395 0.008141
C17   C     C_1   0.237623 0.541949 0.405121 0.016310
C18   C     C_1   0.747571 0.569417 0.602172 0.050501
C19   C     C_1   0.748388 0.066162 0.399118 0.018789
C20   C     C_1   0.257199 0.050981 0.597293 0.010688
C21   C     C_1   0.257174 0.593579 0.601048 -0.058035
C22   C     C_1   0.730315 0.630983 0.407275 -0.030005
C23   C     C_1   0.765909 0.119680 0.595183 -0.037930
C24   C     C_3   0.004054 0.211567 0.973882 0.172923
C25   C     C_1   0.241196 0.100864 0.400819 -0.050914
C26   C     C_1   0.229778 0.531183 0.363691 0.041131
C27   C     C_1   0.763624 0.545564 0.640678 0.043792
C28   C     C_1   0.735401 0.043908 0.359710 0.040152
C29   C     C_1   0.267302 0.036475 0.638084 0.033618
C30   C     C_R   0.284365 0.006417 0.683909 0.540276
C31   C     C_R   0.715864 0.007174 0.315730 0.544196
C32   C     C_R   0.784268 0.506760 0.684064 0.550355
C33   C     C_R   0.215157 0.505558 0.316620 0.543678
C34   C     C_R   0.445446 0.825012 0.684092 0.541451
C35   C     C_1   0.520616 0.830458 0.096276 0.050641
C36   C     C_R   0.554822 0.825431 0.315923 0.539373
C37   C     C_R   0.944727 0.325314 0.683794 0.542102
C38   C     C_R   0.053931 0.325615 0.315223 0.541126
C39   C     C_R   0.274123 0.673750 0.683338 0.545015
C40   C     C_R   0.725054 0.676897 0.318036 0.546199
C41   C     C_R   0.774581 0.175116 0.682677 0.545135
C42   C     C_R   0.225839 0.174235 0.316855 0.548577
C43   C     C_3   0.440214 0.883236 0.982244 0.120346
C44   C     C_3   0.558872 0.882028 0.018070 0.143937
C45   C     C_3   0.938353 0.366858 0.981545 0.135032
C46   C     C_1   0.478611 0.831014 0.903919 0.043019
C47   C     C_3   0.056974 0.378581 0.019057 0.144326
C48   C     C_3   0.543600 0.886453 0.964800 -0.291215
C49   C     C_3   0.455518 0.886789 0.035578 -0.302809
C50   C     C_3   0.042141 0.381719 0.965770 -0.290612
C51   C     C_3   0.953089 0.377022 0.034746 -0.295296
C52   C     C_1   0.532195 0.830036 0.137252 0.078982
C53   C     C_1   0.467349 0.830115 0.862893 0.078176
C54   C     C_1   0.030533 0.329980 0.137902 0.074593
C55   C     C_1   0.968035 0.327383 0.863050 0.072873
C56   C     C_3   0.502709 0.649618 0.549978 -0.265772
C57   C     C_1   0.018507 0.328607 0.097004 0.044717
C58   C     C_3   0.564584 0.637421 0.566662 -0.282698
C59   C     C_3   0.574514 0.538721 0.590568 -0.447309
C60   C     C_3   0.468378 0.654838 0.448575 -0.253838
C61   C     C_3   0.445400 0.661938 0.397717 -0.300649
C62   C     C_3   0.409072 0.573591 0.384433 -0.454874
C63   C     C_3   0.001571 0.162221 0.549636 -0.250742
C64   C     C_3   0.064849 0.156559 0.562229 -0.294541
C65   C     C_3   0.077297 0.074290 0.597240 -0.456968
C66   C     C_3   0.997909 0.158000 0.442460 -0.251366
C67   C     C_3   0.940456 0.134520 0.418961 -0.301329
C68   C     C_1   0.979823 0.323001 0.904057 0.049225
C69   C     C_3   0.941586 0.039504 0.390753 -0.457388
C70   C     C_3   0.349301 0.491231 0.554598 -0.244129
C71   C     C_3   0.392150 0.431345 0.526199 -0.286365
C72   C     C_3   0.441174 0.395660 0.557415 -0.382488
C73   C     C_3   0.673416 0.458949 0.447175 -0.217403
C74   C     C_3   0.614031 0.499421 0.435422 -0.301461
C75   C     C_3   0.582076 0.434863 0.400311 -0.410596
C76   C     C_3   0.858286 0.014761 0.549383 -0.219762
C77   C     C_3   0.896054 0.942136 0.522653 -0.291798
C78   C     C_3   0.940288 0.894779 0.555204 -0.399733
C79   C     C_1   0.265175 0.633269 0.860366 0.078078
C80   C     C_3   0.152138 0.988977 0.445467 -0.247134
C81   C     C_3   0.108953 0.929349 0.473334 -0.300157
C82   C     C_3   0.063195 0.888155 0.440641 -0.401597
C83   C     C_3   0.327537 0.487117 0.051748 -0.221904
C84   C     C_3   0.362187 0.552243 0.085531 -0.257063
C85   C     C_3   0.390333 0.491627 0.124455 -0.388733
C86   C     C_3   0.671294 0.488644 0.948067 -0.226034
C87   C     C_3   0.637251 0.552727 0.913289 -0.259659
C88   C     C_3   0.612899 0.491408 0.872930 -0.386779
C89   C     C_3   0.826927 0.965052 0.048250 -0.218196
C90   C     C_1   0.734877 0.632872 0.139666 0.060224
C91   C     C_3   0.867223 0.025690 0.079615 -0.251827
C92   C     C_3   0.892881 0.963900 0.119234 -0.391296
C93   C     C_3   0.169611 0.969758 0.948775 -0.205277
C94   C     C_3   0.130865 0.030415 0.915973 -0.269991
C95   C     C_3   0.095897 0.964944 0.883291 -0.380802
C96   C     C_3   0.129809 0.650878 0.041369 -0.219082
C97   C     C_3   0.113039 0.617360 0.090802 -0.335039
C98   C     C_3   0.050902 0.640823 0.100488 -0.413335
C99   C     C_3   0.869400 0.648710 0.958456 -0.221045
C100  C     C_3   0.886252 0.613043 0.909327 -0.333609
C101  C     C_1   0.764668 0.130720 0.859767 0.074916
C102  C     C_3   0.948688 0.633634 0.899903 -0.415665
C103  C     C_3   0.647016 0.170701 0.049460 -0.205863
C104  C     C_3   0.659808 0.276741 0.064230 -0.291682
C105  C     C_3   0.607966 0.326294 0.085314 -0.390462
C106  C     C_3   0.340012 0.198196 0.951111 -0.233220
C107  C     C_3   0.309873 0.284887 0.926936 -0.325208
C108  C     C_3   0.351843 0.349663 0.901049 -0.444890
C109  C     C_R   0.714754 0.005114 0.183875 0.553763
C110  C     C_1   0.234878 0.131121 0.139637 0.033410
C111  C     C_R   0.287629 0.555361 0.976669 -0.095376
C112  C     C_R   0.711860 0.554933 0.023301 -0.089883
C113  C     C_R   0.786034 0.037511 0.974056 -0.077012
C114  C     C_R   0.209118 0.040451 0.024316 -0.061965
C115  C     C_R   0.282407 0.544509 0.024983 -0.002585
C116  C     C_R   0.716409 0.545918 0.974792 0.006066
C117  C     C_R   0.783803 0.029062 0.022844 0.018777
C118  C     C_R   0.212090 0.033031 0.975286 0.034474
C119  C     C_R   0.187276 0.620993 0.020598 0.029850
C120  C     C_R   0.785271 0.505422 0.815939 0.548819
C121  C     C_R   0.811719 0.620722 0.979200 0.018660
C122  C     C_R   0.696351 0.127790 0.022322 0.030668
C123  C     C_R   0.298139 0.134106 0.977386 0.041799
C124  C     C_R   0.194668 0.633893 0.970956 0.300898
C125  C     C_R   0.804642 0.633044 0.028899 0.280777
C126  C     C_R   0.700050 0.138002 0.972450 0.293968
C127  C     C_R   0.299020 0.127293 0.027310 0.274303
C128  C     C_R   0.245070 0.599413 0.949898 0.045093
C129  C     C_R   0.754483 0.598548 0.050046 0.039546
C130  C     C_R   0.745977 0.092554 0.949160 0.041746
C131  C     C_R   0.214621 0.505290 0.183998 0.551529
C132  C     C_R   0.251489 0.088080 0.050162 0.023411
C133  C     C_R   0.233109 0.578768 0.047393 0.051357
C134  C     C_R   0.765410 0.580688 0.952275 0.055735
C135  C     C_R   0.739389 0.075118 0.047156 0.053712
C136  C     C_R   0.256371 0.080936 0.951738 0.059710
C137  C     C_R   0.445667 0.823939 0.816522 0.561010
C138  C     C_R   0.554259 0.824019 0.183519 0.560023
C139  C     C_R   0.945708 0.323639 0.816622 0.557340
C140  C     C_R   0.053793 0.324091 0.183795 0.561733
C141  C     C_1   0.230049 0.560269 0.097105 -0.040283
C142  C     C_3   0.488409 0.828280 0.954523 -0.068127
C143  C     C_1   0.768607 0.561937 0.902546 -0.040142
C144  C     C_1   0.735008 0.058143 0.097140 -0.038652
C145  C     C_1   0.263465 0.062404 0.902137 -0.036479
C146  C     C_1   0.255971 0.612700 0.900660 0.073468
C147  C     C_1   0.743854 0.611895 0.099350 0.058387
C148  C     C_1   0.755833 0.107729 0.899843 0.062179
C149  C     C_1   0.242584 0.106152 0.099540 0.022471
C150  C     C_1   0.227154 0.537802 0.137839 -0.017027
C151  C     C_1   0.772086 0.538893 0.861889 -0.018302
C152  C     C_1   0.728912 0.037587 0.137851 0.003535
C153  C     C_3   0.510594 0.827741 0.045694 -0.059417
C154  C     C_1   0.270684 0.039740 0.861781 0.005248
C155  C     C_1   0.471746 0.832484 0.638847 0.044726
C156  C     C_1   0.528778 0.834617 0.360995 0.032326
C157  C     C_1   0.963455 0.334669 0.636321 0.033968
C158  C     C_1   0.024466 0.336101 0.358529 0.046099
C159  C     C_R   0.495396 0.746191 0.523419 -0.039866
C160  C     C_R   0.488564 0.748620 0.473623 -0.028116
C161  C     C_R   0.988870 0.253845 0.520444 -0.024851
C162  C     C_R   0.992553 0.253217 0.470706 -0.026948
C163  C     C_R   0.502962 0.927472 0.475603 0.258532
C164  C     C_3   0.989263 0.317752 0.954843 -0.057127
C165  C     C_R   0.509897 0.923685 0.525278 0.260478
C166  C     C_R   0.970016 0.430077 0.468500 0.269591
C167  C     C_R   0.959031 0.427291 0.517687 0.244582
C168  C     C_R   0.501054 0.834617 0.548851 -0.003132
C169  C     C_R   0.496874 0.839009 0.450030 -0.009755
C170  C     C_R   0.974267 0.342123 0.543675 -0.022251
C171  C     C_R   0.987542 0.342770 0.445845 -0.015482
C172  C     C_1   0.511862 0.838701 0.400845 0.035670
C173  C     C_1   0.488005 0.835075 0.598714 0.055681
C174  C     C_1   0.004887 0.342842 0.397284 0.058343
C175  C     C_3   0.009348 0.322382 0.046367 -0.055274
C176  C     C_1   0.970972 0.341284 0.594569 0.033567
C177  C     C_1   0.263755 0.625483 0.639916 -0.004752
C178  C     C_1   0.730244 0.646318 0.365734 0.012650
C179  C     C_1   0.768034 0.138858 0.636216 0.001252
C180  C     C_1   0.235531 0.129164 0.361204 -0.000140
C181  C     C_R   0.200859 0.594094 0.529696 -0.100044
C182  C     C_R   0.745140 0.695186 0.486541 -0.065262
C183  C     C_R   0.718342 0.146731 0.520845 -0.069614
C184  C     C_R   0.293195 0.114065 0.474170 -0.076740
C185  C     C_R   0.274597 0.673988 0.814929 0.561163
C186  C     C_3   0.498975 0.720671 0.027350 0.179116
C187  C     C_R   0.725436 0.674006 0.185077 0.563948
C188  C     C_R   0.774491 0.173605 0.814798 0.560976
C189  C     C_R   0.225355 0.174220 0.184856 0.559085
C190  C     C_R   0.195552 0.585129 0.481069 0.272394
C191  C     C_R   0.744962 0.683899 0.535400 0.309895
C192  C     C_R   0.713798 0.136791 0.472276 0.284140
C193  C     C_R   0.297199 0.105060 0.522834 0.277354
C194  C     C_R   0.290600 0.515749 0.478615 -0.142535
C195  C     C_R   0.710991 0.517431 0.525595 -0.146153
C196  C     C_R   0.803290 0.047598 0.472189 -0.134071
Cr1   Cr    Cr6+3 0.250680 0.837130 0.748990 1.041595
Cr2   Cr    Cr6+3 0.623910 0.707720 0.250330 1.038992
Cr3   Cr    Cr6+3 0.876090 0.207720 0.749670 1.046694
Cr4   Cr    Cr6+3 0.123910 0.207720 0.250330 1.043765
Cr5   Cr    Cr6+3 0.749320 0.837130 0.251010 1.042959
Cr6   Cr    Cr6+3 0.750680 0.337130 0.748990 1.058807
Cr7   Cr    Cr6+3 0.249320 0.337130 0.251010 1.040765
Cr8   Cr    Cr6+3 0.378160 0.960100 0.750430 1.071810
Cr9   Cr    Cr6+3 0.621840 0.960100 0.249570 1.070319
Cr10  Cr    Cr6+3 0.878160 0.460100 0.750430 1.049799
Cr11  Cr    Cr6+3 0.121840 0.460100 0.249570 1.053818
Cr12  Cr    Cr6+3 0.376090 0.707720 0.749670 1.050816
H1    H     H_    0.461367 0.964236 0.046728 0.179646
H2    H     H_    0.698192 0.448458 0.541031 0.118315
H3    H     H_    0.783494 0.363943 0.976235 0.361928
H4    H     H_    0.475155 0.502212 0.899486 0.358636
H5    H     H_    0.607858 0.601956 0.105131 0.343498
H6    H     H_    0.934028 0.064971 0.879553 0.363479
H7    H     H_    0.110098 0.107993 0.111548 0.354570
H8    H     H_    0.357696 0.454997 0.145998 0.148793
H9    H     H_    0.418684 0.435280 0.109133 0.236744
H10   H     H_    0.415778 0.540269 0.147789 0.167399
H11   H     H_    0.394937 0.590814 0.065421 0.236919
H12   H     H_    0.335796 0.609612 0.102184 0.156221
H13   H     H_    0.834441 0.007364 0.452348 0.108687
H14   H     H_    0.305866 0.428218 0.071422 0.171822
H15   H     H_    0.356981 0.449541 0.027372 0.202433
H16   H     H_    0.647658 0.458050 0.852326 0.176481
H17   H     H_    0.585563 0.432284 0.886772 0.203050
H18   H     H_    0.587257 0.538824 0.849076 0.167905
H19   H     H_    0.602424 0.588771 0.932244 0.243625
H20   H     H_    0.663133 0.612255 0.898146 0.160025
H21   H     H_    0.692617 0.427581 0.929402 0.199231
H22   H     H_    0.641242 0.453753 0.972562 0.211351
H23   H     H_    0.858917 0.934543 0.141863 0.163528
H24   H     H_    0.173203 0.987330 0.543003 0.114486
H25   H     H_    0.917995 0.902406 0.104566 0.233087
H26   H     H_    0.921111 0.010025 0.141498 0.171784
H27   H     H_    0.901659 0.055010 0.057734 0.247995
H28   H     H_    0.845358 0.089392 0.095607 0.167079
H29   H     H_    0.803625 0.910238 0.069349 0.212426
H30   H     H_    0.852706 0.922834 0.022784 0.196772
H31   H     H_    0.124080 0.926497 0.858302 0.158866
H32   H     H_    0.071878 0.910124 0.903748 0.240478
H33   H     H_    0.065371 0.010506 0.862775 0.170434
H34   H     H_    0.102143 0.075379 0.937363 0.235021
H35   H     H_    0.438889 0.960301 0.969395 0.154231
H36   H     H_    0.155227 0.081757 0.893939 0.147541
H37   H     H_    0.193232 0.914193 0.928187 0.219340
H38   H     H_    0.142730 0.928781 0.973748 0.211809
H39   H     H_    0.043121 0.720948 0.097709 0.195369
H40   H     H_    0.022667 0.601975 0.075147 0.178451
H41   H     H_    0.040266 0.616628 0.136584 0.166689
H42   H     H_    0.118853 0.536941 0.094295 0.221040
H43   H     H_    0.138766 0.657157 0.117563 0.179951
H44   H     H_    0.127220 0.732166 0.040922 0.188352
H45   H     H_    0.096465 0.620499 0.017665 0.215149
H46   H     H_    0.560511 0.958955 0.031162 0.130861
H47   H     H_    0.957178 0.713559 0.901965 0.191780
H48   H     H_    0.976195 0.594979 0.925887 0.174543
H49   H     H_    0.959528 0.607287 0.864158 0.167221
H50   H     H_    0.879537 0.532735 0.906212 0.209354
H51   H     H_    0.861273 0.653341 0.882206 0.181295
H52   H     H_    0.872436 0.729931 0.958492 0.184026
H53   H     H_    0.902492 0.618048 0.982412 0.212649
H54   H     H_    0.572881 0.329906 0.058952 0.232189
H55   H     H_    0.593629 0.285210 0.116668 0.159280
H56   H     H_    0.618939 0.402131 0.096207 0.151389
H57   H     H_    0.933417 0.442416 0.967463 0.116901
H58   H     H_    0.694766 0.276790 0.090817 0.154556
H59   H     H_    0.674078 0.320252 0.033602 0.203015
H60   H     H_    0.606957 0.164012 0.029112 0.221275
H61   H     H_    0.638123 0.127224 0.081475 0.142538
H62   H     H_    0.383787 0.380075 0.926075 0.185796
H63   H     H_    0.373759 0.306769 0.873461 0.166704
H64   H     H_    0.328852 0.411544 0.884016 0.151081
H65   H     H_    0.277466 0.258677 0.901281 0.175909
H66   H     H_    0.288226 0.329929 0.953879 0.165247
H67   H     H_    0.372158 0.230868 0.974843 0.228222
H68   H     H_    0.056986 0.455552 0.031825 0.111613
H69   H     H_    0.362978 0.153172 0.924876 0.165146
H70   H     H_    0.578659 0.857223 0.942957 0.186993
H71   H     H_    0.420456 0.857945 0.057352 0.158831
H72   H     H_    0.078483 0.356605 0.944221 0.194845
H73   H     H_    0.538111 0.964413 0.954045 0.154016
H74   H     H_    0.918439 0.349432 0.057250 0.192545
H75   H     H_    0.543203 0.701870 0.962141 0.164605
H76   H     H_    0.455147 0.703012 0.037643 0.155157
H77   H     H_    0.048519 0.197402 0.964180 0.152177
H78   H     H_    0.957890 0.192086 0.038309 0.163584
H79   H     H_    0.325423 0.528883 0.959517 0.172820
H80   H     H_    0.674517 0.527466 0.040643 0.152891
H81   H     H_    0.819374 0.000616 0.955017 0.151199
H82   H     H_    0.174522 0.006620 0.042825 0.159711
H83   H     H_    0.136656 0.742168 0.862954 0.365032
H84   H     H_    0.957376 0.456132 0.043674 0.137897
H85   H     H_    0.862321 0.742822 0.136622 0.366656
H86   H     H_    0.572431 0.290292 0.945903 0.377585
H87   H     H_    0.337182 0.273093 0.105299 0.348953
H88   H     H_    0.545843 0.530390 0.620952 0.161526
H89   H     H_    0.567159 0.478049 0.565165 0.157883
H90   H     H_    0.618959 0.534192 0.603619 0.160372
H91   H     H_    0.593199 0.642915 0.536006 0.176702
H92   H     H_    0.576058 0.696468 0.591940 0.206745
H93   H     H_    0.473730 0.647238 0.580426 0.143677
H94   H     H_    0.492021 0.585114 0.528236 0.137479
H95   H     H_    0.033978 0.459022 0.955177 0.133448
H96   H     H_    0.431413 0.504107 0.393256 0.155729
H97   H     H_    0.368354 0.577125 0.403239 0.152357
H98   H     H_    0.399658 0.574742 0.346064 0.154609
H99   H     H_    0.418971 0.728880 0.393121 0.185495
H100  H     H_    0.481437 0.662695 0.373103 0.171502
H101  H     H_    0.502984 0.599669 0.449483 0.134893
H102  H     H_    0.432568 0.627038 0.469608 0.153789
H103  H     H_    0.052661 0.085324 0.629848 0.164455
H104  H     H_    0.066319 0.002115 0.581671 0.146987
H105  H     H_    0.123038 0.074363 0.606774 0.149100
H106  H     H_    0.166290 0.624587 0.549775 0.161957
H107  H     H_    0.089756 0.144551 0.529829 0.169904
H108  H     H_    0.078755 0.226915 0.578326 0.180121
H109  H     H_    0.976550 0.161717 0.582378 0.143634
H110  H     H_    0.987189 0.094520 0.532186 0.135655
H111  H     H_    0.976147 0.041223 0.364641 0.164848
H112  H     H_    0.947364 0.975767 0.414490 0.148300
H113  H     H_    0.900587 0.030517 0.371659 0.151942
H114  H     H_    0.907692 0.129246 0.446430 0.167726
H115  H     H_    0.927680 0.194676 0.394735 0.175352
H116  H     H_    0.031073 0.165164 0.415361 0.143471
H117  H     H_    0.758192 0.764146 0.471272 0.150133
H118  H     H_    0.012548 0.094659 0.463321 0.140367
H119  H     H_    0.500009 0.104143 0.377464 0.361295
H120  H     H_    0.591770 0.037750 0.621515 0.364380
H121  H     H_    0.989677 0.605852 0.370500 0.354031
H122  H     H_    0.885615 0.552225 0.614003 0.381236
H123  H     H_    0.107008 0.665197 0.384175 0.372850
H124  H     H_    0.725684 0.841516 0.637309 0.370525
H125  H     H_    0.640146 0.236549 0.372632 0.362390
H126  H     H_    0.364966 0.213215 0.621237 0.364921
H127  H     H_    0.460435 0.457627 0.576962 0.119994
H128  H     H_    0.685309 0.184306 0.539967 0.168187
H129  H     H_    0.426218 0.341663 0.583461 0.221922
H130  H     H_    0.474019 0.360469 0.535412 0.201556
H131  H     H_    0.370665 0.367121 0.510074 0.228888
H132  H     H_    0.409823 0.476818 0.497722 0.131417
H133  H     H_    0.370757 0.557405 0.569005 0.137554
H134  H     H_    0.335920 0.445407 0.584798 0.187428
H135  H     H_    0.606903 0.425656 0.367685 0.166932
H136  H     H_    0.573353 0.362140 0.415882 0.231189
H137  H     H_    0.540952 0.469841 0.390926 0.130569
H138  H     H_    0.589227 0.504783 0.468301 0.158105
H139  H     H_    0.326501 0.150538 0.455105 0.181652
H140  H     H_    0.617129 0.574104 0.420120 0.168852
H141  H     H_    0.697158 0.442840 0.414559 0.190699
H142  H     H_    0.669185 0.389139 0.466600 0.213723
H143  H     H_    0.965990 0.951391 0.573455 0.126018
H144  H     H_    0.919660 0.848910 0.582140 0.227347
H145  H     H_    0.968857 0.847379 0.534346 0.188111
H146  H     H_    0.869649 0.883238 0.506665 0.224922
H147  H     H_    0.918640 0.981246 0.494429 0.135056
H148  H     H_    0.884523 0.076605 0.562565 0.118695
H149  H     H_    0.841609 0.975909 0.580582 0.215455
H150  H     H_    0.323884 0.483404 0.458011 0.106396
H151  H     H_    0.043776 0.947975 0.419669 0.126708
H152  H     H_    0.081632 0.834307 0.416006 0.216095
H153  H     H_    0.029941 0.851601 0.461488 0.190217
H154  H     H_    0.130504 0.867507 0.491726 0.213099
H155  H     H_    0.088189 0.977099 0.499584 0.143697
H156  H     H_    0.129690 0.051172 0.428057 0.140383
H157  H     H_    0.169374 0.940769 0.417475 0.176003
H158  H     H_    0.708554 0.870506 0.991384 0.356634
H159  H     H_    0.322157 0.892048 0.034085 0.347744
H160  H     H_    0.209671 0.381158 0.000596 0.351719
O1    O     O_R   0.237900 0.735050 0.799950 -0.488873
O2    O     O_R   0.566580 0.739640 0.301090 -0.531441
O3    O     O_3   0.820087 0.399297 0.977185 -0.552618
O4    O     O_2   0.436105 0.554956 0.983400 -0.287972
O5    O     O_2   0.408046 0.660308 0.917523 -0.224351
O6    O     O_3   0.498755 0.558215 0.909973 -0.561679
O7    O     O_2   0.501932 0.561563 0.083777 -0.328220
O8    O     O_2   0.563948 0.556130 0.016314 -0.276404
O9    O     O_3   0.593938 0.661046 0.088353 -0.450042
O10   O     O_2   0.999051 0.015380 0.956857 -0.256453
O11   O     O_2   0.909246 0.095609 0.969202 -0.256709
O12   O     O_3   0.958574 0.120210 0.889438 -0.521737
O13   O     O_R   0.933420 0.239640 0.698910 -0.525556
O14   O     O_2   0.006574 0.054867 0.085651 -0.324536
O15   O     O_2   0.074695 0.057648 0.022454 -0.267904
O16   O     O_3   0.093788 0.165696 0.095116 -0.447684
O17   O     O_R   0.066580 0.239640 0.301090 -0.529667
O18   O     O_R   0.323550 0.666510 0.701520 -0.504384
O19   O     O_R   0.676450 0.666510 0.298480 -0.504878
O20   O     O_R   0.823550 0.166510 0.701520 -0.501498
O21   O     O_R   0.176450 0.166510 0.298480 -0.502704
O22   O     O_3   0.334980 0.834990 0.749700 -0.260289
O23   O     O_3   0.665020 0.834990 0.250300 -0.259208
O24   O     O_3   0.834980 0.334990 0.749700 -0.259254
O25   O     O_R   0.762100 0.735050 0.200050 -0.483864
O26   O     O_3   0.165020 0.334990 0.250300 -0.255661
O27   O     O_R   0.256160 0.936210 0.796950 -0.490549
O28   O     O_R   0.743840 0.936210 0.203050 -0.493201
O29   O     O_R   0.756160 0.436210 0.796950 -0.489712
O30   O     O_R   0.243840 0.436210 0.203050 -0.496824
O31   O     O_R   0.333710 0.029860 0.801630 -0.507638
O32   O     O_R   0.666290 0.029860 0.198370 -0.509002
O33   O     O_R   0.833710 0.529860 0.801630 -0.517511
O34   O     O_R   0.166290 0.529860 0.198370 -0.516157
O35   O     O_R   0.425340 0.901920 0.798280 -0.497652
O36   O     O_R   0.737900 0.235050 0.799950 -0.470486
O37   O     O_R   0.574660 0.901920 0.201720 -0.497445
O38   O     O_R   0.925340 0.401920 0.798280 -0.511638
O39   O     O_R   0.074660 0.401920 0.201720 -0.506116
O40   O     O_R   0.433530 0.738890 0.801610 -0.480431
O41   O     O_R   0.566470 0.738890 0.198390 -0.488008
O42   O     O_R   0.933530 0.238890 0.801610 -0.473435
O43   O     O_R   0.066470 0.238890 0.198390 -0.482569
O44   O     O_R   0.323650 0.665810 0.796720 -0.490759
O45   O     O_R   0.676350 0.665810 0.203280 -0.500128
O46   O     O_R   0.823650 0.165810 0.796720 -0.498202
O47   O     O_R   0.262100 0.235050 0.200050 -0.499671
O48   O     O_R   0.176350 0.165810 0.203280 -0.493730
O49   O     O_R   0.237790 0.735800 0.697250 -0.506289
O50   O     O_R   0.762210 0.735800 0.302750 -0.499970
O51   O     O_R   0.737790 0.235800 0.697250 -0.505115
O52   O     O_R   0.262210 0.235800 0.302750 -0.500929
O53   O     O_R   0.256050 0.936910 0.701750 -0.509933
O54   O     O_R   0.743950 0.936910 0.298250 -0.512957
O55   O     O_R   0.756050 0.436910 0.701750 -0.506693
O56   O     O_R   0.243950 0.436910 0.298250 -0.509742
O57   O     O_R   0.333600 0.030610 0.698930 -0.487370
O58   O     O_R   0.425240 0.902610 0.703070 -0.472621
O59   O     O_R   0.666400 0.030610 0.301070 -0.483256
O60   O     O_R   0.833600 0.530610 0.698930 -0.495962
O61   O     O_R   0.166400 0.530610 0.301070 -0.487120
O62   O     O_2   0.105649 0.597780 0.914561 -0.320249
O63   O     O_2   0.100088 0.751121 0.958634 -0.331352
O64   O     O_3   0.166196 0.745107 0.887975 -0.543383
O65   O     O_2   0.893501 0.596945 0.085655 -0.327181
O66   O     O_2   0.899250 0.749447 0.041088 -0.330620
O67   O     O_3   0.832799 0.745244 0.111567 -0.543852
O68   O     O_2   0.671331 0.251902 0.897495 -0.305616
O69   O     O_R   0.574760 0.902610 0.296930 -0.467797
O70   O     O_2   0.608383 0.117321 0.917548 -0.288308
O71   O     O_3   0.604980 0.276079 0.967180 -0.585929
O72   O     O_2   0.363662 0.088644 0.104442 -0.297969
O73   O     O_2   0.413831 0.130837 0.033285 -0.296555
O74   O     O_3   0.362199 0.269963 0.077608 -0.550823
O75   O     O_2   0.422775 0.041915 0.438927 -0.302747
O76   O     O_2   0.503469 0.129428 0.472572 -0.125554
O77   O     O_3   0.515558 0.044006 0.392313 -0.496209
O78   O     O_2   0.589381 0.062997 0.528252 -0.211569
O79   O     O_2   0.500344 0.099818 0.568086 -0.178285
O80   O     O_R   0.925240 0.402610 0.703070 -0.474984
O81   O     O_3   0.571617 0.980465 0.608040 -0.538576
O82   O     O_2   0.898064 0.545349 0.419984 -0.271446
O83   O     O_2   0.974376 0.629094 0.462979 -0.176279
O84   O     O_3   0.998754 0.542295 0.385660 -0.510088
O85   O     O_2   0.970522 0.600639 0.561331 -0.247201
O86   O     O_2   0.882603 0.577526 0.515849 -0.205432
O87   O     O_3   0.891524 0.491517 0.595588 -0.547755
O88   O     O_2   0.101873 0.517605 0.440701 -0.252794
O89   O     O_2   0.092393 0.668920 0.486581 -0.261885
O90   O     O_3   0.140223 0.679051 0.404744 -0.555407
O91   O     O_R   0.074760 0.402610 0.296930 -0.471735
O92   O     O_2   0.819387 0.781705 0.588260 -0.308239
O93   O     O_2   0.747359 0.878184 0.545261 -0.306134
O94   O     O_3   0.716338 0.781626 0.619128 -0.526501
O95   O     O_2   0.621185 0.088311 0.424728 -0.204810
O96   O     O_2   0.613849 0.233525 0.475166 -0.270668
O97   O     O_3   0.669880 0.247931 0.396910 -0.587134
O98   O     O_2   0.385584 0.056762 0.576693 -0.256859
O99   O     O_2   0.400674 0.187501 0.519134 -0.231833
O100  O     O_3   0.340971 0.227868 0.593266 -0.573359
O101  O     O_2   0.647847 0.840371 0.076992 -0.246563
O102  O     O_R   0.433420 0.739640 0.698910 -0.526278
O103  O     O_2   0.635955 0.734685 0.007290 -0.272284
O104  O     O_3   0.673412 0.909387 0.995215 -0.552969
O105  O     O_2   0.352624 0.838185 0.922533 -0.226832
O106  O     O_2   0.361188 0.739499 0.994537 -0.283174
O107  O     O_3   0.324576 0.916670 0.001422 -0.527929
O108  O     O_2   0.146073 0.344959 0.079004 -0.273264
O109  O     O_2   0.137402 0.234466 0.010912 -0.263707
O110  O     O_3   0.171393 0.409892 0.996437 -0.554166
O111  O     O_2   0.863839 0.264934 0.925182 -0.234885
O112  O     O_2   0.857575 0.237172 0.010450 -0.302271
S1    S     S_3+6 0.139366 0.682738 0.933438 -0.050359
S2    S     S_3+6 0.758664 0.785353 0.572051 -0.014673
S3    S     S_3+6 0.651785 0.177281 0.442737 0.012066
S4    S     S_3+6 0.359126 0.144060 0.552679 0.019071
S5    S     S_3+6 0.630235 0.836995 0.026032 0.004001
S6    S     S_3+6 0.368650 0.839741 0.973849 0.018574
S7    S     S_3+6 0.129127 0.337453 0.027998 -0.009125
S8    S     S_3+6 0.869340 0.311534 0.972913 0.000820
S9    S     S_3+6 0.457390 0.622950 0.946151 0.026919
S10   S     S_3+6 0.540416 0.621584 0.053786 0.030732
S11   S     S_3+6 0.966302 0.108046 0.947950 0.023433
S12   S     S_3+6 0.859871 0.681891 0.066375 -0.059321
S13   S     S_3+6 0.044837 0.119801 0.057852 0.040594
S14   S     S_3+6 0.645653 0.196575 0.937531 -0.042966
S15   S     S_3+6 0.361588 0.151975 0.061186 -0.017876
S16   S     S_3+6 0.485974 0.039586 0.445735 0.102712
S17   S     S_3+6 0.542708 0.021033 0.557236 0.088961
S18   S     S_3+6 0.959431 0.539810 0.434531 0.092787
S19   S     S_3+6 0.925661 0.528013 0.547195 0.064562
S20   S     S_3+6 0.129824 0.612792 0.453703 0.014117

loop_
_geom_bond_atom_site_label_1
_geom_bond_atom_site_label_2
_ccdc_geom_bond_type
C181  H106  S    
C101  C148  T    
Cr7   O56   S    
C78   H143  S    
C14   C195  A    
C6    C196  A    
O87   S19   S    
Cr4   O43   S    
C170  C176  S    
C34   C155  S    
C4    C194  A    
C183  H128  S    
C140  O39   A    
C53   C137  S    
C138  O41   A    
C49   C153  S    
C163  C165  A    
C40   O19   A    
Cr12  O44   S    
C191  S2    S    
C167  S19   S    
O71   S14   S    
C60   H102  S    
C166  S18   S    
C185  O44   A    
Cr12  O18   S    
C106  C107  S    
C113  H81   S    
C184  C193  A    
C55   C139  S    
C63   C161  S    
C102  H47   S    
Cr9   O37   S    
Cr8   O22   S    
Cr12  O102  S    
C9    C182  A    
C96   C119  S    
C134  C143  S    
O12   S11   S    
C158  C174  T    
C162  C171  A    
C30   O53   A    
C42   C180  S    
C104  H59   S    
C112  C129  A    
C47   C50   S    
C101  C188  S    
C80   H156  S    
O72   S15   D    
C23   C179  T    
C99   C121  S    
C83   H15   S    
C143  C151  T    
C125  S12   S    
Cr1   O1    S    
C24   C164  S    
C31   O59   A    
Cr4   O26   S    
C104  C105  S    
Cr6   O29   S    
C161  C162  A    
Cr11  O91   S    
C68   C164  S    
Cr2   O23   S    
C140  O43   A    
C50   C164  S    
C37   O80   A    
Cr11  O39   S    
Cr12  O40   S    
H86   O71   S    
C186  S10   S    
C81   H155  S    
O64   S1    S    
C67   H114  S    
C181  C190  A    
Cr4   O48   S    
C56   H93   S    
C105  H55   S    
O109  S7    D    
C95   H31   S    
C187  O45   A    
C93   H37   S    
C95   H33   S    
C42   O21   A    
C15   C196  A    
O95   S3    D    
H7    O16   S    
O15   S13   D    
Cr8   O57   S    
C117  C135  A    
Cr8   O31   S    
C118  C136  A    
C13   C175  S    
O85   S19   D    
O82   S18   D    
C86   H21   S    
H160  O110  S    
C89   H30   S    
C192  S3    S    
C106  H67   S    
C114  C132  A    
C80   H157  S    
C98   H41   S    
C58   H92   S    
C137  O40   A    
C56   C159  S    
C33   O61   A    
Cr11  O61   S    
C72   H129  S    
C34   O58   A    
C69   H111  S    
C73   H142  S    
C46   C53   T    
Cr6   O36   S    
Cr1   O49   S    
C189  O47   A    
H6    O12   S    
C1    C154  S    
C107  H65   S    
C129  C147  S    
C187  O25   A    
C125  C129  A    
Cr4   O17   S    
C116  C134  A    
C99   H53   S    
C87   H20   S    
C153  C186  S    
C49   H71   S    
C43   C142  S    
C45   H57   S    
O97   S3    S    
Cr10  O33   S    
Cr3   O20   S    
O14   S13   D    
C44   C48   S    
Cr8   O35   S    
C8    C181  A    
C1    O31   A    
C63   H110  S    
C97   C98   S    
C25   C180  T    
Cr10  O80   S    
C77   H146  S    
C97   H43   S    
C98   H40   S    
C29   C30   S    
C131  O30   A    
H83   O64   S    
C38   O91   A    
O112  S8    D    
C65   H105  S    
C11   C25   S    
C70   H134  S    
C50   H72   S    
C37   C157  S    
C76   H149  S    
C84   H12   S    
O8    S10   D    
C57   C175  S    
C137  O35   A    
C88   H18   S    
C59   H88   S    
C88   H17   S    
C188  O46   A    
Cr7   O52   S    
O4    S9    D    
C41   O20   A    
C107  C108  S    
C88   H16   S    
Cr5   O50   S    
C16   C193  A    
Cr7   O30   S    
O5    S9    D    
C89   C91   S    
H125  O97   S    
C62   H97   S    
C69   H113  S    
C66   C67   S    
C100  H51   S    
C24   S11   S    
C141  C150  T    
C61   H99   S    
C79   C146  T    
C114  H82   S    
C113  C130  A    
O79   S17   D    
C83   C115  S    
C75   H136  S    
Cr10  O38   S    
C65   H103  S    
C32   O55   A    
Cr7   O47   S    
C91   C92   S    
C47   H68   S    
C156  C172  T    
C66   H116  S    
C85   H10   S    
C5    C9    A    
C90   C147  T    
C59   H90   S    
C26   C33   S    
C123  C127  A    
C83   C84   S    
O90   S20   S    
C155  C173  T    
Cr9   O32   S    
C19   C28   T    
Cr4   O21   S    
C67   H115  S    
C145  C154  T    
Cr2   O19   S    
O83   S18   D    
C89   C117  S    
O110  S7    S    
C2    C142  S    
C113  C117  A    
C64   H107  S    
C47   S7    S    
C14   C191  A    
O107  S6    S    
H3    O3    S    
C112  C116  A    
O70   S14   D    
C131  O34   A    
C120  C151  S    
C185  O1    A    
Cr9   O23   S    
O103  S5    D    
Cr10  O24   S    
C41   C179  S    
C11   C184  A    
C35   C153  S    
C78   H144  S    
Cr1   O27   S    
C48   H73   S    
C6    C76   S    
C39   O49   A    
Cr9   O59   S    
C62   H96   S    
C108  H62   S    
C71   C72   S    
C144  C152  T    
O66   S12   D    
O77   S16   S    
C128  C146  S    
C21   C177  T    
C56   C58   S    
C102  H48   S    
C5    C73   S    
C61   C62   S    
C157  C176  T    
O74   S15   S    
O9    S10   S    
H121  O84   S    
C111  C128  A    
C139  O42   A    
C47   C175  S    
C3    C16   A    
C54   C57   T    
Cr9   O69   S    
C87   C88   S    
C10   C183  A    
C73   C74   S    
C2    S9    S    
C31   O54   A    
C44   S5    S    
C183  C192  A    
C4    C70   S    
C55   C68   T    
C46   C142  S    
O75   S16   D    
C77   C78   S    
C15   C19   S    
C182  H117  S    
C103  H61   S    
Cr11  O34   S    
C3    C7    A    
O96   S3    D    
C33   O56   A    
C165  S17   S    
C90   C187  S    
C126  C130  A    
C126  S14   S    
C92   H25   S    
C66   C162  S    
H4    O6    S    
C71   H132  S    
Cr3   O24   S    
C81   H154  S    
Cr3   O13   S    
Cr3   O42   S    
C193  S4    S    
C56   H94   S    
C105  H54   S    
C12   C17   S    
O94   S2    S    
C52   C138  S    
C160  C169  A    
C51   H74   S    
C70   C71   S    
C39   O18   A    
C121  C134  A    
C76   H148  S    
C139  O38   A    
C196  H13   S    
C4    C8    A    
C124  C128  A    
Cr10  O60   S    
Cr2   O2    S    
Cr8   O58   S    
C132  C149  S    
O98   S4    D    
Cr1   O22   S    
C39   C177  S    
H123  O90   S    
H124  O94   S    
C58   H91   S    
C109  O32   A    
C171  C174  S    
C100  H50   S    
C86   H22   S    
C89   H29   S    
C108  H64   S    
C109  C152  S    
C84   C85   S    
C38   C158  S    
C195  H2    S    
C85   H8    S    
C60   H101  S    
C86   C87   S    
C50   H95   S    
C36   O69   A    
C115  C133  A    
C92   H23   S    
C43   H35   S    
O16   S13   S    
C184  H139  S    
C72   H130  S    
Cr5   O54   S    
Cr7   O26   S    
H158  O104  S    
O76   S16   D    
Cr5   O28   S    
C159  C160  A    
C73   H141  S    
C82   H151  S    
Cr2   O45   S    
C36   O2    A    
C43   S6    S    
O93   S2    D    
C106  H69   S    
C103  H60   S    
C51   C175  S    
O3    S8    S    
O11   S11   D    
C186  H76   S    
O7    S10   D    
C72   H127  S    
C87   H19   S    
O99   S4    D    
C10   C23   S    
C42   O52   A    
C182  C191  A    
C96   H44   S    
H126  O100  S    
O101  S5    D    
O111  S8    D    
C36   C156  S    
C82   H153  S    
C74   H140  S    
C188  O36   A    
O108  S7    D    
C27   C32   S    
C63   H109  S    
O81   S17   S    
O62   S1    D    
C28   C31   S    
O67   S12   S    
O63   S1    D    
C6    C10   A    
C97   H42   S    
C110  C189  S    
C133  C141  S    
C64   C65   S    
C41   O51   A    
C58   C59   S    
C51   H84   S    
O73   S15   D    
C105  H56   S    
C95   H32   S    
C138  O37   A    
C94   C95   S    
C163  C169  A    
C122  C135  A    
C93   H38   S    
C163  S16   S    
C38   O17   A    
C13   H78   S    
C120  O33   A    
Cr12  O22   S    
O78   S17   D    
C49   H1    S    
C35   C52   T    
C111  H79   S    
C60   C61   S    
C131  C150  S    
C13   S13   S    
C103  C122  S    
Cr5   O23   S    
C7    C80   S    
Cr6   O24   S    
C62   H98   S    
C15   C192  A    
C30   O57   A    
C40   O50   A    
C93   C94   S    
C91   H27   S    
H5    O9    S    
C14   C18   S    
C22   C178  T    
C110  C149  T    
C78   H145  S    
C81   C82   S    
C108  H63   S    
C119  C124  A    
C7    C11   A    
C119  C133  A    
O89   S20   D    
C44   C153  S    
C69   H112  S    
C75   H135  S    
Cr6   O55   S    
C45   C164  S    
C104  H58   S    
C96   H45   S    
C9    C22   S    
C45   C51   S    
C159  C168  A    
C86   C116  S    
C189  O48   A    
C107  H66   S    
C94   H36   S    
C127  C132  A    
O106  S6    D    
C85   H9    S    
C103  C104  S    
C121  C125  A    
C59   H89   S    
H87   O74   S    
C54   C140  S    
C120  O29   A    
C66   H118  S    
C106  C123  S    
O88   S20   D    
C37   O13   A    
C136  C145  S    
C16   C20   S    
C5    C195  A    
C74   H138  S    
O10   S11   D    
C166  C171  A    
C83   H14   S    
Cr6   O51   S    
H159  O107  S    
C77   H147  S    
C167  C170  A    
C20   C29   T    
C168  C173  S    
H85   O67   S    
C74   C75   S    
C75   H137  S    
C130  C148  S    
C76   C77   S    
H120  O81   S    
Cr3   O46   S    
C82   H152  S    
C43   C49   S    
C70   H133  S    
C91   H28   S    
C63   C64   S    
C13   C24   S    
O84   S18   S    
C67   C69   S    
O104  S5    S    
C122  C126  A    
C2    C186  S    
C190  S20   S    
C84   H11   S    
O105  S6    D    
C99   C100  S    
O68   S14   D    
C96   C97   S    
C100  C102  S    
C124  S1    S    
C48   C142  S    
H119  O77   S    
C114  C118  A    
Cr5   O25   S    
C109  O28   A    
C40   C178  S    
C161  C170  A    
C32   O60   A    
C135  C144  S    
C165  C168  A    
C166  C167  A    
C169  C172  S    
Cr1   O53   S    
C93   C118  S    
O92   S2    D    
Cr11  O26   S    
C61   H100  S    
C194  H150  S    
C24   H77   S    
C79   C185  S    
C12   C194  A    
C18   C27   T    
C64   H108  S    
C80   C81   S    
C65   H104  S    
C8    C21   S    
C3    H24   S    
C2    H75   S    
C45   S8    S    
C48   H70   S    
O86   S19   D    
Cr2   O41   S    
C12   C190  A    
C1    O27   A    
C102  H49   S    
C123  C136  A    
C94   H34   S    
C98   H39   S    
O6    S9    S    
C44   H46   S    
C99   H52   S    
O65   S12   D    
C92   H26   S    
C17   C26   T    
C71   H131  S    
O100  S4    S    
H122  O87   S    
C127  S15   S    
C34   O102  A    
C111  C115  A    
C112  H80   S    
C60   C160  S    
