data_mof_unit_28441.cif
_audit_creation_date              2012-12-11T17:36:13-0500
_audit_creation_method            fapswitch 2.2
_symmetry_space_group_name_H-M    P1
_symmetry_Int_Tables_number       1
_space_group_crystal_system       triclinic
_cell_length_a                    25.866036
_cell_length_b                    6.903459
_cell_length_c                    21.687956
_cell_angle_alpha                 90.002012
_cell_angle_beta                  96.055109
_cell_angle_gamma                 90.001062
_cell_volume                      3851.10617705

loop_
_atom_site_label
_atom_site_type_symbol
_atom_type_description
_atom_site_fract_x
_atom_site_fract_y
_atom_site_fract_z
_atom_type_partial_charge
O1    O     O_R   0.208650 0.594520 0.175450 -0.534910
O2    O     O_R   0.791350 0.405480 0.824550 -0.534909
O3    O     O_R   0.291350 0.094520 0.324550 -0.534907
O4    O     O_R   0.708650 0.905480 0.675450 -0.534908
O5    O     O_R   0.192980 0.260780 0.300160 -0.540863
O6    O     O_R   0.807020 0.739220 0.699840 -0.540863
O7    O     O_R   0.307020 0.760780 0.199840 -0.540863
O8    O     O_R   0.692980 0.239220 0.800160 -0.540863
C1    C     C_R   0.178789 0.432880 0.318421 0.682212
C2    C     C_R   0.821210 0.567120 0.681579 0.682215
C3    C     C_R   0.321211 0.932878 0.181579 0.682215
C4    C     C_R   0.678789 0.067122 0.818420 0.682214
O9    O     O_R   0.202550 0.264660 0.174420 -0.536358
O10   O     O_R   0.797450 0.735340 0.825580 -0.536356
O11   O     O_R   0.297450 0.764660 0.325580 -0.536355
O12   O     O_R   0.702550 0.235340 0.674420 -0.536357
O13   O     O_R   0.300990 0.096480 0.197920 -0.539222
O14   O     O_R   0.699010 0.903520 0.802080 -0.539221
O15   O     O_R   0.199010 0.596480 0.302080 -0.539224
O16   O     O_R   0.800990 0.403520 0.697920 -0.539224
C5    C     C_R   0.191089 0.433336 0.151099 0.696965
C6    C     C_R   0.808911 0.566664 0.848900 0.696974
C7    C     C_R   0.308910 0.933345 0.348901 0.696971
C8    C     C_R   0.691090 0.066655 0.651100 0.696967
O17   O     O_3   0.282290 0.427760 0.257860 -0.364353
O18   O     O_3   0.717710 0.572240 0.742140 -0.364356
O19   O     O_3   0.217710 0.927760 0.242140 -0.364361
O20   O     O_3   0.782290 0.072240 0.757860 -0.364359
V1    V     V_3+5 0.244010 0.152080 0.248540 1.415110
V2    V     V_3+5 0.755990 0.847920 0.751460 1.415114
V3    V     V_3+5 0.255990 0.652080 0.251460 1.415108
V4    V     V_3+5 0.744010 0.347920 0.748540 1.415108
C9    C     C_R   0.657517 0.060938 0.591784 -0.042758
C10   C     C_R   0.342483 0.939061 0.408216 -0.042761
C11   C     C_R   0.842485 0.560996 0.908216 -0.042794
C12   C     C_R   0.157516 0.439005 0.091783 -0.042795
C13   C     C_R   0.646804 0.122675 0.481599 -0.132389
C14   C     C_R   0.353197 0.877314 0.518400 -0.132350
C15   C     C_R   0.853227 0.623251 0.018373 -0.132208
C16   C     C_R   0.146774 0.376744 0.981626 -0.132279
C17   C     C_R   0.678346 0.113760 0.537552 -0.188030
C18   C     C_R   0.321654 0.886241 0.462448 -0.188040
C19   C     C_R   0.821675 0.614148 0.962431 -0.188052
C20   C     C_R   0.178325 0.385833 0.037569 -0.188028
C21   C     C_R   0.604282 0.017285 0.589770 -0.181072
C22   C     C_R   0.395718 0.982702 0.410229 -0.181073
C23   C     C_R   0.895710 0.517169 0.910239 -0.181070
C24   C     C_R   0.104292 0.482859 0.089758 -0.181067
C25   C     C_R   0.570737 0.027596 0.533183 0.055081
C26   C     C_R   0.429264 0.972375 0.466816 0.055074
C27   C     C_R   0.929266 0.527668 0.966816 0.055052
C28   C     C_R   0.070738 0.472377 0.033179 0.055066
C29   C     C_R   0.593263 0.081678 0.478662 0.037764
C30   C     C_R   0.406738 0.918291 0.521337 0.037777
C31   C     C_R   0.906762 0.582141 0.021315 0.037820
C32   C     C_R   0.093241 0.417892 0.978681 0.037795
C33   C     C_R   0.515763 0.989977 0.529072 -0.010997
C34   C     C_R   0.484239 0.009984 0.470926 -0.011009
C35   C     C_R   0.984232 0.489889 0.970934 -0.010968
C36   C     C_R   0.015772 0.510172 0.029060 -0.010945
C37   C     C_R   0.508713 0.066045 0.418641 -0.245161
C38   C     C_R   0.491290 0.933897 0.581355 -0.245178
C39   C     C_R   0.991324 0.566707 0.081315 -0.245204
C40   C     C_R   0.008681 0.433378 0.918678 -0.245172
C41   C     C_R   0.562238 0.096198 0.421725 0.430919
C42   C     C_R   0.437765 0.903749 0.578272 0.430922
C43   C     C_R   0.937802 0.596966 0.078233 0.430940
C44   C     C_R   0.062201 0.403095 0.921762 0.430945
H1    H     H_    0.409618 0.018528 0.366567 0.091624
H2    H     H_    0.590382 0.981467 0.633433 0.091618
H3    H     H_    0.090403 0.518914 0.133409 0.091625
H4    H     H_    0.909599 0.481115 0.866588 0.091636
H5    H     H_    0.280785 0.850242 0.461354 0.109203
H6    H     H_    0.719214 0.149770 0.538646 0.109201
H7    H     H_    0.219182 0.349662 0.038673 0.109222
H8    H     H_    0.780816 0.650294 0.961329 0.109226
H9    H     H_    0.664571 0.164520 0.440563 0.159895
H10   H     H_    0.335429 0.835475 0.559437 0.159906
H11   H     H_    0.835475 0.665359 0.059395 0.159954
H12   H     H_    0.164525 0.334615 0.940606 0.159929
H13   H     H_    0.487444 0.089165 0.373904 0.139910
H14   H     H_    0.512561 0.910748 0.626089 0.139887
H15   H     H_    0.012615 0.590177 0.126020 0.139817
H16   H     H_    0.987393 0.409960 0.873968 0.139856
C45   C     C_R   0.427329 0.793657 0.079365 -0.133307
C46   C     C_R   0.572670 0.206343 0.920634 -0.133309
C47   C     C_R   0.072671 0.293660 0.420635 -0.133333
C48   C     C_R   0.927328 0.706341 0.579364 -0.133327
H17   H     H_    0.445498 0.663101 0.064242 0.105387
H18   H     H_    0.554501 0.336899 0.935757 0.105386
H19   H     H_    0.054504 0.163102 0.435758 0.105383
H20   H     H_    0.945495 0.836898 0.564240 0.105383
C49   C     C_R   0.388073 0.778701 0.119320 -0.169296
C50   C     C_R   0.611926 0.221299 0.880679 -0.169299
C51   C     C_R   0.111928 0.278704 0.380680 -0.169316
C52   C     C_R   0.888072 0.721296 0.619319 -0.169309
H21   H     H_    0.376863 0.636305 0.134039 0.118819
H22   H     H_    0.623136 0.363695 0.865960 0.118819
H23   H     H_    0.123139 0.136307 0.365962 0.118819
H24   H     H_    0.876860 0.863693 0.634037 0.118819
C53   C     C_R   0.363577 0.945834 0.139729 -0.057455
C54   C     C_R   0.636423 0.054166 0.860271 -0.057457
C55   C     C_R   0.136423 0.445838 0.360271 -0.057458
C56   C     C_R   0.863577 0.554162 0.639729 -0.057456
C57   C     C_R   0.379674 0.127845 0.119054 -0.166940
C58   C     C_R   0.620326 0.872155 0.880947 -0.166943
C59   C     C_R   0.120324 0.627850 0.380945 -0.166966
C60   C     C_R   0.879676 0.372150 0.619054 -0.166958
H25   H     H_    0.361914 0.260078 0.133442 0.122078
H26   H     H_    0.638087 0.739922 0.866558 0.122078
H27   H     H_    0.138084 0.760084 0.366556 0.122078
H28   H     H_    0.861916 0.239916 0.633444 0.122078
C61   C     C_R   0.418809 0.142299 0.079232 -0.136560
C62   C     C_R   0.581191 0.857701 0.920768 -0.136563
C63   C     C_R   0.081188 0.642304 0.420767 -0.136597
C64   C     C_R   0.918811 0.357696 0.579233 -0.136590
C65   C     C_R   0.442860 0.975610 0.059027 0.130367
C66   C     C_R   0.557140 0.024390 0.940972 0.130366
C67   C     C_R   0.057140 0.475613 0.440972 0.130361
C68   C     C_R   0.942860 0.524387 0.559027 0.130362
C69   C     C_1   0.483188 0.992340 0.017400 -0.059685
C70   C     C_1   0.516812 0.007660 0.982600 -0.059686
C71   C     C_1   0.016812 0.492341 0.482599 -0.059714
C72   C     C_1   0.983188 0.507659 0.517400 -0.059712
O21   O     O_3   0.583704 0.154865 0.368974 -0.555960
C73   C     C_3   0.590643 0.990259 0.332228 -0.257960
H29   H     H_    0.552711 0.923940 0.314690 0.143337
H30   H     H_    0.616139 0.881013 0.358115 0.140308
H31   H     H_    0.610060 0.035879 0.291374 0.169130
O22   O     O_3   0.416297 0.845055 0.631020 -0.555966
C74   C     C_3   0.409404 0.009610 0.667806 -0.257949
H32   H     H_    0.383953 0.119039 0.641941 0.140317
H33   H     H_    0.447357 0.075708 0.685378 0.143326
H34   H     H_    0.389958 0.963987 0.708637 0.169121
O23   O     O_3   0.916350 0.656117 0.130944 -0.555973
C75   C     C_3   0.909596 0.491955 0.167953 -0.257968
H35   H     H_    0.947607 0.426597 0.185658 0.143289
H36   H     H_    0.884275 0.381850 0.142224 0.140354
H37   H     H_    0.890073 0.537869 0.208695 0.169100
O24   O     O_3   0.083650 0.343970 0.869046 -0.555965
C76   C     C_3   0.090493 0.508205 0.832104 -0.257995
H38   H     H_    0.115896 0.617990 0.857869 0.140333
H39   H     H_    0.052518 0.573969 0.814454 0.143314
H40   H     H_    0.109966 0.462268 0.791326 0.169115
H41   H     H_    0.430219 0.284069 0.064063 0.105186
H42   H     H_    0.569781 0.715931 0.935937 0.105187
H43   H     H_    0.069778 0.784075 0.435935 0.105187
H44   H     H_    0.930222 0.215925 0.564065 0.105185

loop_
_geom_bond_atom_site_label_1
_geom_bond_atom_site_label_2
_ccdc_geom_bond_type
O17   V3    S    
C48   C52   A    
O1    C5    A    
C73   H29   S    
C47   H19   S    
O19   V1    S    
C9    C21   A    
O3    C7    A    
C10   C18   A    
C74   H34   S    
C11   C23   A    
C25   C33   A    
O23   C75   S    
C5    C12   S    
O7    C3    A    
C6    C11   S    
O5    C1    A    
C26   C30   A    
C58   C62   A    
C36   C39   A    
C40   C44   A    
C57   C61   A    
C14   C18   A    
C76   H39   S    
C58   H26   S    
O4    C8    A    
C51   H23   S    
C15   H11   S    
C50   H22   S    
C63   H43   S    
O1    V3    S    
O13   V1    S    
O2    V4    S    
C66   C70   S    
C61   H41   S    
O3    V1    S    
C65   C69   S    
C40   H16   S    
C22   H1    S    
C46   C50   A    
C17   H6    S    
C45   C49   A    
C1    O15   A    
C15   C31   A    
C48   H20   S    
C2    O16   A    
C16   C32   A    
C47   C51   A    
O2    C6    A    
C16   H12   S    
C54   C58   A    
C10   C22   A    
C48   C68   A    
C11   C19   A    
C16   C20   A    
C1    C55   S    
C71   C72   T    
C13   C29   A    
C34   C37   A    
O11   C7    A    
C38   H14   S    
O15   V3    S    
C35   C36   A    
O12   C8    A    
O17   V1    S    
C47   C67   A    
O10   V2    S    
C75   H37   S    
C51   C55   A    
O5    V1    S    
C53   C57   A    
C39   C43   A    
O7    V3    S    
C38   C42   A    
O19   V3    S    
C26   C34   A    
O20   V4    S    
O24   C76   S    
C62   H42   S    
C75   H36   S    
C46   H18   S    
C76   H40   S    
C49   C53   A    
C64   H44   S    
C45   H17   S    
O18   V4    S    
C15   C19   A    
C14   H10   S    
C73   H31   S    
C33   C38   A    
C32   C44   A    
C13   H9    S    
C64   C68   A    
C39   H15   S    
O8    V4    S    
C20   H7    S    
C43   O23   S    
C4    C54   S    
C37   C41   A    
C31   C43   A    
C14   C30   A    
C21   C25   A    
O8    C4    A    
C7    C10   S    
C35   C40   A    
O9    C5    A    
C3    C53   S    
C45   C65   A    
C59   C63   A    
C69   C70   T    
C62   C66   A    
C61   C65   A    
O6    V2    S    
O18   V2    S    
C63   C67   A    
C46   C66   A    
O21   C73   S    
C12   C20   A    
C27   C35   A    
C24   H3    S    
C74   H32   S    
C49   H21   S    
C56   C60   A    
C29   C41   A    
O16   V4    S    
O9    V1    S    
C19   H8    S    
C57   H25   S    
C3    O13   A    
C18   H5    S    
C73   H30   S    
C21   H2    S    
C59   H27   S    
C75   H35   S    
C74   H33   S    
O6    C2    A    
C23   C27   A    
O11   V3    S    
C30   C42   A    
C67   C71   S    
O12   V4    S    
C22   C26   A    
C8    C9    S    
C9    C17   A    
O10   C6    A    
C52   C56   A    
O22   C74   S    
O20   V2    S    
C37   H13   S    
C76   H38   S    
C60   C64   A    
C33   C34   A    
C25   C29   A    
C52   H24   S    
C2    C56   S    
C12   C24   A    
C27   C31   A    
C13   C17   A    
C23   H4    S    
C44   O24   S    
C68   C72   S    
O14   V2    S    
C60   H28   S    
C24   C28   A    
C50   C54   A    
C28   C36   A    
C4    O14   A    
C55   C59   A    
O4    V2    S    
C28   C32   A    
C41   O21   S    
C42   O22   S    
