data_mof_unit_27222.cif
_audit_creation_date              2012-10-26T20:01:55-0400
_audit_creation_method            fapswitch 2.2
_symmetry_space_group_name_H-M    P1
_symmetry_Int_Tables_number       1
_space_group_crystal_system       triclinic
_cell_length_a                    11.67941
_cell_length_b                    10.857976
_cell_length_c                    9.710453
_cell_angle_alpha                 92.819623
_cell_angle_beta                  90.878999
_cell_angle_gamma                 95.542536
_cell_volume                      1223.93757567

loop_
_atom_site_label
_atom_site_type_symbol
_atom_type_description
_atom_site_fract_x
_atom_site_fract_y
_atom_site_fract_z
_atom_type_partial_charge
C1    C     C_R   0.500867 0.262079 0.497867 0.574264
C2    C     C_R   0.475208 0.868714 0.514433 -0.023038
C3    C     C_R   0.641600 0.678403 0.162083 -0.086460
C4    C     C_R   0.284366 0.498891 0.499114 0.580083
C5    C     C_R   0.691747 0.785492 0.109014 0.003597
C6    C     C_R   0.688141 0.795599 0.968596 -0.074096
C7    C     C_R   0.642752 0.696039 0.880850 0.030440
C8    C     C_R   0.570802 0.592062 0.933427 0.174644
C9    C     C_R   0.569921 0.589053 0.082396 0.150818
C10   C     C_R   0.432577 0.415942 0.066701 0.115991
C11   C     C_R   0.432743 0.414994 0.919501 0.114462
C12   C     C_R   0.603227 0.099366 0.853905 0.249276
C13   C     C_R   0.491293 0.736277 0.503959 0.523066
C14   C     C_R   0.715414 0.498630 0.500494 0.529161
C15   C     C_1   0.162434 0.498066 0.497733 0.060784
C16   C     C_1   0.059747 0.497420 0.498359 0.031855
C17   C     C_1   0.939785 0.497035 0.500001 0.037128
C18   C     C_1   0.837187 0.497321 0.501017 0.060814
C19   C     C_R   0.612038 0.136875 0.718915 -0.093680
C20   C     C_2   0.714220 0.696836 0.758950 0.285710
C21   C     C_2   0.353382 0.322501 0.839604 0.299367
C22   C     C_2   0.357785 0.320706 0.130120 0.361263
C23   C     C_R   0.528799 0.994620 0.881449 0.300567
C24   C     C_2   0.753215 0.883403 0.201981 0.302305
C25   C     C_R   0.482798 0.914310 0.771405 0.240486
C26   C     C_R   0.506457 0.945833 0.633686 -0.044655
C27   C     C_R   0.545908 0.069833 0.612650 -0.084992
C28   C     C_R   0.500676 0.126246 0.496995 0.034823
C29   C     C_R   0.429869 0.050159 0.401802 0.253922
C30   C     C_R   0.432609 0.922724 0.399634 -0.052790
Cl1   Cl    Cl    0.308890 0.101442 0.322848 -0.494731
Cl2   Cl    Cl    0.670814 0.196384 0.987810 -0.483910
Cl3   Cl    Cl    0.486185 0.970534 0.052215 -0.492360
Cl4   Cl    Cl    0.369431 0.800758 0.807331 -0.462636
Cu1   Cu    Cu3+1 0.499990 0.499990 0.640660 1.029153
Cu2   Cu    Cu3+1 0.500010 0.500010 0.359340 1.037967
H1    H     H_    0.735971 0.875693 0.926529 0.169820
H2    H     H_    0.661526 0.223812 0.700370 0.179199
H3    H     H_    0.389068 0.865031 0.316766 0.208975
H4    H     H_    0.660606 0.670195 0.267839 0.162157
H5    H     H_    0.695035 0.749907 0.671434 0.090143
H6    H     H_    0.283348 0.351174 0.778942 0.147964
H7    H     H_    0.380395 0.226668 0.119295 0.214158
H8    H     H_    0.755179 0.872716 0.312574 0.086695
N1    N     N_R   0.501070 0.501210 0.147910 -0.253657
N2    N     N_R   0.501110 0.501290 0.852040 -0.254848
O1    O     O_R   0.499990 0.319640 0.618810 -0.505743
O2    O     O_2   0.363176 0.212003 0.845495 -0.479547
O3    O     O_2   0.265570 0.343404 0.177427 -0.429461
O4    O     O_2   0.801812 0.977142 0.156735 -0.399900
O5    O     O_R   0.500000 0.319660 0.381240 -0.465393
O6    O     O_R   0.337190 0.500000 0.618790 -0.509350
O7    O     O_R   0.337200 0.500030 0.381210 -0.438996
O8    O     O_R   0.500000 0.680340 0.618760 -0.489611
O9    O     O_R   0.500010 0.680360 0.381190 -0.538709
O10   O     O_R   0.662800 0.499970 0.618790 -0.481617
O11   O     O_R   0.662810 0.500000 0.381210 -0.524116
O12   O     O_2   0.806974 0.653707 0.764457 -0.476761

loop_
_geom_bond_atom_site_label_1
_geom_bond_atom_site_label_2
_ccdc_geom_bond_type
C3    H4    S    
C1    C28   S    
C14   O10   A    
C9    N1    A    
C6    C7    A    
C3    C9    A    
C19   H2    S    
C4    O7    A    
C19   C27   A    
C14   C18   S    
Cu1   Cu2   S    
C25   Cl4   S    
C2    C30   A    
C21   O2    D    
Cu1   O1    S    
C10   N1    A    
C17   C18   T    
Cu1   O10   S    
C6    H1    S    
Cu2   N1    S    
C29   Cl1   S    
Cu2   O9    S    
C13   O8    A    
C12   Cl2   S    
Cu1   O8    S    
C1    O5    A    
C12   C23   A    
C26   C27   A    
C29   C30   A    
C5    C24   S    
C4    O6    A    
C22   O3    D    
C12   C19   A    
C27   C28   A    
C28   C29   A    
C30   H3    S    
C20   H5    S    
C23   C25   A    
C4    C15   S    
C24   O4    D    
C5    C6    A    
C24   H8    S    
C8    N2    A    
C10   C11   A    
C20   O12   D    
C15   C16   T    
C3    C5    A    
C7    C8    A    
Cu2   O5    S    
Cu2   O11   S    
C8    C9    A    
C2    C26   A    
C7    C20   S    
Cu1   O6    S    
C14   O11   A    
C2    C13   S    
C1    O1    A    
C11   N2    A    
Cu2   O7    S    
C13   O9    A    
C25   C26   A    
Cu1   N2    S    
C11   C21   S    
C21   H6    S    
C10   C22   S    
C22   H7    S    
C16   C17   S    
C23   Cl3   S    
