data_mof_unit_26784.cif
_audit_creation_date              2012-12-10T18:09:44-0500
_audit_creation_method            fapswitch 2.2
_symmetry_space_group_name_H-M    P1
_symmetry_Int_Tables_number       1
_space_group_crystal_system       triclinic
_cell_length_a                    10.62708
_cell_length_b                    12.698352
_cell_length_c                    13.074951
_cell_angle_alpha                 82.038647
_cell_angle_beta                  91.948049
_cell_angle_gamma                 102.392433
_cell_volume                      1706.68143268

loop_
_atom_site_label
_atom_site_type_symbol
_atom_type_description
_atom_site_fract_x
_atom_site_fract_y
_atom_site_fract_z
_atom_type_partial_charge
C1    C     C_R   0.479448 0.439071 0.690980 0.858346
C2    C     C_3   0.120987 0.499252 0.501276 0.033961
C3    C     C_3   0.061935 0.478864 0.394107 -0.361271
C4    C     C_3   0.100657 0.611803 0.524403 -0.466795
C5    C     C_R   0.410800 0.703702 0.059706 -0.148773
C6    C     C_R   0.500197 0.595665 0.198679 -0.096007
C7    C     C_R   0.482280 0.297456 0.840169 -0.262046
C8    C     C_R   0.479152 0.264469 0.945915 -0.192552
C9    C     C_R   0.463105 0.336320 0.013290 0.614913
C10   C     C_R   0.446585 0.442727 0.973983 -0.052973
C11   C     C_R   0.424268 0.466847 0.867528 -0.070609
C12   C     C_R   0.741671 0.500672 0.500681 0.839440
C13   C     C_R   0.452243 0.526547 0.035663 0.024064
C14   C     C_R   0.407446 0.622066 0.996670 0.023724
C15   C     C_R   0.361121 0.634193 0.895474 0.587788
C16   C     C_R   0.370652 0.557883 0.831233 -0.256548
C17   C     C_R   0.508718 0.520558 0.133084 -0.160803
C18   C     C_R   0.455049 0.689617 0.161242 -0.187896
C19   C     C_R   0.457562 0.399507 0.800429 -0.078991
C20   C     C_R   0.307367 0.088105 0.355254 -0.221535
C21   C     C_R   0.653144 0.797079 0.631522 -0.083647
C22   C     C_R   0.680038 0.897696 0.666342 -0.270346
C23   C     C_R   0.512902 0.560778 0.308538 0.881466
C24   C     C_R   0.618981 0.979342 0.621259 0.668984
C25   C     C_R   0.531816 0.961312 0.537275 -0.192079
C26   C     C_R   0.504217 0.855263 0.506655 0.048613
C27   C     C_R   0.469139 0.042010 0.483275 0.009243
C28   C     C_R   0.373121 0.012626 0.407824 0.071897
C29   C     C_R   0.345221 0.908825 0.382447 -0.338724
C30   C     C_R   0.411564 0.832932 0.427737 0.613793
C31   C     C_R   0.498953 0.151990 0.497519 0.020621
C32   C     C_R   0.338844 0.193882 0.375782 0.119827
C33   C     C_R   0.258101 0.499270 0.500595 0.868539
C34   C     C_3   0.907462 0.411354 0.586161 -0.409833
C35   C     C_3   0.051747 0.409732 0.586109 0.493029
C36   C     C_3   0.917711 0.479649 0.394310 -0.399200
C37   C     C_3   0.958126 0.612959 0.524421 -0.418331
C38   C     C_3   0.878507 0.501433 0.501427 0.086731
H1    H     H_    0.849625 0.330338 0.572522 0.235138
H2    H     H_    0.149054 0.678084 0.464885 0.245188
H3    H     H_    0.896613 0.543597 0.332892 0.163446
H4    H     H_    0.111361 0.543144 0.333226 0.177193
H5    H     H_    0.449787 0.750023 0.210614 0.210912
H6    H     H_    0.376244 0.776795 0.031672 0.198126
H7    H     H_    0.558381 0.456335 0.160786 0.209105
H8    H     H_    0.504942 0.243427 0.789571 0.216214
H9    H     H_    0.492836 0.183848 0.975982 0.184330
H10   H     H_    0.879888 0.426585 0.663333 0.125126
H11   H     H_    0.334270 0.570260 0.753186 0.181148
H12   H     H_    0.289160 0.254157 0.336878 0.146734
H13   H     H_    0.273759 0.886588 0.323501 0.176107
H14   H     H_    0.233315 0.065620 0.298415 0.152092
H15   H     H_    0.574724 0.185973 0.547189 0.204145
H16   H     H_    0.699164 0.733182 0.667766 0.164054
H17   H     H_    0.746470 0.911761 0.730101 0.186361
H18   H     H_    0.094131 0.425275 0.663055 0.055808
H19   H     H_    0.861562 0.399850 0.375849 0.201277
H20   H     H_    0.074928 0.399205 0.374787 0.214651
H21   H     H_    0.938703 0.679378 0.464901 0.202026
H22   H     H_    0.931532 0.630531 0.601038 0.192612
H23   H     H_    0.142925 0.629374 0.600961 0.194194
N1    N     N_R   0.433240 0.222190 0.444680 -0.133842
N2    N     N_R   0.566070 0.776970 0.554790 -0.103602
O1    O     O_R   0.468120 0.366740 0.627160 -0.600560
O2    O     O_R   0.510770 0.544830 0.662520 -0.624352
O3    O     O_R   0.663880 0.410950 0.482330 -0.631412
O4    O     O_R   0.706530 0.589040 0.517700 -0.631548
O5    O     O_R   0.489230 0.455170 0.337480 -0.611432
O6    O     O_R   0.531880 0.633260 0.372840 -0.537110
O7    O     O_R   0.293470 0.410960 0.482300 -0.576507
O8    O     O_R   0.336120 0.589050 0.517670 -0.568493
Zn1   Zn    Zn3+2 0.471520 0.381090 0.476390 0.992843
Zn2   Zn    Zn3+2 0.528480 0.618910 0.523610 0.987251
F1    F     F_    0.312176 0.722107 0.857090 -0.672451
F2    F     F_    0.453188 0.297314 0.115373 -0.699385
F3    F     F_    0.641808 0.071670 0.665896 -0.697100
F4    F     F_    0.381410 0.739428 0.388777 -0.680591
F5    F     F_    0.066632 0.307519 0.569463 -0.643720

loop_
_geom_bond_atom_site_label_1
_geom_bond_atom_site_label_2
_ccdc_geom_bond_type
C2    C35   S    
C24   C25   A    
C3    H4    S    
C23   O6    A    
C7    C8    A    
C11   C19   A    
C29   C30   A    
C28   C29   A    
C17   H7    S    
C20   C32   A    
C21   H16   S    
C15   C16   A    
O2    Zn2   S    
C34   C35   S    
C30   F4    S    
O3    Zn1   S    
C4    H2    S    
C8    C9    A    
C1    O2    A    
O6    Zn2   S    
O4    Zn2   S    
C9    C10   A    
C13   C14   A    
C31   N1    A    
C36   H3    S    
C6    C18   A    
C12   O4    A    
C1    C19   S    
C27   C31   A    
C34   H1    S    
C7    H8    S    
C16   H11   S    
C36   H19   S    
O8    Zn2   S    
C24   F3    S    
C5    C18   A    
C20   C28   A    
C25   C26   A    
C12   O3    A    
C4    H23   S    
C23   O5    A    
C2    C4    S    
C26   N2    A    
C37   C38   S    
C11   C16   A    
O5    Zn1   S    
N1    Zn1   S    
C31   H15   S    
C32   H12   S    
C5    C14   A    
C37   H21   S    
C33   O7    A    
C2    C33   S    
C5    H6    S    
C26   C30   A    
C7    C19   A    
C22   C24   A    
C34   H10   S    
C1    O1    A    
C29   H13   S    
C6    C17   A    
C35   H18   S    
C34   C38   S    
C10   C13   A    
C22   H17   S    
C25   C27   A    
N2    Zn2   S    
C35   F5    S    
C13   C17   A    
C36   C38   S    
C2    C3    S    
C8    H9    S    
C32   N1    A    
C20   H14   S    
C18   H5    S    
C3    C36   S    
C6    C23   S    
O1    Zn1   S    
C12   C38   S    
C21   N2    A    
C37   H22   S    
C10   C11   A    
C33   O8    A    
C3    H20   S    
C15   F1    S    
C4    C37   S    
C27   C28   A    
C14   C15   A    
O7    Zn1   S    
C9    F2    S    
C21   C22   A    
