data_mof_unit_51144.cif
_audit_creation_date              2012-12-10T18:33:39-0500
_audit_creation_method            fapswitch 2.2
_symmetry_space_group_name_H-M    P1
_symmetry_Int_Tables_number       1
_space_group_crystal_system       triclinic
_cell_length_a                    10.505926
_cell_length_b                    14.998099
_cell_length_c                    15.451168
_cell_angle_alpha                 81.778427
_cell_angle_beta                  89.873549
_cell_angle_gamma                 104.909007
_cell_volume                      2326.54754054

loop_
_atom_site_label
_atom_site_type_symbol
_atom_type_description
_atom_site_fract_x
_atom_site_fract_y
_atom_site_fract_z
_atom_type_partial_charge
C1    C     C_R   0.478180 0.440965 0.662615 0.906122
C2    C     C_R   0.515512 0.558820 0.337372 0.915890
C3    C     C_R   0.437901 0.468747 0.811021 -0.246275
C4    C     C_R   0.468030 0.526520 0.188776 -0.270852
C5    C     C_R   0.400990 0.441519 0.899583 0.101980
C6    C     C_R   0.435438 0.548972 0.102447 0.094227
C7    C     C_R   0.374413 0.345721 0.934124 0.101555
C8    C     C_R   0.449240 0.643826 0.068821 0.104775
C9    C     C_R   0.401309 0.508283 0.955897 0.083198
C10   C     C_R   0.398931 0.479748 0.047198 0.084893
C11   C     C_R   0.362827 0.383186 0.079853 -0.196724
C12   C     C_R   0.407869 0.602829 0.924366 -0.192367
C13   C     C_R   0.348602 0.317183 0.023655 -0.169312
C14   C     C_R   0.429240 0.669223 0.980607 -0.176690
C15   C     C_R   0.702911 0.843543 0.633071 -0.239533
C16   C     C_R   0.300189 0.157331 0.364794 -0.242225
C17   C     C_R   0.667756 0.754149 0.611646 0.010035
C18   C     C_R   0.334385 0.246458 0.386880 0.010288
C19   C     C_R   0.511350 0.793200 0.513117 0.036582
C20   C     C_R   0.487504 0.206498 0.487677 0.039269
C21   C     C_R   0.543471 0.885963 0.530757 -0.017931
C22   C     C_R   0.457332 0.114271 0.468678 -0.018815
C23   C     C_R   0.742576 0.501054 0.500414 0.929737
C24   C     C_R   0.257434 0.498898 0.499714 0.920531
C25   C     C_R   0.641707 0.910685 0.592708 0.084917
C26   C     C_R   0.360686 0.089986 0.405636 0.089869
C27   C     C_R   0.482213 0.954098 0.488843 0.033472
C28   C     C_R   0.519113 0.046273 0.510222 0.032618
C29   C     C_R   0.616826 0.067748 0.572226 -0.208020
C30   C     C_R   0.385914 0.933004 0.425875 -0.207890
C31   C     C_R   0.677209 0.001785 0.612743 0.271764
C32   C     C_R   0.326298 0.999178 0.384840 0.271971
C33   C     C_3   0.930066 0.428678 0.558669 -0.230243
C34   C     C_3   0.070012 0.571211 0.441693 -0.233459
C35   C     C_3   0.045498 0.508228 0.579732 0.321466
C36   C     C_3   0.954623 0.491661 0.420637 0.318870
C37   C     C_3   0.121788 0.497426 0.499501 -0.102145
C38   C     C_3   0.878266 0.502466 0.500836 -0.106506
C39   C     C_3   0.008532 0.417783 0.477627 -0.199201
C40   C     C_3   0.991556 0.582112 0.522739 -0.196980
C41   C     C_R   0.445275 0.403904 0.755803 -0.127226
C42   C     C_R   0.503076 0.593860 0.244445 -0.126728
C43   C     C_R   0.378432 0.279833 0.879231 -0.186084
C44   C     C_R   0.486167 0.712385 0.123328 -0.188501
C45   C     C_R   0.414262 0.307830 0.790530 0.290793
C46   C     C_R   0.512682 0.688468 0.210917 0.283797
H1    H     H_    0.019043 0.351257 0.458742 0.187607
H2    H     H_    0.981064 0.648645 0.541617 0.187156
N1    N     N_R   0.574200 0.731700 0.552740 -0.103479
N2    N     N_R   0.425800 0.268300 0.447260 -0.101429
O1    O     O_R   0.462600 0.383110 0.605620 -0.574909
O2    O     O_R   0.537400 0.616890 0.394380 -0.574174
O3    O     O_R   0.510210 0.531900 0.639510 -0.625757
O4    O     O_R   0.489790 0.468100 0.360490 -0.623301
O5    O     O_R   0.662240 0.425610 0.483080 -0.605323
O6    O     O_R   0.337760 0.574390 0.516920 -0.609038
O7    O     O_R   0.709860 0.574400 0.516970 -0.620853
O8    O     O_R   0.290140 0.425600 0.483030 -0.623545
Zn1   Zn    Zn3+2 0.468210 0.400660 0.477370 0.996658
Zn2   Zn    Zn3+2 0.531790 0.599340 0.522630 0.994317
Br1   Br    Br    0.115687 0.519007 0.694807 -0.498904
Br2   Br    Br    0.885035 0.480780 0.305473 -0.474966
H3    H     H_    0.558167 0.232085 0.534307 0.144958
H4    H     H_    0.438104 0.766936 0.468255 0.144250
H5    H     H_    0.287811 0.298702 0.356139 0.136133
H6    H     H_    0.715318 0.702185 0.641699 0.143946
H7    H     H_    0.778010 0.859087 0.680407 0.201155
H8    H     H_    0.226618 0.142216 0.316411 0.197007
H9    H     H_    0.650356 0.135911 0.591069 0.177839
H10   H     H_    0.353893 0.865235 0.406006 0.179730
H11   H     H_    0.869137 0.371372 0.606783 0.188353
H12   H     H_    0.130977 0.628490 0.393564 0.186614
H13   H     H_    0.323863 0.243811 0.050863 0.168151
H14   H     H_    0.435855 0.741305 0.954197 0.167963
H15   H     H_    0.470250 0.455977 0.213088 0.182888
H16   H     H_    0.467081 0.541747 0.784606 0.178431
Br3   Br    Br    0.563918 0.789695 0.277784 -0.469619
Br4   Br    Br    0.423608 0.210515 0.724078 -0.473912
H17   H     H_    0.357337 0.206423 0.905898 0.183258
H18   H     H_    0.495915 0.785040 0.097491 0.184000
H19   H     H_    0.343349 0.356861 0.148678 0.146901
H20   H     H_    0.394578 0.627036 0.856624 0.169922
Br5   Br    Br    0.809208 0.042084 0.695242 -0.458815
Br6   Br    Br    0.197048 0.959622 0.300464 -0.464126

loop_
_geom_bond_atom_site_label_1
_geom_bond_atom_site_label_2
_ccdc_geom_bond_type
C25   C31   A    
C38   C40   S    
C26   C32   A    
O5    Zn1   S    
C34   C37   S    
C11   H19   S    
C18   H5    S    
C17   H6    S    
C33   C39   S    
N1    Zn2   S    
C34   C40   S    
N2    Zn1   S    
C14   H14   S    
C28   C29   A    
C35   C37   S    
C15   C25   A    
C43   H17   S    
C31   Br5   S    
C40   H2    S    
C42   C46   A    
C1    O3    A    
C4    H15   S    
C20   N2    A    
O2    Zn2   S    
C45   Br4   S    
C16   H8    S    
C7    C43   A    
C9    C10   A    
C21   C27   A    
C22   C28   A    
C27   C30   A    
C36   Br2   S    
C30   H10   S    
O3    Zn2   S    
C44   C46   A    
C29   H9    S    
O4    Zn1   S    
C16   C26   A    
C32   Br6   S    
C44   H18   S    
C4    C6    A    
C2    O4    A    
C17   N1    A    
C5    C7    A    
O7    Zn2   S    
C6    C8    A    
O8    Zn1   S    
O6    Zn2   S    
C5    C9    A    
C43   C45   A    
C19   N1    A    
C19   H4    S    
C29   C31   A    
C15   H7    S    
C24   C37   S    
C12   H20   S    
C35   Br1   S    
C16   C18   A    
C3    H16   S    
C1    O1    A    
C2    O2    A    
C1    C41   S    
C12   C14   A    
O1    Zn1   S    
C34   H12   S    
C18   N2    A    
C39   H1    S    
C23   O7    A    
C21   C25   A    
C3    C41   A    
C8    C14   A    
C19   C21   A    
C13   H13   S    
C36   C39   S    
C8    C44   A    
C20   C22   A    
C3    C5    A    
C6    C10   A    
C46   Br3   S    
C23   O5    A    
C24   O6    A    
C23   C38   S    
C33   C38   S    
C20   H3    S    
C36   C38   S    
C35   C40   S    
C37   C39   S    
C30   C32   A    
C11   C13   A    
C4    C42   A    
C2    C42   S    
C33   C35   S    
C34   C36   S    
C9    C12   A    
C10   C11   A    
C33   H11   S    
C7    C13   A    
C24   O8    A    
C22   C26   A    
C27   C28   A    
C41   C45   A    
C15   C17   A    
