data_mof_unit_23096.cif
_audit_creation_date              2012-12-10T17:24:09-0500
_audit_creation_method            fapswitch 2.2
_symmetry_space_group_name_H-M    P1
_symmetry_Int_Tables_number       1
_space_group_crystal_system       triclinic
_cell_length_a                    10.114142
_cell_length_b                    10.66061
_cell_length_c                    15.484292
_cell_angle_alpha                 90.476469
_cell_angle_beta                  77.978371
_cell_angle_gamma                 95.117022
_cell_volume                      1626.34840134

loop_
_atom_site_label
_atom_site_type_symbol
_atom_type_description
_atom_site_fract_x
_atom_site_fract_y
_atom_site_fract_z
_atom_type_partial_charge
C1    C     C_R   0.557076 0.733697 0.491126 0.818283
C2    C     C_R   0.518094 0.500435 0.340866 0.869556
C3    C     C_R   0.483058 0.537022 0.751777 -0.113310
C4    C     C_R   0.536393 0.530933 0.245367 -0.114946
C5    C     C_R   0.590706 0.508483 0.790487 -0.284146
C6    C     C_R   0.429049 0.573861 0.211921 -0.294635
C7    C     C_R   0.620171 0.577538 0.863651 0.472502
C8    C     C_R   0.453883 0.638442 0.129563 0.476583
C9    C     C_R   0.536044 0.671911 0.899476 -0.079842
C10   C     C_R   0.589704 0.664531 0.084028 -0.064658
C11   C     C_R   0.418596 0.687614 0.867632 -0.203900
C12   C     C_R   0.443499 0.266566 0.502796 0.803455
C13   C     C_R   0.693815 0.608877 0.112432 -0.165244
C14   C     C_R   0.391566 0.620046 0.794943 -0.226560
C15   C     C_R   0.667208 0.541030 0.191671 -0.205727
C16   C     C_2   0.594253 0.781471 0.943532 0.457143
C17   C     C_2   0.627885 0.775763 0.023135 0.412508
C18   C     C_3   0.660911 0.919328 0.131636 0.100368
C19   C     C_3   0.726045 0.052610 0.140124 -0.321390
C20   C     C_3   0.687667 0.100729 0.234016 -0.967661
C21   C     C_3   0.704938 0.900956 0.821255 0.101955
C22   C     C_3   0.850032 0.929170 0.835498 -0.361904
C23   C     C_2   0.590476 0.867199 0.472157 0.263911
C24   C     C_3   0.873393 0.062562 0.869445 -0.765477
C25   C     C_3   0.226227 0.625251 0.112642 0.081215
C26   C     C_3   0.231704 0.498121 0.064737 -0.371694
C27   C     C_3   0.089243 0.435158 0.067345 -0.958569
C28   C     C_3   0.853501 0.556415 0.835480 0.047790
C29   C     C_3   0.902463 0.424232 0.831714 -0.334336
C30   C     C_3   0.028218 0.414563 0.758790 -0.943430
C31   C     C_3   0.281987 0.059663 0.625386 0.097912
C32   C     C_3   0.210871 0.930270 0.655819 -0.329303
C33   C     C_3   0.212046 0.904996 0.752492 -1.010031
C34   C     C_2   0.411838 0.132818 0.493526 0.284710
C35   C     C_3   0.738718 0.971629 0.547126 0.064344
C36   C     C_3   0.857747 0.073742 0.530281 -0.287171
C37   C     C_3   0.880154 0.136797 0.615465 -0.974524
C38   C     C_2   0.493199 0.932047 0.452031 -0.225920
C39   C     C_2   0.509440 0.067302 0.447957 -0.260495
C40   C     C_2   0.926828 0.509897 0.509378 -0.125584
C41   C     C_2   0.071788 0.486105 0.493721 -0.144989
C42   C     C_R   0.483140 0.504139 0.658817 0.866920
H1    H     H_    0.657625 0.440145 0.759192 0.151047
H2    H     H_    0.887496 0.580360 0.556535 0.156112
H3    H     H_    0.114065 0.620513 0.575200 0.156551
H4    H     H_    0.886946 0.382349 0.422664 0.155826
H5    H     H_    0.690490 0.856271 0.179924 0.155702
H6    H     H_    0.548378 0.921865 0.146391 0.157665
H7    H     H_    0.838350 0.053150 0.121096 0.231080
H8    H     H_    0.692365 0.117096 0.094580 0.229051
H9    H     H_    0.575743 0.101512 0.254370 0.269684
H10   H     H_    0.734959 0.198223 0.237612 0.262271
H11   H     H_    0.724994 0.039554 0.279800 0.288204
H12   H     H_    0.329134 0.566909 0.253994 0.155639
H13   H     H_    0.682173 0.976384 0.778896 0.153378
H14   H     H_    0.697844 0.812922 0.782763 0.069502
H15   H     H_    0.871973 0.859853 0.882603 0.235590
H16   H     H_    0.921665 0.918721 0.771766 0.165242
H17   H     H_    0.861634 0.132479 0.819570 0.232250
H18   H     H_    0.977558 0.078463 0.882084 0.224665
H19   H     H_    0.800035 0.077236 0.931939 0.302010
H20   H     H_    0.157767 0.681811 0.084655 0.176344
H21   H     H_    0.178307 0.613580 0.183688 0.130822
H22   H     H_    0.284719 0.512843 0.994817 0.247165
H23   H     H_    0.751928 0.507852 0.214891 0.161165
H24   H     H_    0.288579 0.433844 0.096359 0.220378
H25   H     H_    0.034142 0.418281 0.136769 0.260903
H26   H     H_    0.096248 0.343325 0.033071 0.269574
H27   H     H_    0.031159 0.495425 0.033455 0.261510
H28   H     H_    0.931446 0.622895 0.856606 0.147556
H29   H     H_    0.846475 0.589479 0.768498 0.116560
H30   H     H_    0.926559 0.401072 0.896268 0.230216
H31   H     H_    0.820820 0.353860 0.819661 0.219104
H32   H     H_    0.004136 0.431741 0.693399 0.266795
H33   H     H_    0.062753 0.318621 0.759346 0.261014
H34   H     H_    0.307291 0.643345 0.766916 0.165375
H35   H     H_    0.111583 0.484245 0.769186 0.266721
H36   H     H_    0.223199 0.134071 0.661728 0.153206
H37   H     H_    0.384285 0.066675 0.642976 0.106087
H38   H     H_    0.104596 0.924893 0.646498 0.212296
H39   H     H_    0.263359 0.856079 0.614957 0.233950
H40   H     H_    0.317789 0.898971 0.760770 0.273301
H41   H     H_    0.151679 0.814480 0.774375 0.252067
H42   H     H_    0.167342 0.981513 0.794651 0.275637
H43   H     H_    0.761379 0.895573 0.589201 0.128187
H44   H     H_    0.646841 0.015195 0.583217 0.126182
H45   H     H_    0.354870 0.761415 0.893679 0.185758
H46   H     H_    0.951837 0.031365 0.497807 0.241387
H47   H     H_    0.837188 0.146685 0.485097 0.220214
H48   H     H_    0.787486 0.180019 0.649366 0.260626
H49   H     H_    0.965331 0.211824 0.600013 0.283159
H50   H     H_    0.906614 0.066670 0.659969 0.258453
H51   H     H_    0.798098 0.628096 0.077334 0.168647
H52   H     H_    0.609043 0.112940 0.419174 0.190945
H53   H     H_    0.392468 0.887245 0.451522 0.195769
H54   H     H_    0.110216 0.412996 0.448607 0.168916
N1    N     N_2   0.846390 0.448330 0.467170 -0.183522
N2    N     N_2   0.153610 0.551670 0.532830 -0.188234
O1    O     O_R   0.430310 0.692580 0.506610 -0.637374
O2    O     O_3   0.609756 0.899249 0.902635 -0.602958
O3    O     O_3   0.354094 0.696822 0.098978 -0.680335
O4    O     O_3   0.731660 0.558519 0.900012 -0.672461
O5    O     O_3   0.286565 0.074243 0.533956 -0.636427
O6    O     O_3   0.722226 0.921250 0.464914 -0.631627
O7    O     O_R   0.569690 0.307420 0.493390 -0.628350
O8    O     O_R   0.652740 0.659410 0.485540 -0.565587
O9    O     O_R   0.347260 0.340590 0.514460 -0.571894
O10   O     O_R   0.375640 0.518570 0.627580 -0.589888
O11   O     O_R   0.624360 0.481430 0.372420 -0.594993
O12   O     O_R   0.598070 0.485390 0.606510 -0.593924
O13   O     O_R   0.401930 0.514610 0.393490 -0.592825
O14   O     O_3   0.709292 0.878264 0.044942 -0.642635
Zn1   Zn    Zn3+2 0.351480 0.522150 0.514070 0.918216
Zn2   Zn    Zn3+2 0.648520 0.477850 0.485930 0.923654

loop_
_geom_bond_atom_site_label_1
_geom_bond_atom_site_label_2
_ccdc_geom_bond_type
C36   H47   S    
C2    O11   A    
C24   H19   S    
C35   C36   S    
C18   H5    S    
C1    O1    A    
C22   H15   S    
C3    C42   S    
C36   H46   S    
C32   H39   S    
C26   C27   S    
C37   H48   S    
O8    Zn2   S    
C36   C37   S    
C9    C16   S    
C18   O14   S    
C20   H9    S    
H3    N2    S    
C38   C39   S    
C30   H32   S    
C35   H44   S    
C41   H54   S    
C29   H31   S    
C10   C17   S    
C15   H23   S    
C18   C19   S    
C25   H21   S    
C26   H22   S    
O9    Zn1   S    
C27   H26   S    
C30   H35   S    
C31   C32   S    
C11   H45   S    
C16   C17   D    
C7    O4    S    
C38   H53   S    
C8    O3    S    
O12   Zn2   S    
C27   H27   S    
C1    O8    A    
C29   H30   S    
C5    H1    S    
C21   C22   S    
C21   H14   S    
C6    H12   S    
C2    O13   A    
C37   H49   S    
C34   C39   D    
C26   H24   S    
O7    Zn2   S    
C4    C6    A    
C35   O6    S    
C40   N1    D    
C21   H13   S    
C21   O2    S    
C16   O2    S    
N2    Zn1   S    
C6    C8    A    
C25   C26   S    
C13   H51   S    
C14   H34   S    
O10   Zn1   S    
C2    C4    S    
C39   H52   S    
C22   H16   S    
C29   C30   S    
C32   H38   S    
C9    C11   A    
C19   H7    S    
C23   O6    S    
C24   H18   S    
O13   Zn1   S    
C33   H41   S    
C3    C14   A    
O11   Zn2   S    
C40   C41   S    
H4    N1    S    
C1    C23   S    
C13   C15   A    
C22   C24   S    
C28   H29   S    
C12   C34   S    
C17   O14   S    
C31   H36   S    
C5    C7    A    
C33   H40   S    
C7    C9    A    
C28   C29   S    
C37   H50   S    
C28   H28   S    
C20   H11   S    
C3    C5    A    
C10   C13   A    
C18   H6    S    
O1    Zn1   S    
C12   O9    A    
C31   H37   S    
C23   C38   D    
C34   O5    S    
C32   C33   S    
C19   C20   S    
C42   O12   A    
C20   H10   S    
C30   H33   S    
C35   H43   S    
C19   H8    S    
C25   O3    S    
C12   O7    A    
C4    C15   A    
C24   H17   S    
C11   C14   A    
C25   H20   S    
C33   H42   S    
C27   H25   S    
C28   O4    S    
C40   H2    S    
C8    C10   A    
C41   N2    D    
N1    Zn2   S    
C42   O10   A    
C31   O5    S    
