data_mof_unit_45425.cif
_audit_creation_date              2012-12-10T17:29:14-0500
_audit_creation_method            fapswitch 2.2
_symmetry_space_group_name_H-M    P1
_symmetry_Int_Tables_number       1
_space_group_crystal_system       triclinic
_cell_length_a                    11.999982
_cell_length_b                    12.814697
_cell_length_c                    13.05112
_cell_angle_alpha                 86.972114
_cell_angle_beta                  114.457697
_cell_angle_gamma                 94.574869
_cell_volume                      1820.6074361

loop_
_atom_site_label
_atom_site_type_symbol
_atom_type_description
_atom_site_fract_x
_atom_site_fract_y
_atom_site_fract_z
_atom_type_partial_charge
C1    C     C_R   0.476604 0.299689 0.499412 0.873233
C2    C     C_R   0.618807 0.512802 0.833174 -0.151866
C3    C     C_R   0.545844 0.810825 0.516569 -0.133419
C4    C     C_R   0.569288 0.501142 0.709980 0.830638
C5    C     C_R   0.459608 0.188221 0.497084 -0.124212
C6    C     C_R   0.367766 0.040209 0.380276 -0.190957
C7    C     C_R   0.367046 0.144082 0.401795 -0.205525
C8    C     C_R   0.548787 0.128310 0.578282 -0.052083
C9    C     C_R   0.547804 0.021532 0.558442 0.054080
C10   C     C_R   0.459958 0.978457 0.455691 0.140487
C11   C     C_R   0.464473 0.874120 0.431579 0.144789
C12   C     C_R   0.564079 0.530245 0.990622 0.107315
C13   C     C_R   0.630212 0.851344 0.620581 -0.110094
C14   C     C_R   0.631051 0.956960 0.639309 -0.130166
C15   C     C_R   0.008425 0.601624 0.393613 0.078274
C16   C     C_R   0.525008 0.699997 0.504823 0.855809
C17   C     C_R   0.129698 0.590789 0.406031 0.068747
C18   C     C_R   0.158207 0.457474 0.545554 -0.056802
C19   C     C_R   0.037742 0.465057 0.537420 0.032276
C20   C     C_R   0.961197 0.537663 0.460496 0.057198
C21   C     C_R   0.840240 0.543456 0.453713 -0.044066
C22   C     C_R   0.872215 0.410367 0.594175 0.035493
C23   C     C_R   0.544589 0.555540 0.878876 0.056823
C24   C     C_R   0.992295 0.401514 0.604396 -0.283888
C25   C     C_R   0.431694 0.505546 0.289828 0.891755
C26   C     C_R   0.272115 0.616706 0.991567 0.115270
C27   C     C_R   0.389513 0.523304 0.167655 -0.139577
C28   C     C_R   0.732917 0.473322 0.907392 0.178399
C29   C     C_R   0.762151 0.466967 0.022792 -0.104509
C30   C     C_R   0.677529 0.491047 0.063578 -0.259329
C31   C     C_2   0.188380 0.594333 0.139272 0.400909
C32   C     C_2   0.713605 0.783936 0.713065 0.396061
C33   C     C_2   0.641796 0.180502 0.680929 0.365383
C34   C     C_R   0.469347 0.545422 0.025142 0.051786
C35   C     C_3   0.932598 0.681058 0.309639 -0.917049
C36   C     C_3   0.157878 0.670026 0.912818 -0.906579
C37   C     C_3   0.824974 0.437676 0.867715 -0.826189
C38   C     C_3   0.382467 0.830427 0.316189 -0.918321
C39   C     C_R   0.367630 0.603540 0.956496 0.141810
C40   C     C_R   0.364027 0.646169 0.853926 -0.226412
C41   C     C_R   0.450846 0.622350 0.815722 -0.182004
C42   C     C_R   0.472082 0.499756 0.124653 -0.286245
C43   C     C_R   0.284340 0.577511 0.099332 -0.005567
H1    H     H_    0.296266 0.009806 0.303432 0.163226
H2    H     H_    0.541680 0.446774 0.173006 0.173312
H3    H     H_    0.705156 0.482153 0.153345 0.148186
H4    H     H_    0.849121 0.439025 0.081666 0.179201
H5    H     H_    0.444378 0.657672 0.736438 0.167900
H6    H     H_    0.161080 0.672835 0.140394 0.054755
H7    H     H_    0.710127 0.700116 0.704716 0.083432
H8    H     H_    0.612960 0.235991 0.723705 0.047872
H9    H     H_    0.984138 0.723546 0.264775 0.246568
H10   H     H_    0.849003 0.641320 0.245782 0.251011
H11   H     H_    0.905703 0.739565 0.353588 0.247017
H12   H     H_    0.693165 0.986626 0.720414 0.234690
H13   H     H_    0.117256 0.630292 0.830567 0.247277
H14   H     H_    0.084379 0.667534 0.943462 0.251533
H15   H     H_    0.182355 0.753529 0.899751 0.246616
H16   H     H_    0.909003 0.411855 0.938903 0.248731
H17   H     H_    0.784562 0.370270 0.811362 0.251198
H18   H     H_    0.853979 0.503204 0.823198 0.248097
H19   H     H_    0.391059 0.883150 0.249178 0.241564
H20   H     H_    0.407619 0.752747 0.302044 0.228661
H21   H     H_    0.285483 0.823072 0.305585 0.232417
H22   H     H_    0.299191 0.191989 0.339824 0.165991
H23   H     H_    0.778934 0.598228 0.396027 0.148653
H24   H     H_    0.837994 0.361047 0.645936 0.169367
H25   H     H_    0.049145 0.345240 0.664267 0.162030
H26   H     H_    0.167141 0.639457 0.356086 0.139649
H27   H     H_    0.292850 0.695981 0.800584 0.166135
H28   H     H_    0.217386 0.401736 0.604105 0.143713
N1    N     N_R   0.798200 0.480260 0.519790 -0.106485
N2    N     N_R   0.201820 0.519740 0.480210 -0.115216
O1    O     O_R   0.579910 0.341070 0.505280 -0.598863
O2    O     O_2   0.788140 0.821604 0.801111 -0.562857
O3    O     O_2   0.750983 0.167582 0.713498 -0.579261
O4    O     O_R   0.388440 0.353740 0.492580 -0.607706
O5    O     O_R   0.643280 0.490550 0.663120 -0.620061
O6    O     O_R   0.451810 0.503220 0.650420 -0.614718
O7    O     O_R   0.611560 0.646260 0.507420 -0.629539
O8    O     O_R   0.420090 0.658930 0.494720 -0.618581
O9    O     O_R   0.548190 0.496780 0.349580 -0.618501
O10   O     O_R   0.356720 0.509450 0.336880 -0.569700
O11   O     O_2   0.135246 0.519931 0.166086 -0.567772
Zn1   Zn    Zn3+2 0.627850 0.491540 0.508480 0.939060
Zn2   Zn    Zn3+2 0.372150 0.508460 0.491520 0.959716

loop_
_geom_bond_atom_site_label_1
_geom_bond_atom_site_label_2
_ccdc_geom_bond_type
C17   H26   S    
C21   H23   S    
C35   H10   S    
C1    O4    A    
C13   C32   S    
C19   C20   A    
C34   C42   A    
C32   O2    D    
N1    Zn1   S    
C12   C23   A    
C29   C30   A    
C31   C43   S    
C29   H4    S    
C1    C5    S    
C1    O1    A    
C28   C29   A    
C36   H15   S    
C26   C39   A    
C18   C19   A    
C15   C35   S    
C8    C9    A    
C9    C10   A    
O8    Zn2   S    
C3    C13   A    
C14   H12   S    
C6    H1    S    
C13   C14   A    
C35   H11   S    
C17   N2    A    
C31   H6    S    
C22   N1    A    
C26   C43   A    
C38   H21   S    
C15   C20   A    
N2    Zn2   S    
C21   N1    A    
C34   C39   A    
C4    O6    A    
C36   H14   S    
C39   C40   A    
C5    C7    A    
C31   O11   D    
C16   O7    A    
C42   H2    S    
C11   C38   S    
C2    C4    S    
C9    C14   A    
C4    O5    A    
O7    Zn1   S    
C36   H13   S    
C7    H22   S    
C33   O3    D    
C32   H7    S    
C37   H16   S    
C40   H27   S    
O5    Zn1   S    
C26   C36   S    
C40   C41   A    
O4    Zn2   S    
C18   N2    A    
C25   O9    A    
C22   C24   A    
C25   C27   S    
C12   C34   A    
C2    C23   A    
C38   H20   S    
C18   H28   S    
C15   C17   A    
C12   C30   A    
C30   H3    S    
C6    C10   A    
C5    C8    A    
C37   H18   S    
C6    C7    A    
C33   H8    S    
O9    Zn1   S    
C23   C41   A    
C19   C24   A    
C27   C42   A    
C28   C37   S    
C16   O8    A    
C41   H5    S    
C8    C33   S    
O1    Zn1   S    
C22   H24   S    
C37   H17   S    
C3    C11   A    
C10   C11   A    
C24   H25   S    
C27   C43   A    
O10   Zn2   S    
C20   C21   A    
C35   H9    S    
C25   O10   A    
C2    C28   A    
O6    Zn2   S    
C3    C16   S    
C38   H19   S    
