data_mof_unit_26870.cif
_audit_creation_date              2012-12-10T17:38:57-0500
_audit_creation_method            fapswitch 2.2
_symmetry_space_group_name_H-M    P1
_symmetry_Int_Tables_number       1
_space_group_crystal_system       triclinic
_cell_length_a                    11.951136
_cell_length_b                    12.914088
_cell_length_c                    23.40146
_cell_angle_alpha                 90.212239
_cell_angle_beta                  86.45904
_cell_angle_gamma                 92.782939
_cell_volume                      3600.58757804

loop_
_atom_site_label
_atom_site_type_symbol
_atom_type_description
_atom_site_fract_x
_atom_site_fract_y
_atom_site_fract_z
_atom_type_partial_charge
C1    C     C_R   0.521614 0.700376 0.499760 0.893109
C2    C     C_R   0.404203 0.457062 0.302661 -0.250599
C3    C     C_R   0.584071 0.541342 0.759582 -0.100635
C4    C     C_R   0.397389 0.454851 0.243834 -0.103975
C5    C     C_R   0.497315 0.487709 0.791366 0.292928
C6    C     C_R   0.484367 0.500148 0.208731 0.299311
C7    C     C_R   0.465515 0.188633 0.501270 -0.083734
C8    C     C_R   0.534289 0.811334 0.500685 -0.078602
C9    C     C_R   0.651977 0.967676 0.504359 0.109496
C10   C     C_R   0.347548 0.032226 0.499217 0.113432
C11   C     C_R   0.640108 0.860336 0.503415 -0.248343
C12   C     C_R   0.478360 0.299612 0.500801 0.894382
C13   C     C_R   0.359433 0.139574 0.499803 -0.243905
C14   C     C_R   0.438326 0.867670 0.499607 -0.300914
C15   C     C_R   0.561436 0.132304 0.502737 -0.298014
C16   C     C_R   0.499742 0.496593 0.610541 0.868688
C17   C     C_R   0.500026 0.502100 0.389277 0.870343
C18   C     C_R   0.445679 0.974610 0.500481 0.125409
C19   C     C_R   0.553940 0.025334 0.502678 0.126898
C20   C     C_R   0.953964 0.393236 0.450607 0.011102
C21   C     C_R   0.045919 0.605801 0.550008 0.008488
C22   C     C_R   0.837030 0.406355 0.455184 -0.009839
C23   C     C_R   0.412324 0.432711 0.764146 -0.134472
C24   C     C_R   0.162927 0.593302 0.545030 -0.001029
C25   C     C_R   0.857755 0.545929 0.520166 -0.082189
C26   C     C_R   0.142224 0.453816 0.479997 -0.086898
C27   C     C_R   0.975714 0.538458 0.517885 0.014668
C28   C     C_R   0.024220 0.460932 0.482506 0.018348
C29   C     C_R   0.499615 0.405807 0.120256 0.504297
C30   C     C_R   0.470625 0.579247 0.880357 0.503248
C31   C     C_R   0.456980 0.584940 0.119886 0.504166
C32   C     C_R   0.514318 0.400372 0.880715 0.503448
C33   C     C_R   0.457960 0.584991 0.060193 -0.016706
C34   C     C_R   0.578151 0.548301 0.232070 -0.137314
C35   C     C_R   0.509624 0.399429 0.940478 -0.016019
C36   C     C_R   0.481288 0.492724 0.030401 -0.022027
C37   C     C_R   0.485326 0.491443 0.970282 -0.022013
C38   C     C_R   0.501499 0.401956 0.060572 -0.016504
C39   C     C_R   0.465649 0.582325 0.940105 -0.015841
C40   C     C_R   0.437644 0.674920 0.029756 -0.160894
C41   C     C_R   0.528827 0.309219 0.970936 -0.160536
C42   C     C_R   0.441412 0.673586 0.970190 -0.160579
C43   C     C_R   0.524710 0.310451 0.030506 -0.160370
C44   C     C_3   0.004879 0.308383 0.413130 -0.450554
C45   C     C_R   0.412215 0.431320 0.704545 0.057915
C46   C     C_3   0.922122 0.240568 0.379752 -0.355124
C47   C     C_3   0.982375 0.156144 0.346017 -0.855649
C48   C     C_3   0.994827 0.689416 0.588296 -0.451917
C49   C     C_3   0.077307 0.755600 0.622686 -0.355597
C50   C     C_3   0.016676 0.838269 0.657661 -0.853595
C51   C     C_3   0.322478 0.364217 0.677216 -0.403048
C52   C     C_3   0.212728 0.420794 0.675368 -0.308547
C53   C     C_3   0.127390 0.359477 0.641025 -0.856606
C54   C     C_3   0.689443 0.608522 0.313965 -0.415946
C55   C     C_3   0.659448 0.711339 0.342811 -0.297978
C56   C     C_R   0.586927 0.551765 0.291335 0.062541
C57   C     C_3   0.761613 0.764548 0.368509 -0.868224
C58   C     C_3   0.769937 0.016334 0.506234 -0.450751
C59   C     C_3   0.793792 0.055484 0.566469 -0.319168
C60   C     C_3   0.910422 0.109034 0.567012 -0.897336
C61   C     C_3   0.229516 0.983528 0.497825 -0.445448
C62   C     C_3   0.204096 0.946211 0.437459 -0.324292
C63   C     C_3   0.086956 0.893668 0.437137 -0.897243
C64   C     C_R   0.498694 0.488811 0.672511 -0.063126
C65   C     C_R   0.498440 0.504165 0.327010 -0.063109
C66   C     C_R   0.584862 0.541818 0.700336 -0.252991
H1    H     H_    0.419388 0.746617 0.051801 0.192227
H2    H     H_    0.643957 0.583422 0.203477 0.133902
H3    H     H_    0.651527 0.585458 0.676189 0.154441
H4    H     H_    0.336143 0.420445 0.329261 0.157680
H5    H     H_    0.650136 0.583374 0.780932 0.144939
H6    H     H_    0.324841 0.417637 0.225406 0.142506
H7    H     H_    0.642222 0.173107 0.503950 0.176941
H8    H     H_    0.357645 0.826903 0.497797 0.176715
H9    H     H_    0.285732 0.185079 0.498445 0.154985
H10   H     H_    0.713702 0.814758 0.504987 0.158484
H11   H     H_    0.046789 0.191317 0.314730 0.263852
H12   H     H_    0.547401 0.237596 0.948889 0.192420
H13   H     H_    0.023397 0.104754 0.375509 0.261400
H14   H     H_    0.920707 0.108487 0.322335 0.255002
H15   H     H_    0.857732 0.202483 0.409847 0.211928
H16   H     H_    0.880010 0.289417 0.349337 0.226720
H17   H     H_    0.067297 0.345620 0.381453 0.206715
H18   H     H_    0.049639 0.256831 0.441069 0.202959
H19   H     H_    0.975640 0.891099 0.628937 0.260543
H20   H     H_    0.952225 0.801508 0.688376 0.262988
H21   H     H_    0.078110 0.884745 0.682099 0.254760
H22   H     H_    0.119461 0.705270 0.652353 0.223622
H23   H     H_    0.183682 0.396563 0.453660 0.131108
H24   H     H_    0.141665 0.795250 0.593188 0.212280
H25   H     H_    0.950417 0.742144 0.560869 0.203007
H26   H     H_    0.932105 0.651100 0.619431 0.206956
H27   H     H_    0.161558 0.348165 0.596328 0.268413
H28   H     H_    0.106309 0.282586 0.661057 0.256483
H29   H     H_    0.049460 0.402724 0.639950 0.250689
H30   H     H_    0.176303 0.431921 0.719704 0.213817
H31   H     H_    0.229068 0.498548 0.655608 0.237051
H32   H     H_    0.351861 0.339107 0.633638 0.213843
H33   H     H_    0.306169 0.291392 0.702243 0.196638
H34   H     H_    0.816319 0.603287 0.546439 0.130939
H35   H     H_    0.791324 0.715934 0.403062 0.268298
H36   H     H_    0.830661 0.778265 0.335012 0.258967
H37   H     H_    0.738633 0.840511 0.386943 0.251582
H38   H     H_    0.627649 0.763688 0.310536 0.227019
H39   H     H_    0.592434 0.698427 0.377326 0.217419
H40   H     H_    0.731864 0.558125 0.343263 0.228624
H41   H     H_    0.753105 0.626584 0.278239 0.192551
H42   H     H_    0.975469 0.053861 0.553633 0.255864
H43   H     H_    0.917310 0.176707 0.537586 0.268499
H44   H     H_    0.925677 0.136711 0.610962 0.257276
H45   H     H_    0.220161 0.642061 0.568338 0.128702
H46   H     H_    0.730689 0.111042 0.582004 0.229190
H47   H     H_    0.788774 0.988775 0.596576 0.223885
H48   H     H_    0.832806 0.958521 0.493465 0.198490
H49   H     H_    0.783375 0.079225 0.474158 0.194703
H50   H     H_    0.080052 0.825207 0.465997 0.268087
H51   H     H_    0.022715 0.949046 0.451366 0.256287
H52   H     H_    0.070499 0.867420 0.393075 0.258216
H53   H     H_    0.209112 0.013703 0.407888 0.224102
H54   H     H_    0.266426 0.890530 0.421145 0.228467
H55   H     H_    0.216984 0.919645 0.529351 0.194232
H56   H     H_    0.779801 0.357572 0.431880 0.132714
H57   H     H_    0.166896 0.040941 0.511643 0.198343
H58   H     H_    0.425765 0.744252 0.947852 0.192371
H59   H     H_    0.540419 0.239802 0.052844 0.192448
H60   H     H_    0.346556 0.390553 0.789716 0.140437
N1    N     N_R   0.478572 0.496508 0.148270 -0.354860
N2    N     N_R   0.494816 0.489318 0.852223 -0.354085
N3    N     N_R   0.207800 0.519350 0.510590 -0.110001
N4    N     N_R   0.792200 0.480650 0.489410 -0.112347
O1    O     O_R   0.421690 0.658830 0.502820 -0.630249
O2    O     O_2   0.450636 0.664925 0.850475 -0.561538
O3    O     O_2   0.435219 0.672349 0.149489 -0.560122
O4    O     O_2   0.538663 0.313527 0.851147 -0.561099
O5    O     O_R   0.578310 0.341170 0.497180 -0.628608
O6    O     O_R   0.609320 0.646410 0.496030 -0.628256
O7    O     O_R   0.390680 0.353590 0.503970 -0.636042
O8    O     O_R   0.406170 0.506240 0.587240 -0.622054
O9    O     O_R   0.593830 0.493760 0.412760 -0.623345
O10   O     O_R   0.593790 0.493820 0.580450 -0.614533
O11   O     O_R   0.406210 0.506180 0.419550 -0.615687
O12   O     O_2   0.520214 0.320331 0.150162 -0.559533
Zn1   Zn    Zn3+2 0.374720 0.508290 0.504530 0.930791
Zn2   Zn    Zn3+2 0.625280 0.491710 0.495470 0.933818

loop_
_geom_bond_atom_site_label_1
_geom_bond_atom_site_label_2
_ccdc_geom_bond_type
C34   C56   A    
C23   C45   A    
C53   H29   S    
C1    C8    S    
C14   C18   A    
C3    H5    S    
C31   N1    A    
C49   H24   S    
C31   O3    S    
C2    C65   A    
C43   H59   S    
C42   H58   S    
C26   H23   S    
C15   C19   A    
C57   H36   S    
C54   H41   S    
C55   H39   S    
C14   H8    S    
C61   H55   S    
C36   C37   A    
C35   C37   A    
C6    N1    S    
C18   C19   A    
O8    Zn1   S    
O11   Zn1   S    
C63   H51   S    
C66   H3    S    
C45   C51   S    
C56   C65   A    
C52   H31   S    
C33   C36   A    
C17   O11   A    
C9    C58   S    
C46   C47   S    
C60   H43   S    
C50   H19   S    
C46   H16   S    
C24   N3    A    
C9    C19   A    
C29   N1    A    
C13   H9    S    
C12   O5    A    
C29   C38   A    
C31   C33   A    
C47   H13   S    
C1    O6    A    
N4    Zn2   S    
C61   H57   S    
C62   H54   S    
C60   H42   S    
C21   C48   S    
C44   H17   S    
C51   H32   S    
C40   C42   A    
C21   C27   A    
C59   C60   S    
C22   N4    A    
C41   C43   A    
C49   H22   S    
C16   O10   A    
C24   H45   S    
C47   H14   S    
C25   N4    A    
C20   C44   S    
C44   C46   S    
C22   H56   S    
C39   C42   A    
C54   C56   S    
C51   H33   S    
C7    C12   S    
C57   H37   S    
C30   N2    A    
C33   C40   A    
C54   H40   S    
C53   H27   S    
C51   C52   S    
C32   C35   A    
C4    C6    A    
C34   H2    S    
C41   H12   S    
C63   H52   S    
C20   C28   A    
C1    O1    A    
C58   C59   S    
C55   H38   S    
C48   H25   S    
C6    C34   A    
C64   C66   A    
C2    C4    A    
C62   C63   S    
C46   H15   S    
O9    Zn2   S    
C25   H34   S    
C5    C23   A    
C59   H47   S    
C59   H46   S    
C17   O9    A    
C9    C11   A    
C62   H53   S    
C26   N3    A    
C50   H21   S    
C23   H60   S    
C63   H50   S    
C48   C49   S    
C15   H7    S    
C20   C22   A    
C55   C57   S    
C58   H49   S    
C10   C61   S    
C47   H11   S    
C4    H6    S    
O1    Zn1   S    
C52   C53   S    
C40   H1    S    
C54   C55   S    
O5    Zn2   S    
C8    C14   A    
C53   H28   S    
C26   C28   A    
C16   O8    A    
O10   Zn2   S    
C3    C5    A    
C10   C13   A    
N3    Zn1   S    
C25   C27   A    
C57   H35   S    
C45   C64   A    
C17   C65   S    
C44   H18   S    
C11   H10   S    
C32   N2    A    
C36   C38   A    
C38   C43   A    
C37   C39   A    
C32   O4    S    
C10   C18   A    
C8    C11   A    
C30   O2    S    
C29   O12   S    
C5    N2    S    
C7    C15   A    
C30   C39   A    
C52   H30   S    
O7    Zn1   S    
C61   C62   S    
C35   C41   A    
C60   H44   S    
C50   H20   S    
C3    C66   A    
C7    C13   A    
O6    Zn2   S    
C49   C50   S    
C48   H26   S    
C21   C24   A    
C27   C28   A    
C58   H48   S    
C12   O7    A    
C16   C64   S    
C2    H4    S    
