data_mof_unit_60486.cif
_audit_creation_date              2012-12-10T16:56:32-0500
_audit_creation_method            fapswitch 2.2
_symmetry_space_group_name_H-M    P1
_symmetry_Int_Tables_number       1
_space_group_crystal_system       triclinic
_cell_length_a                    18.725023
_cell_length_b                    18.988024
_cell_length_c                    18.762846
_cell_angle_alpha                 109.601061
_cell_angle_beta                  109.864297
_cell_angle_gamma                 109.211096
_cell_volume                      5118.60613279

loop_
_atom_site_label
_atom_site_type_symbol
_atom_type_description
_atom_site_fract_x
_atom_site_fract_y
_atom_site_fract_z
_atom_type_partial_charge
C1    C     C_R   0.616731 0.618479 0.497145 0.913673
C2    C     C_2   0.816464 0.488702 0.811425 -0.320916
C3    C     C_2   0.757515 0.499277 0.681239 -0.177364
C4    C     C_R   0.379944 0.499425 0.379329 0.887140
C5    C     C_2   0.694584 0.511503 0.691531 -0.292218
C6    C     C_2   0.264682 0.237556 0.564894 -0.103915
C7    C     C_2   0.186877 0.173713 0.493865 -0.443649
C8    C     C_2   0.331170 0.284685 0.549244 -0.068410
C9    C     C_2   0.311461 0.321734 0.500423 -0.203323
C10   C     C_R   0.011430 0.618760 0.130040 0.973888
C11   C     C_R   0.127258 0.499655 0.126367 0.888404
C12   C     C_3   0.179637 0.422522 0.207143 -0.146096
C13   C     C_R   0.004244 0.381077 0.885276 0.970454
C14   C     C_R   0.885755 0.497559 0.884337 0.966719
C15   C     C_R   0.001519 0.121356 0.618257 0.934768
C16   C     C_R   0.379894 0.382144 0.499090 1.063357
C17   C     C_R   0.880921 0.882945 0.501945 0.921959
C18   C     C_R   0.996974 0.877037 0.381276 0.940325
C19   C     C_R   0.119256 0.118085 0.500029 0.926978
C20   C     C_2   0.017114 0.752637 0.335600 -0.373652
C21   C     C_2   0.979289 0.796965 0.312724 -0.161144
C22   C     C_2   0.012578 0.678954 0.270480 -0.001306
C23   C     C_3   0.226779 0.486157 0.306467 -0.106050
C24   C     C_2   0.023534 0.686679 0.205556 -0.360762
C25   C     C_2   0.981033 0.244802 0.668847 -0.259880
C26   C     C_2   0.012321 0.195078 0.686460 -0.338543
C27   C     C_2   0.992051 0.318891 0.739587 0.034379
C28   C     C_R   0.622702 0.502811 0.621536 0.998049
C29   C     C_2   0.993120 0.313801 0.810100 -0.344893
C30   C     C_3   0.328307 0.575235 0.296673 -0.179685
C31   C     C_3   0.240139 0.562867 0.290239 -0.136705
C32   C     C_3   0.194210 0.499270 0.192137 0.013034
C33   C     C_3   0.281061 0.511562 0.197176 -0.174244
C34   C     C_3   0.313666 0.498529 0.311622 0.012271
C35   C     C_3   0.267718 0.434874 0.213413 -0.174113
C36   C     C_2   0.282927 0.267283 0.656843 0.426037
C37   C     C_2   0.416920 0.287523 0.589210 0.467466
C38   C     C_2   0.228234 0.324902 0.468835 0.356680
C39   C     C_2   0.910967 0.760692 0.219961 0.405112
C40   C     C_2   0.004539 0.605507 0.285620 0.430746
C41   C     C_2   0.994378 0.391361 0.724427 0.418903
C42   C     C_2   0.738750 0.816462 0.490254 -0.149505
C43   C     C_2   0.816934 0.822673 0.509222 -0.329483
C44   C     C_2   0.677773 0.755651 0.501727 -0.155503
C45   C     C_2   0.675870 0.681010 0.487686 -0.326607
C46   C     C_2   0.830456 0.510950 0.754916 -0.109947
H1    H     H_    0.226816 0.614976 0.319417 0.158466
H2    H     H_    0.977360 0.253215 0.809727 0.139975
H3    H     H_    0.280610 0.382570 0.183760 0.157875
H4    H     H_    0.117205 0.360145 0.168830 0.160881
H5    H     H_    0.206591 0.475734 0.352930 0.181180
H6    H     H_    0.721223 0.858718 0.470446 0.168718
H7    H     H_    0.632457 0.770719 0.518424 0.165628
H8    H     H_    0.757711 0.484754 0.620169 0.168181
H9    H     H_    0.231789 0.240583 0.670523 0.086223
H10   H     H_    0.174406 0.158848 0.428107 0.175981
H11   H     H_    0.425326 0.254971 0.626592 0.099297
H12   H     H_    0.713805 0.661489 0.461092 0.156499
H13   H     H_    0.185228 0.309939 0.494792 0.103063
H14   H     H_    0.874789 0.691701 0.174224 0.080065
H15   H     H_    0.979435 0.596509 0.328081 0.055297
H16   H     H_    0.948685 0.232252 0.602075 0.174023
H17   H     H_    0.011474 0.398747 0.676581 0.052702
H18   H     H_    0.301228 0.521961 0.150694 0.151489
H19   H     H_    0.838289 0.787530 0.538578 0.157999
H20   H     H_    0.894553 0.534792 0.760686 0.206626
H21   H     H_    0.750538 0.456838 0.800268 0.165884
H22   H     H_    0.699803 0.535965 0.755482 0.158730
H23   H     H_    0.056473 0.773308 0.404238 0.190815
H24   H     H_    0.391010 0.637389 0.335225 0.138680
H25   H     H_    0.044303 0.748861 0.208709 0.161029
H26   H     H_    0.052116 0.211821 0.753593 0.158834
O1    O     O_R   0.591160 0.539400 0.449620 -0.634159
O2    O     O_R   0.050520 0.090460 0.641000 -0.632350
O3    O     O_R   0.857760 0.909540 0.448230 -0.617283
O4    O     O_R   0.589730 0.641530 0.550350 -0.620959
O5    O     O_R   0.961340 0.909540 0.551790 -0.626259
O6    O     O_R   0.949480 0.909540 0.359000 -0.568079
O7    O     O_R   0.053060 0.909550 0.462560 -0.634366
O8    O     O_R   0.038660 0.090460 0.448210 -0.609404
O9    O     O_R   0.142240 0.090460 0.551770 -0.627495
O10   O     O_R   0.408980 0.448930 0.357910 -0.634439
O11   O     O_R   0.407550 0.551060 0.458650 -0.628645
O12   O     O_R   0.056790 0.641480 0.096140 -0.634575
O13   O     O_R   0.410270 0.358470 0.449650 -0.592352
O14   O     O_R   0.408840 0.460600 0.550380 -0.621562
O15   O     O_R   0.592450 0.448940 0.541350 -0.593450
O16   O     O_R   0.591020 0.551070 0.642090 -0.627213
O17   O     O_R   0.954670 0.539370 0.096190 -0.580220
O18   O     O_2   0.355584 0.324630 0.718953 -0.579188
O19   O     O_2   0.477977 0.324162 0.580856 -0.590464
O20   O     O_2   0.207729 0.346218 0.413747 -0.590263
O21   O     O_2   0.894918 0.807425 0.193614 -0.541323
O22   O     O_2   0.029522 0.557432 0.255260 -0.573001
O23   O     O_R   0.047640 0.448900 0.098680 -0.598080
O24   O     O_2   0.973429 0.440451 0.760898 -0.586304
O25   O     O_R   0.149770 0.551010 0.098640 -0.640284
O26   O     O_R   0.957150 0.358410 0.917750 -0.637478
O27   O     O_R   0.059270 0.460520 0.917700 -0.581705
O28   O     O_R   0.864170 0.448890 0.915250 -0.631597
O29   O     O_R   0.966300 0.551000 0.915200 -0.589692
O30   O     O_R   0.946940 0.090450 0.537440 -0.620086
Zn1   Zn    Zn3+2 0.500950 0.431810 0.432740 0.995818
Zn2   Zn    Zn3+2 0.499050 0.568190 0.567260 0.989565
Zn3   Zn    Zn3+2 0.938780 0.431770 0.006970 1.008009
Zn4   Zn    Zn3+2 0.075160 0.568130 0.006910 1.001408
Zn5   Zn    Zn3+2 0.930840 1.000000 0.430850 1.003432
Zn6   Zn    Zn3+2 0.069160 1.000000 0.569150 0.957476

loop_
_geom_bond_atom_site_label_1
_geom_bond_atom_site_label_2
_ccdc_geom_bond_type
O4    Zn2   S    
O3    Zn5   S    
C27   C29   D    
C18   C21   S    
C26   H26   S    
O14   Zn2   S    
C2    C46   D    
C12   C23   S    
O28   Zn3   S    
O26   Zn3   S    
C13   C29   S    
C9    C16   S    
C46   H20   S    
C30   C31   S    
C3    H8    S    
C41   O24   D    
C11   O23   A    
C38   O20   D    
C34   C35   S    
C13   O26   A    
C39   O21   D    
O23   Zn3   S    
C30   H24   S    
C44   H7    S    
C10   O17   A    
C8    C9    D    
C35   H3    S    
O12   Zn4   S    
O10   Zn1   S    
O13   Zn1   S    
C18   O6    A    
C14   O29   A    
O9    Zn6   S    
C31   H1    S    
C12   C32   S    
C16   O14   A    
C42   C44   S    
C7    H10   S    
C5    H22   S    
O16   Zn2   S    
C4    C34   S    
C45   H12   S    
O11   Zn2   S    
C30   C34   S    
C29   H2    S    
C2    H21   S    
C37   O19   D    
C18   O7    A    
C15   C26   S    
C6    C8    S    
C10   C24   S    
C25   C26   D    
C40   H15   S    
O6    Zn5   S    
C23   C31   S    
C13   O27   A    
C17   C43   S    
C28   O16   A    
C5    C28   S    
C27   C41   S    
C23   H5    S    
C31   C32   S    
C21   C39   S    
C43   H19   S    
C23   C34   S    
C22   C40   S    
C28   O15   A    
C17   O5    A    
O30   Zn5   S    
C12   C35   S    
O15   Zn1   S    
O25   Zn4   S    
C20   C22   S    
C11   C32   S    
C7    C19   S    
C16   O13   A    
C22   C24   D    
C20   H23   S    
C8    C37   S    
C41   H17   S    
C44   C45   D    
C36   O18   D    
O29   Zn4   S    
O27   Zn4   S    
C30   C33   S    
C1    O4    A    
O5    Zn6   S    
C40   O22   D    
C3    C5    D    
C12   H4    S    
C14   O28   A    
C6    C7    D    
C25   C27   S    
C3    C46   S    
C11   O25   A    
C1    O1    A    
C32   C33   S    
C36   H9    S    
O8    Zn5   S    
C1    C45   S    
C4    O11   A    
C33   H18   S    
C39   H14   S    
C10   O12   A    
C9    C38   S    
C33   C35   S    
C6    C36   S    
O7    Zn6   S    
C25   H16   S    
C15   O30   A    
C19   O8    A    
C2    C14   S    
O2    Zn6   S    
C38   H13   S    
O1    Zn1   S    
C15   O2    A    
C4    O10   A    
C20   C21   D    
C42   C43   D    
O17   Zn3   S    
C17   O3    A    
C19   O9    A    
C37   H11   S    
C24   H25   S    
C42   H6    S    
