data_mof_unit_28755.cif
_audit_creation_date              2012-10-26T19:21:08-0400
_audit_creation_method            fapswitch 2.2
_symmetry_space_group_name_H-M    P1
_symmetry_Int_Tables_number       1
_space_group_crystal_system       triclinic
_cell_length_a                    9.838796
_cell_length_b                    11.063032
_cell_length_c                    13.430939
_cell_angle_alpha                 95.674603
_cell_angle_beta                  80.928082
_cell_angle_gamma                 110.732725
_cell_volume                      1348.67453272

loop_
_atom_site_label
_atom_site_type_symbol
_atom_type_description
_atom_site_fract_x
_atom_site_fract_y
_atom_site_fract_z
_atom_type_partial_charge
C1    C     C_R   0.554674 0.745099 0.509923 0.566866
C2    C     C_R   0.375279 0.474753 0.799685 -0.004714
C3    C     C_2   0.584708 0.884181 0.513125 -0.085214
C4    C     C_R   0.422831 0.490631 0.690715 0.528958
C5    C     C_2   0.476622 0.934028 0.532822 0.113087
C6    C     C_2   0.409445 0.116991 0.499248 -0.132491
C7    C     C_2   0.511856 0.071203 0.516847 -0.143787
C8    C     C_2   0.916843 0.479956 0.496550 0.012415
C9    C     C_2   0.066975 0.495157 0.518240 0.243388
C10   C     C_R   0.443682 0.255049 0.493809 0.553590
C11   C     C_R   0.578159 0.513153 0.309769 0.547348
C12   C     C_R   0.438820 0.486190 0.970955 0.036898
C13   C     C_R   0.799671 0.660849 0.069560 0.137624
C14   C     C_R   0.625991 0.535810 0.202300 -0.030026
C15   C     C_R   0.236744 0.384821 0.830226 -0.149374
C16   C     C_R   0.195825 0.350285 0.929807 -0.151101
C17   C     C_R   0.295359 0.398274 0.999254 -0.119599
C18   C     C_3   0.287797 0.887627 0.676619 -0.319551
C19   C     C_3   0.023627 0.519949 0.704120 -0.312421
C20   C     C_3   0.038835 0.682551 0.980870 -0.317705
C21   C     C_R   0.474458 0.531609 0.871619 0.028394
C22   C     C_R   0.548218 0.529901 0.037523 0.000550
C23   C     C_R   0.689051 0.620614 0.005099 0.075812
C24   C     C_R   0.714975 0.673465 0.910700 -0.138250
C25   C     C_R   0.608531 0.632228 0.846382 -0.143856
C26   C     C_R   0.521517 0.486771 0.135865 -0.145092
C27   C     C_R   0.766117 0.619424 0.168437 -0.128450
Cu1   Cu    Cu3+1 0.362000 0.479240 0.482530 0.940660
Cu2   Cu    Cu3+1 0.638000 0.520760 0.517470 0.914077
H1    H     H_    0.847849 0.656452 0.219713 0.123731
H2    H     H_    0.255593 0.363824 0.074166 0.099135
H3    H     H_    0.087793 0.281581 0.952584 0.116838
H4    H     H_    0.632908 0.681377 0.776633 0.136053
H5    H     H_    0.624648 0.135301 0.518844 0.129030
H6    H     H_    0.253360 0.847983 0.525927 0.254716
H7    H     H_    0.175842 0.820640 0.701915 0.137381
H8    H     H_    0.286590 0.988154 0.686492 0.149748
H9    H     H_    0.364332 0.876307 0.724656 0.151684
H10   H     H_    0.218276 0.623252 0.611927 0.321774
H11   H     H_    0.095592 0.520171 0.759625 0.138282
H12   H     H_    0.297795 0.053737 0.493009 0.104191
H13   H     H_    0.943385 0.420540 0.695165 0.157089
H14   H     H_    0.964233 0.586771 0.735120 0.125934
H15   H     H_    0.992431 0.809606 0.092989 0.247999
H16   H     H_    0.061898 0.619927 0.030978 0.150122
H17   H     H_    0.143978 0.756086 0.950746 0.141290
H18   H     H_    0.987736 0.622509 0.916428 0.148483
H19   H     H_    0.697438 0.946750 0.492705 0.056998
H20   H     H_    0.865473 0.405426 0.441873 0.115701
H21   H     H_    0.115935 0.399999 0.391119 0.172994
H22   H     H_    0.898751 0.629656 0.588778 0.226920
H23   H     H_    0.817693 0.748384 0.886121 0.141761
H24   H     H_    0.417934 0.417789 0.164880 0.121128
H25   H     H_    0.161308 0.337409 0.776111 0.128837
N1    N     N_2   0.845330 0.551960 0.543750 -0.354355
N2    N     N_2   0.154690 0.448120 0.456210 -0.338065
N3    N     N_2   0.331308 0.856974 0.571872 -0.498194
N4    N     N_2   0.111751 0.565504 0.609186 -0.493678
N5    N     N_2   0.943256 0.746596 0.036660 -0.534622
O1    O     O_R   0.426290 0.668220 0.490680 -0.471956
O2    O     O_R   0.659360 0.703290 0.520190 -0.510089
O3    O     O_R   0.326580 0.473880 0.629020 -0.497943
O4    O     O_R   0.559660 0.508940 0.658530 -0.493576
O5    O     O_R   0.340640 0.296710 0.479810 -0.490629
O6    O     O_R   0.573710 0.331780 0.509320 -0.496232
O7    O     O_R   0.440340 0.491060 0.341470 -0.497638
O8    O     O_R   0.673420 0.526120 0.370980 -0.498878

loop_
_geom_bond_atom_site_label_1
_geom_bond_atom_site_label_2
_ccdc_geom_bond_type
C12   C17   A    
C6    C10   S    
C2    C4    S    
C23   C24   A    
Cu2   O4    S    
Cu1   O3    S    
C24   H23   S    
C6    C7    D    
C13   N5    S    
C4    O3    A    
C14   C27   A    
C16   H3    S    
C18   N3    S    
Cu1   O7    S    
C20   H16   S    
C11   O7    A    
C5    N3    S    
H6    N3    S    
C10   O5    A    
C3    C5    D    
C2    C21   A    
Cu1   N2    S    
C9    N2    D    
C14   C26   A    
C27   H1    S    
C2    C15   A    
C4    O4    A    
C16   C17   A    
Cu2   O6    S    
Cu1   O5    S    
C8    N1    D    
C8    H20   S    
Cu1   Cu2   S    
C11   C14   S    
C18   H8    S    
C19   H14   S    
H22   N1    S    
Cu1   O1    S    
C19   N4    S    
C18   H9    S    
C17   H2    S    
C7    H5    S    
C20   H17   S    
C10   O6    A    
C20   H18   S    
C19   H11   S    
H15   N5    S    
C15   C16   A    
C15   H25   S    
C12   C22   A    
C3    H19   S    
C26   H24   S    
C24   C25   A    
C13   C23   A    
C9    N4    S    
C22   C26   A    
C1    O1    A    
C25   H4    S    
C5    C7    S    
C21   C25   A    
C22   C23   A    
C13   C27   A    
Cu2   N1    S    
Cu2   O2    S    
C1    C3    S    
Cu2   O8    S    
H10   N4    S    
C18   H7    S    
C12   C21   A    
H21   N2    S    
C19   H13   S    
C11   O8    A    
C8    C9    S    
C20   N5    S    
C6    H12   S    
C1    O2    A    
