data_mof_unit_64598.cif
_audit_creation_date              2012-12-11T16:38:25-0500
_audit_creation_method            fapswitch 2.2
_symmetry_space_group_name_H-M    P1
_symmetry_Int_Tables_number       1
_space_group_crystal_system       triclinic
_cell_length_a                    22.945838
_cell_length_b                    7.247153
_cell_length_c                    20.900606
_cell_angle_alpha                 89.998951
_cell_angle_beta                  93.392651
_cell_angle_gamma                 90.000878
_cell_volume                      3469.51229451

loop_
_atom_site_label
_atom_site_type_symbol
_atom_type_description
_atom_site_fract_x
_atom_site_fract_y
_atom_site_fract_z
_atom_type_partial_charge
O1    O     O_R   0.188620 0.380490 0.689890 -0.524382
O2    O     O_R   0.811380 0.619510 0.310110 -0.524366
O3    O     O_R   0.311380 0.880490 0.810110 -0.524571
O4    O     O_R   0.688620 0.119510 0.189890 -0.524918
O5    O     O_R   0.306510 0.709050 0.686440 -0.518641
O6    O     O_R   0.693490 0.290950 0.313560 -0.540044
O7    O     O_R   0.193490 0.209050 0.813560 -0.519086
O8    O     O_R   0.806510 0.790950 0.186440 -0.540231
C1    C     C_R   0.325298 0.541742 0.671666 0.735118
C2    C     C_R   0.674706 0.458291 0.328338 0.731667
C3    C     C_R   0.174701 0.041739 0.828332 0.734685
C4    C     C_R   0.825292 0.958294 0.171659 0.731769
O9    O     O_R   0.188770 0.710120 0.682280 -0.523651
O10   O     O_R   0.811230 0.289880 0.317720 -0.520543
O11   O     O_R   0.311230 0.210120 0.817720 -0.524014
O12   O     O_R   0.688770 0.789880 0.182280 -0.520828
O13   O     O_R   0.192790 0.881680 0.805920 -0.544903
O14   O     O_R   0.807210 0.118320 0.194080 -0.524945
O15   O     O_R   0.307210 0.381680 0.694080 -0.544986
O16   O     O_R   0.692790 0.618320 0.305920 -0.524972
C5    C     C_R   0.169036 0.541596 0.666647 0.864904
C6    C     C_R   0.830827 0.458391 0.333561 0.862030
C7    C     C_R   0.330963 0.041595 0.833355 0.863121
C8    C     C_R   0.669173 0.958391 0.166440 0.859525
O17   O     O_3   0.251460 0.547440 0.790570 -0.378146
O18   O     O_3   0.748540 0.452560 0.209430 -0.373149
O19   O     O_3   0.248540 0.047440 0.709430 -0.377278
O20   O     O_3   0.751460 0.952560 0.290570 -0.372327
V1    V     V_3+5 0.249730 0.821800 0.742470 1.641624
V2    V     V_3+5 0.750270 0.178200 0.257530 1.653349
V3    V     V_3+5 0.250270 0.321800 0.757530 1.640274
V4    V     V_3+5 0.749730 0.678200 0.242470 1.652497
C9    C     C_R   0.424068 0.101089 0.989123 0.664226
C10   C     C_R   0.576823 0.092686 0.016144 0.661832
C11   C     C_R   0.020649 0.426485 0.585341 0.660907
C12   C     C_R   0.979009 0.381777 0.421676 0.662380
C13   C     C_R   0.377112 0.114364 0.942998 0.244524
C14   C     C_R   0.623867 0.081112 0.062146 0.247607
C15   C     C_R   0.067528 0.437140 0.631537 0.244849
C16   C     C_R   0.932019 0.367618 0.375670 0.252284
C17   C     C_R   0.380719 0.031539 0.882145 -0.392098
C18   C     C_R   0.619978 0.968120 0.116894 -0.388104
C19   C     C_R   0.119280 0.531541 0.617861 -0.393988
C20   C     C_R   0.880020 0.468117 0.383110 -0.389498
C21   C     C_R   0.432445 0.936944 0.868503 0.244851
C22   C     C_R   0.567977 0.867634 0.124341 0.251283
C23   C     C_R   0.122913 0.614174 0.556980 0.244472
C24   C     C_R   0.876131 0.581111 0.437856 0.247740
C25   C     C_R   0.479322 0.926290 0.914701 0.660916
C26   C     C_R   0.520986 0.881791 0.078336 0.662077
C27   C     C_R   0.075956 0.600894 0.510857 0.664535
C28   C     C_R   0.923172 0.592679 0.483863 0.662156
C29   C     C_R   0.475401 0.007414 0.975263 -0.181284
C30   C     C_R   0.525085 0.994094 0.024058 -0.177615
C31   C     C_R   0.024595 0.507411 0.524748 -0.181768
C32   C     C_R   0.974910 0.494083 0.475953 -0.178045
H1    H     H_    0.944744 0.280894 0.027424 0.228623
H2    H     H_    0.055177 0.719463 0.972486 0.228165
H3    H     H_    0.531702 0.781083 0.443697 0.229437
H4    H     H_    0.468352 0.219293 0.556359 0.229556
C33   C     C_R   0.013236 0.170346 0.972523 0.711822
C34   C     C_R   0.986685 0.830012 0.027380 0.705455
C35   C     C_R   0.473516 0.670378 0.511237 0.710112
C36   C     C_R   0.526541 0.330006 0.488828 0.704280
C37   C     C_R   0.044922 0.012559 0.956507 -0.128763
C38   C     C_R   0.955005 0.987799 0.043407 -0.127399
C39   C     C_R   0.455056 0.512445 0.543469 -0.128350
C40   C     C_R   0.544998 0.487931 0.456591 -0.128177
C41   C     C_R   0.031271 0.842599 0.984245 -0.244043
C42   C     C_R   0.968650 0.157762 0.015663 -0.240576
C43   C     C_R   0.481922 0.342489 0.531927 -0.242637
C44   C     C_R   0.518134 0.657894 0.468135 -0.237892
C45   C     C_1   0.091050 0.023992 0.911590 0.163308
C46   C     C_1   0.908894 0.976324 0.088347 0.161620
C47   C     C_1   0.408936 0.523961 0.588394 0.164203
C48   C     C_1   0.591102 0.476356 0.411647 0.162003
C49   C     C_1   0.870618 0.967467 0.126090 -0.067675
C50   C     C_1   0.129349 0.032710 0.873871 -0.064015
C51   C     C_1   0.629378 0.467462 0.373904 -0.067264
C52   C     C_1   0.370645 0.532712 0.626120 -0.063305
F1    F     F_    0.419847 0.180659 0.047514 -0.539708
F2    F     F_    0.581313 0.201648 0.963773 -0.546545
F3    F     F_    0.971220 0.335484 0.599305 -0.543230
F4    F     F_    0.028746 0.284918 0.413700 -0.541899
Cl1   Cl    Cl    0.313293 0.229815 0.963861 -0.465280
Cl2   Cl    Cl    0.688058 0.205509 0.048554 -0.476312
Cl3   Cl    Cl    0.059197 0.335626 0.707192 -0.479193
Cl4   Cl    Cl    0.940693 0.228111 0.307710 -0.479522
Cl5   Cl    Cl    0.440751 0.835176 0.792886 -0.493846
Cl6   Cl    Cl    0.559301 0.728153 0.192309 -0.490500
Cl7   Cl    Cl    0.186766 0.729385 0.536087 -0.455815
Cl8   Cl    Cl    0.811942 0.705518 0.451441 -0.467609
F5    F     F_    0.528725 0.835102 0.900769 -0.544602
F6    F     F_    0.471247 0.784936 0.086315 -0.543080
F7    F     F_    0.080204 0.680273 0.452438 -0.538323
F8    F     F_    0.918681 0.701644 0.536231 -0.545398
F9    F     F_    0.025371 0.336444 0.946407 -0.627953
F10   F     F_    0.974545 0.663900 0.053482 -0.633919
F11   F     F_    0.448393 0.836542 0.521429 -0.630469
F12   F     F_    0.551662 0.163838 0.478639 -0.634106

loop_
_geom_bond_atom_site_label_1
_geom_bond_atom_site_label_2
_ccdc_geom_bond_type
C33   C42   A    
O17   V3    S    
C31   C32   S    
O1    C5    A    
O19   V1    S    
O13   V1    S    
O3    C7    A    
C48   C51   T    
C15   Cl3   S    
O15   V3    S    
C37   C45   S    
C29   C30   S    
O7    C3    A    
C26   C30   A    
C14   Cl2   S    
C36   C40   A    
C13   Cl1   S    
C14   C18   A    
O4    C8    A    
C37   C41   A    
C38   C46   S    
O1    V3    S    
C8    C18   S    
O2    V4    S    
C18   C22   A    
C36   C43   A    
O3    V1    S    
C35   F11   S    
C5    C19   S    
C28   C32   A    
C1    O15   A    
C6    C20   S    
C2    O16   A    
C46   C49   T    
O2    C6    A    
C45   C50   T    
O14   V2    S    
H1    C42   S    
C21   Cl5   S    
C47   C52   T    
C16   C20   A    
C27   C31   A    
C40   C44   A    
H3    C44   S    
O11   C7    A    
O12   C8    A    
C34   F10   S    
O10   V2    S    
O5    V1    S    
C9    C29   A    
C35   C39   A    
O7    V3    S    
C34   C38   A    
C11   C31   A    
O8    V4    S    
C12   C16   A    
C11   F3    S    
O18   V4    S    
C26   F6    S    
C15   C19   A    
H4    C43   S    
C9    C13   A    
C34   C41   A    
C1    C52   S    
C11   C15   A    
O5    C1    A    
C12   C32   A    
C3    C50   S    
C21   C25   A    
O8    C4    A    
C4    C49   S    
O9    C5    A    
C40   C48   S    
O6    V2    S    
C10   C30   A    
C39   C47   S    
O16   V4    S    
O9    V1    S    
C3    O13   A    
C10   C14   A    
C23   Cl7   S    
C33   F9    S    
O6    C2    A    
C23   C27   A    
C2    C51   S    
H2    C41   S    
O11   V3    S    
C22   Cl6   S    
O12   V4    S    
C22   C26   A    
C7    C17   S    
C16   Cl4   S    
O20   V2    S    
C36   F12   S    
O10   C6    A    
C38   C42   A    
C19   C23   A    
C12   F4    S    
C25   C29   A    
C28   F8    S    
C39   C43   A    
C13   C17   A    
C33   C37   A    
C24   C28   A    
C35   C44   A    
C24   Cl8   S    
C4    O14   A    
C17   C21   A    
C10   F2    S    
C25   F5    S    
C9    F1    S    
O4    V2    S    
C20   C24   A    
C27   F7    S    
