data_mof_unit_28553.cif
_audit_creation_date              2012-12-11T15:13:49-0500
_audit_creation_method            fapswitch 2.2
_symmetry_space_group_name_H-M    P1
_symmetry_Int_Tables_number       1
_space_group_crystal_system       triclinic
_cell_length_a                    6.950769
_cell_length_b                    13.542672
_cell_length_c                    20.15557
_cell_angle_alpha                 104.307262
_cell_angle_beta                  90.46894
_cell_angle_gamma                 90.097726
_cell_volume                      1838.36326139

loop_
_atom_site_label
_atom_site_type_symbol
_atom_type_description
_atom_site_fract_x
_atom_site_fract_y
_atom_site_fract_z
_atom_type_partial_charge
O1    O     O_R   0.506780 0.600060 0.449950 -0.537675
O2    O     O_R   0.179840 0.597110 0.589410 -0.537373
O3    O     O_R   0.004570 0.399940 0.550050 -0.530883
C1    C     C_R   0.348914 0.619016 0.616877 0.712505
O4    O     O_R   0.177380 0.612160 0.452890 -0.538265
O5    O     O_R   0.002100 0.415100 0.412560 -0.537952
C2    C     C_R   0.345702 0.638457 0.436546 0.704795
O6    O     O_R   0.509250 0.584900 0.587440 -0.542063
O7    O     O_3   0.337570 0.435330 0.486930 -0.374235
V1    V     V_3+5 0.064650 0.512000 0.502430 1.464641
O8    O     O_R   0.672090 0.402890 0.410590 -0.544924
C3    C     C_R   0.840274 0.381597 0.383066 0.718859
O9    O     O_R   0.674540 0.387840 0.547110 -0.543712
C4    C     C_R   0.843906 0.361391 0.563930 0.707812
V2    V     V_3+5 0.564040 0.488000 0.497570 1.447562
O10   O     O_3   0.840990 0.564670 0.513070 -0.371445
C5    C     C_R   0.944420 0.113841 0.609609 -0.159191
H1    H     H_    0.947135 0.164534 0.516855 0.102931
H2    H     H_    0.992120 0.991472 0.692575 0.115940
H3    H     H_    0.991626 0.037897 0.583848 0.111894
C6    C     C_R   0.856271 0.283608 0.603011 -0.033744
C7    C     C_R   0.799445 0.315902 0.931688 0.136207
C8    C     C_R   0.764026 0.389036 0.895417 -0.108096
C9    C     C_R   0.779599 0.365268 0.824474 -0.151893
C10   C     C_R   0.835053 0.266809 0.787208 0.086233
C11   C     C_R   0.872835 0.191778 0.824468 0.035873
C12   C     C_R   0.855103 0.240534 0.714317 0.089438
C13   C     C_R   0.915133 0.140510 0.680663 0.139312
C14   C     C_R   0.948107 0.068043 0.718093 -0.205885
C15   C     C_R   0.926982 0.092925 0.788694 -0.190743
C16   C     C_R   0.821389 0.310431 0.673505 -0.170227
C17   C     C_R   0.918231 0.185464 0.571277 -0.176419
C18   C     C_R   0.853371 0.216816 0.896843 -0.119729
H4    H     H_    0.773816 0.387273 0.694928 0.124886
H5    H     H_    0.747417 0.426168 0.800550 0.145274
H6    H     H_    0.721804 0.465205 0.922432 0.147987
H7    H     H_    0.955571 0.033812 0.815064 0.116387
C19   C     C_3   0.712708 0.275532 0.211277 -0.108056
C20   C     C_3   0.687760 0.239548 0.278039 -0.148068
H8    H     H_    0.548809 0.229963 0.302521 0.140546
H9    H     H_    0.593561 0.294464 0.179591 0.158685
C21   C     C_3   0.848967 0.312846 0.312222 -0.074027
C22   C     C_3   0.874095 0.349265 0.246428 0.178641
C23   C     C_3   0.026507 0.265654 0.221267 -0.108813
C24   C     C_3   0.001023 0.229496 0.287975 -0.158287
C25   C     C_3   0.839725 0.155157 0.253035 -0.113506
C26   C     C_3   0.864817 0.191801 0.187047 -0.026306
H10   H     H_    0.165743 0.277430 0.197696 0.151365
H11   H     H_    0.119592 0.210813 0.319991 0.129187
H12   H     H_    0.825806 0.074469 0.255499 0.141017
C27   C     C_3   0.539293 0.734916 0.727620 -0.145202
C28   C     C_3   0.438284 0.839943 0.748375 -0.140460
H13   H     H_    0.504596 0.914278 0.747552 0.117129
H14   H     H_    0.689366 0.721953 0.709097 0.127775
C29   C     C_3   0.357216 0.811809 0.812294 -0.034008
C30   C     C_3   0.458766 0.707778 0.792436 -0.142771
C31   C     C_3   0.277089 0.661845 0.751598 0.178763
C32   C     C_3   0.175040 0.766154 0.772290 -0.136209
C33   C     C_3   0.256048 0.793369 0.707496 -0.172701
C34   C     C_3   0.357146 0.689114 0.687520 -0.037853
H15   H     H_    0.541536 0.672443 0.827860 0.127153
H16   H     H_    0.024899 0.778860 0.790782 0.122108
H17   H     H_    0.173368 0.828034 0.671749 0.104256
C35   C     C_R   0.351266 0.893189 0.397379 -0.146741
H18   H     H_    0.343094 0.840835 0.489256 0.098482
H19   H     H_    0.356712 0.020879 0.320057 0.136785
H20   H     H_    0.348272 0.972584 0.425394 0.111629
C36   C     C_R   0.353304 0.716488 0.398794 -0.028520
C37   C     C_R   0.362540 0.686450 0.070947 -0.176905
C38   C     C_R   0.362625 0.609933 0.105413 -0.052667
C39   C     C_R   0.362235 0.633974 0.176440 -0.082420
C40   C     C_R   0.360867 0.736611 0.215552 0.053537
C41   C     C_R   0.360951 0.816551 0.180180 0.031802
C42   C     C_R   0.359236 0.761822 0.288791 0.080131
C43   C     C_R   0.356203 0.865577 0.325547 0.110885
C44   C     C_R   0.357821 0.941909 0.290967 -0.217631
C45   C     C_R   0.361030 0.919722 0.220023 0.080331
C46   C     C_R   0.359345 0.687729 0.327365 -0.157327
C47   C     C_R   0.348718 0.818793 0.433830 -0.178575
C48   C     C_R   0.361727 0.788875 0.106912 -0.078080
H21   H     H_    0.362132 0.607114 0.304078 0.117917
H22   H     H_    0.364014 0.665553 0.015429 0.112612
H23   H     H_    0.362922 0.569690 0.198872 0.138165
H24   H     H_    0.363545 0.530928 0.076766 0.157536
O11   O     O_R   0.203580 0.914920 0.912610 -0.547979
O12   O     O_R   0.535710 0.887810 0.047120 -0.536656
O13   O     O_R   0.710730 0.084950 0.087430 -0.522608
C49   C     C_R   0.367831 0.862921 0.065173 0.750298
O14   O     O_R   0.533010 0.902850 0.910600 -0.548702
O15   O     O_R   0.708010 0.100090 0.949930 -0.535854
C50   C     C_R   0.364227 0.881465 0.882991 0.675557
O16   O     O_R   0.206300 0.899780 0.050100 -0.531473
O17   O     O_3   0.375170 0.064580 0.013100 -0.349712
V3    V     V_3+5 0.648200 0.988020 0.997570 1.482000
O18   O     O_R   0.038030 0.112330 0.952840 -0.538870
C51   C     C_R   0.868346 0.138117 0.935575 0.725347
O19   O     O_R   0.040730 0.097300 0.089360 -0.526281
C52   C     C_R   0.872542 0.120304 0.116580 0.767944
V4    V     V_3+5 0.148780 0.012220 0.002360 1.497001
O20   O     O_3   0.871930 0.935430 0.986900 -0.379711
I1    I     I_    0.899842 0.505042 0.242630 -0.448896
I2    I     I_    0.156940 0.518991 0.756360 -0.505103
I3    I     I_    0.366661 0.055908 0.186716 -0.465328
I4    I     I_    0.765598 0.359886 0.039542 -0.436359

loop_
_geom_bond_atom_site_label_1
_geom_bond_atom_site_label_2
_ccdc_geom_bond_type
C32   H16   S    
C29   C30   S    
O17   V3    S    
H18   C47   S    
O18   C51   A    
C1    O6    A    
O19   C52   A    
O11   C50   A    
C24   C25   S    
C23   C24   S    
C31   I2    S    
C6    C16   A    
C26   C52   S    
C4    C6    S    
C13   C14   A    
O5    C3    A    
C19   C20   S    
O12   C49   A    
V2    O10   S    
O13   V3    S    
C5    H3    S    
C7    I4    S    
C30   C31   S    
C27   C30   S    
O14   V3    S    
C3    C21   S    
C37   H22   S    
O12   V3    S    
C2    C36   S    
O8    V2    S    
C41   C48   A    
C49   O16   A    
C29   C50   S    
C8    C9    A    
C38   C39   A    
O1    V2    S    
C24   H11   S    
O14   C50   A    
C38   H24   S    
O7    V1    S    
O17   V4    S    
C28   C29   S    
O13   C52   A    
C36   C47   A    
C33   C34   S    
O9    C4    A    
O19   V4    S    
O15   V3    S    
C20   C21   S    
C39   H23   S    
C36   C46   A    
C6    C17   A    
C9    H5    S    
C42   C43   A    
C12   C16   A    
C27   C28   S    
C35   H20   S    
C9    C10   A    
C19   H9    S    
C40   C42   A    
C20   H8    S    
O4    C2    A    
C31   C34   S    
C10   C11   A    
C15   H7    S    
C21   C24   S    
O2    C1    A    
C43   C44   A    
C22   I1    S    
C14   C15   A    
O11   V4    S    
C28   C33   S    
C11   C18   A    
V4    O20   S    
V3    O20   S    
H19   C44   S    
C1    C34   S    
C16   H4    S    
C30   H15   S    
C44   C45   A    
C19   C26   S    
O3    C4    A    
C20   C25   S    
C11   C15   A    
O6    V2    S    
O9    V2    S    
C22   C23   S    
C35   C47   A    
C45   I3    S    
H1    C17   S    
C21   C22   S    
O2    V1    S    
C18   C51   S    
C28   H13   S    
C7    C18   A    
C25   C26   S    
O1    C2    A    
C5    C13   A    
C40   C41   A    
O5    V1    S    
O8    C3    A    
C23   C26   S    
O15   C51   A    
C10   C12   A    
C25   H12   S    
C33   H17   S    
C27   H14   S    
C32   C33   S    
C19   C22   S    
C48   C49   S    
O3    V1    S    
V1    O10   S    
C46   H21   S    
C31   C32   S    
C35   C43   A    
O18   V4    S    
O7    V2    S    
C37   C38   A    
O4    V1    S    
C39   C40   A    
C8    H6    S    
C42   C46   A    
C29   C32   S    
C12   C13   A    
C5    C17   A    
C41   C45   A    
C7    C8    A    
C37   C48   A    
C27   C34   S    
C23   H10   S    
O16   V4    S    
H2    C14   S    
