data_mof_unit_67761.cif
_audit_creation_date              2012-12-10T16:50:03-0500
_audit_creation_method            fapswitch 2.2
_symmetry_space_group_name_H-M    P1
_symmetry_Int_Tables_number       1
_space_group_crystal_system       triclinic
_cell_length_a                    7.847046
_cell_length_b                    8.625371
_cell_length_c                    10.687897
_cell_angle_alpha                 94.138805
_cell_angle_beta                  82.016754
_cell_angle_gamma                 93.252041
_cell_volume                      713.718124472

loop_
_atom_site_label
_atom_site_type_symbol
_atom_type_description
_atom_site_fract_x
_atom_site_fract_y
_atom_site_fract_z
_atom_type_partial_charge
C1    C     C_R   0.545243 0.793679 0.491612 0.810904
C2    C     C_R   0.456014 0.205995 0.502368 0.951475
C3    C     C_R   0.504780 0.502731 0.260428 0.895495
C4    C     C_R   0.233642 0.671037 0.932441 -0.056042
C5    C     C_R   0.182063 0.809707 0.002197 0.537642
C6    C     C_R   0.253707 0.852615 0.113729 -0.326708
C7    C     C_R   0.368135 0.757122 0.155067 -0.208395
C8    C     C_R   0.424696 0.623103 0.080765 0.033924
C9    C     C_1   0.660434 0.256155 0.839907 0.243841
C10   C     C_1   0.970685 0.663866 0.606705 0.423043
C11   C     C_1   0.100971 0.578153 0.877171 0.280726
C12   C     C_R   0.379418 0.595281 0.959656 -0.050248
C13   C     C_3   0.076274 0.049332 0.977273 -0.244590
C14   C     C_3   0.552694 0.145341 0.125739 -0.251419
C15   C     C_3   0.801769 0.905973 0.304512 -0.227979
C16   C     C_1   0.300938 0.003387 0.619898 0.160361
C17   C     C_1   0.027718 0.340055 0.387262 0.489300
C18   C     C_R   0.477097 0.486980 0.875697 -0.210546
C19   C     C_R   0.578002 0.379967 0.921679 -0.130853
C20   C     C_R   0.587797 0.385636 0.050202 0.466858
C21   C     C_R   0.515420 0.509739 0.127630 -0.204440
C22   C     C_2   0.565724 0.954265 0.466425 0.297919
C23   C     C_2   0.438212 0.046691 0.521358 -0.310229
C24   C     C_R   0.494122 0.498670 0.740910 0.910345
H1    H     H_    0.210770 0.952326 0.174652 0.155529
H2    H     H_    0.897580 0.857467 0.356402 0.191238
H3    H     H_    0.876505 0.966708 0.225847 0.198642
H4    H     H_    0.410396 0.787917 0.246039 0.152242
H5    H     H_    0.211198 0.084016 0.938644 0.140371
H6    H     H_    0.045655 0.099851 0.075524 0.170284
H7    H     H_    0.989971 0.101693 0.919906 0.231970
H8    H     H_    0.624514 0.043760 0.141871 0.218632
H9    H     H_    0.461260 0.172836 0.212563 0.158604
H10   H     H_    0.480520 0.109222 0.045037 0.133911
H11   H     H_    0.720007 0.813655 0.260875 0.136194
N1    N     N_2   0.950330 0.457950 0.466250 -0.167075
N2    N     N_2   0.049670 0.542050 0.533750 -0.166796
N3    N     N_1   0.725647 0.157340 0.774610 -0.182630
N4    N     N_1   0.904074 0.764945 0.668294 -0.177145
N5    N     N_1   0.994004 0.500845 0.836174 -0.199926
N6    N     N_1   0.192039 0.970128 0.698859 -0.160752
N7    N     N_1   0.091030 0.241311 0.320807 -0.279709
O1    O     O_R   0.389250 0.738570 0.508280 -0.645456
O2    O     O_3   0.671257 0.271931 0.099981 -0.601009
O3    O     O_3   0.703678 0.016274 0.383147 -0.603345
O4    O     O_R   0.678390 0.711630 0.486650 -0.640575
O5    O     O_R   0.355400 0.513470 0.694050 -0.629184
O6    O     O_R   0.644540 0.486530 0.672420 -0.616981
O7    O     O_R   0.321610 0.288370 0.513350 -0.640065
O8    O     O_R   0.610750 0.261430 0.491720 -0.551192
O9    O     O_R   0.355460 0.513470 0.327580 -0.644009
O10   O     O_R   0.644600 0.486530 0.305950 -0.591295
O11   O     O_3   0.044128 0.885978 0.970195 -0.616961
Zn1   Zn    Zn3+2 0.306930 0.517990 0.514440 0.952459
Zn2   Zn    Zn3+2 0.693070 0.482010 0.485560 0.993639

loop_
_geom_bond_atom_site_label_1
_geom_bond_atom_site_label_2
_ccdc_geom_bond_type
O4    Zn2   S    
C14   H10   S    
O6    Zn2   S    
C3    O10   A    
C6    C7    A    
C2    O7    A    
C4    C12   A    
C1    O1    A    
O1    Zn1   S    
C15   H3    S    
C19   C20   A    
O10   Zn2   S    
C8    C12   A    
O9    Zn1   S    
C14   H9    S    
C8    C21   A    
C1    C22   S    
N1    Zn2   S    
C4    C11   S    
C4    C5    A    
C11   N5    T    
O5    Zn1   S    
C18   C24   S    
N2    Zn1   S    
C5    O11   S    
N1    N2    D    
C17   N1    S    
C13   H7    S    
C16   C23   S    
C13   O11   S    
C10   N2    S    
C5    C6    A    
C1    O4    A    
C3    C21   S    
C6    H1    S    
C15   O3    S    
O7    Zn1   S    
C24   O6    A    
C13   H6    S    
C7    C8    A    
C22   O3    S    
C20   C21   A    
C14   O2    S    
C18   C19   A    
C12   C18   A    
C2    C23   S    
C15   H11   S    
C3    O9    A    
C22   C23   D    
C9    N3    T    
C15   H2    S    
C2    O8    A    
C20   O2    S    
C17   N7    T    
C24   O5    A    
C16   N6    T    
C9    C19   S    
C7    H4    S    
O8    Zn2   S    
C13   H5    S    
C14   H8    S    
C10   N4    T    
