data_mof_unit_57089.cif
_audit_creation_date              2012-12-11T15:27:27-0500
_audit_creation_method            fapswitch 2.2
_symmetry_space_group_name_H-M    P1
_symmetry_Int_Tables_number       1
_space_group_crystal_system       triclinic
_cell_length_a                    13.831942
_cell_length_b                    13.965472
_cell_length_c                    27.466875
_cell_angle_alpha                 89.812537
_cell_angle_beta                  90.037667
_cell_angle_gamma                 119.684143
_cell_volume                      4609.45473479

loop_
_atom_site_label
_atom_site_type_symbol
_atom_type_description
_atom_site_fract_x
_atom_site_fract_y
_atom_site_fract_z
_atom_type_partial_charge
C1    C     C_R   0.233787 0.787015 0.568561 0.541219
C2    C     C_1   0.706797 0.862564 0.858694 -0.078695
C3    C     C_1   0.114711 0.880721 0.851274 -0.078329
C4    C     C_1   0.115431 0.232275 0.850975 -0.078878
C5    C     C_1   0.627753 0.813706 0.658560 -0.075858
C6    C     C_1   0.177012 0.818671 0.655835 -0.076087
C7    C     C_1   0.178478 0.358055 0.655762 -0.076253
C8    C     C_1   0.600338 0.795542 0.616452 -0.018198
C9    C     C_1   0.198915 0.805733 0.614842 -0.018422
C10   C     C_1   0.192784 0.392908 0.614776 -0.018327
C11   C     C_R   0.070460 0.162253 0.941699 0.544835
C12   C     C_R   0.212497 0.446374 0.568535 0.542652
C13   C     C_R   0.780173 0.887319 0.948774 0.542091
C14   C     C_R   0.091611 0.928726 0.941740 0.540369
C15   C     C_R   0.603904 0.802860 0.383503 0.025897
C16   C     C_R   0.195498 0.804105 0.384407 0.024769
C17   C     C_R   0.187689 0.376599 0.388823 0.026597
C18   C     C_R   0.573965 0.869010 0.355931 -0.126127
C19   C     C_R   0.120319 0.711007 0.357913 -0.126481
C20   C     C_R   0.275472 0.394049 0.358026 -0.127994
C21   C     C_R   0.596127 0.883220 0.306683 -0.127765
C22   C     C_R   0.106691 0.719604 0.308632 -0.126024
C23   C     C_R   0.552507 0.765089 0.568854 0.540808
C24   C     C_R   0.253344 0.345198 0.312614 -0.123375
C25   C     C_R   0.652606 0.835266 0.284334 0.033763
C26   C     C_R   0.164506 0.822141 0.285295 0.034543
C27   C     C_R   0.142999 0.275438 0.297717 0.033340
C28   C     C_R   0.233349 0.787192 0.431467 0.540001
C29   C     C_R   0.211889 0.444714 0.432057 0.542411
C30   C     C_R   0.553034 0.766054 0.431253 0.539961
C31   C     C_R   0.690453 0.776170 0.312578 -0.119620
C32   C     C_R   0.232363 0.917104 0.312521 -0.120661
C33   C     C_R   0.055294 0.251865 0.330033 -0.120179
C34   C     C_3   0.657873 0.733694 0.789435 -0.212376
C35   C     C_R   0.664694 0.758605 0.361938 -0.130935
C36   C     C_R   0.248658 0.907979 0.361903 -0.130175
C37   C     C_R   0.077526 0.303282 0.375239 -0.128742
C38   C     C_R   0.659151 0.754754 0.205042 -0.127136
C39   C     C_R   0.247762 0.898984 0.204477 -0.126324
C40   C     C_R   0.034444 0.238855 0.221199 -0.123417
C41   C     C_R   0.683917 0.766473 0.155961 -0.142033
C42   C     C_R   0.235430 0.910967 0.155195 -0.144185
C43   C     C_R   0.022545 0.216540 0.171800 -0.137213
C44   C     C_R   0.711367 0.953463 0.156884 -0.008019
C45   C     C_3   0.245001 0.953712 0.781856 -0.212122
C46   C     C_R   0.039346 0.768480 0.159823 -0.010641
C47   C     C_R   0.191318 0.202299 0.171586 -0.013438
C48   C     C_R   0.690231 0.941176 0.207097 -0.093893
C49   C     C_R   0.052350 0.762348 0.209976 -0.095711
C50   C     C_R   0.195850 0.215454 0.222329 -0.093794
C51   C     C_R   0.668376 0.844094 0.231433 0.021629
C52   C     C_R   0.154944 0.828639 0.232490 0.022435
C53   C     C_R   0.120874 0.237726 0.246911 0.021920
C54   C     C_R   0.718143 0.867394 0.132298 0.017702
C55   C     C_R   0.130617 0.852139 0.133155 0.017125
C56   C     C_3   0.055133 0.311513 0.784584 -0.212094
C57   C     C_R   0.097844 0.195229 0.146221 0.017608
C58   C     C_R   0.070734 0.159676 0.094663 0.558224
C59   C     C_R   0.777502 0.885040 0.085955 0.539558
C60   C     C_R   0.115020 0.893067 0.086198 0.547679
C61   C     C_3   0.564380 0.853584 0.736560 -0.212869
C62   C     C_3   0.142311 0.733120 0.738047 -0.214517
C63   C     C_3   0.272363 0.391798 0.735887 -0.214984
C64   C     C_3   0.768298 0.923573 0.722033 -0.215983
C65   C     C_3   0.054552 0.846736 0.713625 -0.213795
C66   C     C_3   0.124674 0.200518 0.712353 -0.213723
C67   C     C_3   0.637469 0.720717 0.733750 -0.213024
C68   C     C_3   0.788293 0.936604 0.777807 -0.214196
C69   C     C_3   0.037419 0.862571 0.768177 -0.215888
C70   C     C_3   0.107658 0.166958 0.766801 -0.217940
C71   C     C_1   0.734416 0.873276 0.900825 -0.029895
C72   C     C_1   0.103896 0.900961 0.892853 -0.024426
C73   C     C_1   0.097109 0.201491 0.892651 -0.028472
C74   C     C_3   0.649578 0.828086 0.711248 0.072315
C75   C     C_3   0.158579 0.833668 0.707257 0.071992
C76   C     C_3   0.162369 0.324393 0.707107 0.072347
C77   C     C_3   0.584685 0.866404 0.792391 -0.215487
C78   C     C_3   0.261028 0.938410 0.727240 -0.212653
C79   C     C_3   0.124742 0.749396 0.792641 -0.212660
C80   C     C_3   0.255159 0.357774 0.790420 -0.212682
C81   C     C_3   0.684190 0.850132 0.806046 0.073554
C82   C     C_3   0.129840 0.861729 0.799898 0.072420
C83   C     C_3   0.133257 0.266625 0.799618 0.072230
C84   C     C_3   0.726273 0.055566 0.129666 -0.248204
C85   C     C_3   0.715394 0.142018 0.159988 -0.329424
C86   C     C_3   0.742317 0.243385 0.129225 -0.468310
C87   C     C_3   0.928168 0.691803 0.135627 -0.238344
C88   C     C_3   0.846652 0.589650 0.165112 -0.327729
C89   C     C_3   0.072233 0.345492 0.730128 -0.212767
C90   C     C_3   0.748164 0.510472 0.133870 -0.465513
C91   C     C_3   0.288355 0.203931 0.144784 -0.241905
C92   C     C_3   0.389690 0.225345 0.175756 -0.329867
C93   C     C_3   0.482861 0.231098 0.144193 -0.468405
Cr1   Cr    Cr6+3 0.164410 0.584450 0.499910 1.016411
Cr2   Cr    Cr6+3 0.415550 0.579960 0.499910 1.018987
Cr3   Cr    Cr6+3 0.420040 0.835590 0.499910 1.015667
Cr4   Cr    Cr6+3 0.156760 0.076070 0.017830 1.001591
Cr5   Cr    Cr6+3 0.923930 0.080690 0.017830 0.990865
Cr6   Cr    Cr6+3 0.919310 0.843240 0.017830 0.993002
H1    H     H_    0.601637 0.949673 0.803847 0.111590
H2    H     H_    0.728341 0.719877 0.798840 0.110738
H3    H     H_    0.253462 0.036151 0.787608 0.104388
H4    H     H_    0.966797 0.247437 0.790836 0.108452
H5    H     H_    0.525292 0.902861 0.371397 0.140126
H6    H     H_    0.078710 0.629529 0.374165 0.137876
H7    H     H_    0.361079 0.451436 0.367587 0.132341
H8    H     H_    0.636163 0.676779 0.222593 0.104381
H9    H     H_    0.329055 0.947286 0.220908 0.101811
H10   H     H_    0.977691 0.260152 0.238854 0.101052
H11   H     H_    0.682534 0.698126 0.137052 0.121801
H12   H     H_    0.042726 0.681219 0.805068 0.113844
H13   H     H_    0.306847 0.970741 0.134724 0.119264
H14   H     H_    0.955824 0.219981 0.153272 0.124560
H15   H     H_    0.563683 0.927044 0.285875 0.099152
H16   H     H_    0.055134 0.644741 0.288492 0.100848
H17   H     H_    0.322845 0.367702 0.288227 0.099681
H18   H     H_    0.693858 0.007936 0.228081 0.096755
H19   H     H_    0.981630 0.708942 0.232300 0.099461
H20   H     H_    0.260315 0.212705 0.243363 0.098564
H21   H     H_    0.736882 0.740842 0.296245 0.102430
H22   H     H_    0.275251 0.997573 0.295373 0.098542
H23   H     H_    0.313102 0.327495 0.800921 0.112194
H24   H     H_    0.969670 0.196975 0.319691 0.106083
H25   H     H_    0.571467 0.930738 0.721295 0.112513
H26   H     H_    0.069118 0.656498 0.724444 0.111951
H27   H     H_    0.338636 0.377914 0.720276 0.112571
H28   H     H_    0.688431 0.707449 0.382714 0.122734
H29   H     H_    0.306601 0.980869 0.381834 0.125143
H30   H     H_    0.008836 0.288407 0.398921 0.123993
H31   H     H_    0.831282 0.906984 0.704738 0.108407
H32   H     H_    0.064442 0.919033 0.692336 0.109526
H33   H     H_    0.045465 0.150096 0.692226 0.109874
H34   H     H_    0.478064 0.786044 0.729371 0.107924
H35   H     H_    0.779333 0.001932 0.706322 0.111189
H36   H     H_    0.979530 0.772541 0.699476 0.112275
H37   H     H_    0.188185 0.183043 0.696302 0.111035
H38   H     H_    0.809236 0.021348 0.788849 0.108806
H39   H     H_    0.954184 0.795870 0.780233 0.108743
H40   H     H_    0.163184 0.133906 0.776847 0.107598
H41   H     H_    0.860552 0.926002 0.787191 0.101375
H42   H     H_    0.038256 0.941595 0.772887 0.099600
H43   H     H_    0.020429 0.100869 0.772669 0.101512
H44   H     H_    0.552591 0.650499 0.726538 0.110536
H45   H     H_    0.216431 0.722233 0.734271 0.107060
H46   H     H_    0.337545 0.931947 0.722508 0.110768
H47   H     H_    0.097402 0.434318 0.726820 0.110162
H48   H     H_    0.698082 0.700617 0.716550 0.111948
H49   H     H_    0.273380 0.012237 0.706465 0.112285
H50   H     H_    0.992067 0.297725 0.710329 0.113399
H51   H     H_    0.582873 0.669694 0.808866 0.112626
H52   H     H_    0.312207 0.951593 0.803338 0.114656
H53   H     H_    0.072212 0.383997 0.807361 0.116005
H54   H     H_    0.825792 0.277693 0.112155 0.160027
H55   H     H_    0.678814 0.222205 0.100305 0.155101
H56   H     H_    0.301374 0.481502 0.732673 0.107448
H57   H     H_    0.743542 0.307688 0.153102 0.142265
H58   H     H_    0.629459 0.106236 0.174660 0.159811
H59   H     H_    0.775501 0.170026 0.190687 0.151141
H60   H     H_    0.809893 0.098982 0.113374 0.182930
H61   H     H_    0.664311 0.027968 0.099663 0.144679
H62   H     H_    0.708489 0.553491 0.115964 0.153981
H63   H     H_    0.775967 0.473280 0.105325 0.153743
H64   H     H_    0.685373 0.444275 0.157389 0.139259
H65   H     H_    0.889519 0.545502 0.178958 0.164920
H66   H     H_    0.813656 0.615185 0.196370 0.151032
H67   H     H_    0.508426 0.804746 0.811875 0.110658
H68   H     H_    0.885874 0.739665 0.127744 0.190911
H69   H     H_    0.945476 0.662241 0.100919 0.161098
H70   H     H_    0.454318 0.153329 0.123727 0.153295
H71   H     H_    0.512538 0.300771 0.117995 0.153916
H72   H     H_    0.552591 0.243788 0.168182 0.142217
H73   H     H_    0.422064 0.304919 0.195385 0.160154
H74   H     H_    0.365627 0.157334 0.202531 0.154982
H75   H     H_    0.257930 0.123727 0.127544 0.192739
H76   H     H_    0.317827 0.269305 0.116380 0.170776
H77   H     H_    0.189989 0.745686 0.814973 0.113659
H78   H     H_    0.275660 0.431032 0.813302 0.114508
O1    O     O_R   0.137310 0.468260 0.552980 -0.511501
O2    O     O_R   0.139940 0.470480 0.446230 -0.522871
O3    O     O_R   0.529520 0.669460 0.446230 -0.519488
O4    O     O_R   0.330540 0.860060 0.446230 -0.523180
O5    O     O_R   0.176560 0.690850 0.450770 -0.507297
O6    O     O_R   0.309150 0.485710 0.450770 -0.504855
O7    O     O_R   0.514290 0.823440 0.450770 -0.507478
O8    O     O_3   0.333333 0.666667 0.499990 -0.264245
O9    O     O_3   1.000000 1.000000 0.017910 -0.274206
O10   O     O_R   0.149710 0.171070 0.967700 -0.491616
O11   O     O_R   0.828930 0.978640 0.967700 -0.518770
O12   O     O_R   0.531740 0.669050 0.552980 -0.510280
O13   O     O_R   0.021360 0.850290 0.967700 -0.483228
O14   O     O_R   0.178510 0.985930 0.071830 -0.541991
O15   O     O_R   0.014070 0.192580 0.071830 -0.511774
O16   O     O_R   0.807420 0.821490 0.071830 -0.530474
O17   O     O_R   0.147830 0.173300 0.066650 -0.492810
O18   O     O_R   0.826700 0.974530 0.066650 -0.526752
O19   O     O_R   0.025470 0.852170 0.066650 -0.502966
O20   O     O_R   0.330950 0.862690 0.552980 -0.509110
O21   O     O_R   0.180530 0.983530 0.965090 -0.504907
O22   O     O_R   0.016470 0.197000 0.965090 -0.486004
O23   O     O_R   0.803000 0.819470 0.965090 -0.511494
O24   O     O_R   0.174120 0.688790 0.549730 -0.499025
O25   O     O_R   0.311210 0.485330 0.549730 -0.499039
O26   O     O_R   0.514670 0.825880 0.549730 -0.497371

loop_
_geom_bond_atom_site_label_1
_geom_bond_atom_site_label_2
_ccdc_geom_bond_type
C25   C31   A    
C15   C18   A    
C12   O1    A    
C87   C88   S    
C26   C32   A    
C13   O23   A    
C7    C10   T    
C18   C21   A    
C17   C29   S    
C45   C82   S    
C24   C27   A    
Cr3   O4    S    
C1    O24   A    
C8    C23   S    
C79   C82   S    
C34   H51   S    
C61   H34   S    
C6    C75   S    
C60   O19   A    
C80   H23   S    
C85   C86   S    
C27   C33   A    
Cr2   O25   S    
C47   C91   S    
C14   O21   A    
C46   C49   A    
C93   H70   S    
Cr5   O22   S    
C90   H63   S    
C61   H25   S    
C11   O10   A    
C68   C81   S    
C64   C68   S    
C86   H54   S    
C16   C19   A    
C11   O22   A    
C65   H36   S    
C63   C76   S    
C69   H42   S    
C5    C74   S    
C17   C20   A    
C77   H1    S    
Cr1   O1    S    
C38   H8    S    
C42   H13   S    
C86   H57   S    
C69   C82   S    
C78   H46   S    
C28   O5    A    
C48   C51   A    
C87   H68   S    
C20   C24   A    
C61   C77   S    
Cr6   O23   S    
Cr5   O11   S    
Cr1   O8    S    
C45   C78   S    
C34   C81   S    
C12   O25   A    
C56   H53   S    
C7    C76   S    
C20   H7    S    
C16   C28   S    
C78   H49   S    
C76   C89   S    
C63   C80   S    
C89   H50   S    
C39   C52   A    
C67   H44   S    
C70   H40   S    
C13   O11   A    
C55   C60   S    
C68   H38   S    
C36   H29   S    
C85   H58   S    
Cr3   O7    S    
C80   C83   S    
Cr3   O8    S    
C15   C35   A    
C65   H32   S    
C84   H60   S    
C39   C42   A    
C66   H33   S    
C54   C59   S    
C40   C43   A    
C84   H61   S    
C39   H9    S    
C31   H21   S    
C64   H35   S    
C93   H71   S    
C70   H43   S    
C50   C53   A    
C90   H62   S    
C56   C83   S    
C34   H2    S    
C62   C79   S    
C19   C22   A    
C1    C9    S    
C84   C85   S    
C38   C41   A    
Cr5   O15   S    
C11   C73   S    
C91   C92   S    
Cr1   O24   S    
Cr2   O12   S    
C18   H5    S    
C38   C51   A    
C13   C71   S    
C62   H26   S    
C59   O18   A    
C77   H67   S    
C88   H65   S    
Cr6   O19   S    
C58   O17   A    
C59   O16   A    
C50   H20   S    
C91   H75   S    
C23   O26   A    
C45   H52   S    
Cr4   O17   S    
C46   C55   A    
C28   O4    A    
C25   C51   S    
C70   C83   S    
C26   C52   S    
C42   C55   A    
C47   C57   A    
C49   H19   S    
C15   C30   S    
C77   C81   S    
Cr4   O9    S    
C49   C52   A    
C66   C76   S    
C3    C82   S    
C27   C53   S    
C91   H76   S    
C67   C74   S    
C17   C37   A    
C35   H28   S    
C89   H47   S    
C4    C73   T    
C40   H10   S    
C10   C12   S    
C66   H37   S    
Cr4   O21   S    
C56   C89   S    
C88   C90   S    
C24   H17   S    
C41   H11   S    
C87   H69   S    
C67   H48   S    
C92   H74   S    
C31   C35   A    
C62   C75   S    
C68   H41   S    
C5    C8    T    
C85   H59   S    
C2    C71   T    
C19   H6    S    
C23   O12   A    
Cr2   O8    S    
Cr3   O26   S    
C46   C87   S    
C69   H39   S    
Cr4   O10   S    
C21   C25   A    
C22   H16   S    
C30   O3    A    
C29   O6    A    
C30   O7    A    
C79   H77   S    
C1    O20   A    
C56   H4    S    
C62   H45   S    
C21   H15   S    
C44   C84   S    
C34   C67   S    
Cr6   O13   S    
C32   C36   A    
C48   H18   S    
C61   C74   S    
Cr6   O16   S    
Cr4   O14   S    
C47   C50   A    
C65   C75   S    
C79   H12   S    
C90   H64   S    
C14   C72   S    
C80   H78   S    
C3    C72   T    
C86   H55   S    
C63   H56   S    
Cr5   O9    S    
C43   H14   S    
C58   O15   A    
Cr3   O20   S    
Cr2   O6    S    
C57   C58   S    
C66   C70   S    
C4    C83   S    
C29   O2    A    
C92   H73   S    
C60   O14   A    
C65   C69   S    
C92   C93   S    
C37   H30   S    
Cr5   O18   S    
Cr1   O2    S    
C75   C78   S    
C33   C37   A    
C41   C54   A    
C63   H27   S    
C45   H3    S    
C43   C57   A    
C40   C53   A    
C14   O13   A    
C44   C54   A    
Cr2   O3    S    
C6    C9    T    
C88   H66   S    
C22   C26   A    
C64   H31   S    
C33   H24   S    
C64   C74   S    
C32   H22   S    
C2    C81   S    
Cr1   O5    S    
Cr6   O9    S    
C16   C36   A    
C44   C48   A    
C93   H72   S    
