data_mof_unit_50791.cif
_audit_creation_date              2012-12-11T16:07:27-0500
_audit_creation_method            fapswitch 2.2
_symmetry_space_group_name_H-M    P1
_symmetry_Int_Tables_number       1
_space_group_crystal_system       triclinic
_cell_length_a                    6.927871
_cell_length_b                    14.444859
_cell_length_c                    15.855628
_cell_angle_alpha                 90.25234
_cell_angle_beta                  89.894279
_cell_angle_gamma                 90.03186
_cell_volume                      1586.68797651

loop_
_atom_site_label
_atom_site_type_symbol
_atom_type_description
_atom_site_fract_x
_atom_site_fract_y
_atom_site_fract_z
_atom_type_partial_charge
O1    O     O_R   0.494320 0.415010 0.412140 -0.540314
O2    O     O_R   0.824010 0.404260 0.587250 -0.542111
O3    O     O_R   0.994320 0.584990 0.587860 -0.537550
C1    C     C_R   0.654641 0.381756 0.616356 0.657235
O4    O     O_R   0.824040 0.403870 0.412760 -0.544003
O5    O     O_R   0.994350 0.584590 0.412130 -0.540428
C2    C     C_R   0.655535 0.383773 0.381770 0.653394
O6    O     O_R   0.494300 0.415410 0.587870 -0.540329
O7    O     O_3   0.660800 0.559290 0.500000 -0.364943
V1    V     V_3+5 0.935650 0.489000 0.500000 1.372699
O8    O     O_R   0.324060 0.595740 0.412750 -0.544971
C3    C     C_R   0.155466 0.617573 0.383299 0.679069
O9    O     O_R   0.324040 0.596130 0.587240 -0.540660
C4    C     C_R   0.154881 0.618512 0.616098 0.692364
V2    V     V_3+5 0.435660 0.511000 0.500000 1.374179
O10   O     O_3   0.160640 0.440710 0.500000 -0.369282
C5    C     C_3   0.953920 0.719006 0.730278 -0.155570
C6    C     C_3   0.054675 0.709216 0.817254 -0.202793
H1    H     H_    0.991099 0.675336 0.873433 0.106799
H2    H     H_    0.805872 0.695150 0.714485 0.114291
C7    C     C_3   0.123224 0.810730 0.811895 -0.066558
C8    C     C_3   0.026067 0.819480 0.725835 0.351408
C9    C     C_3   0.212685 0.790035 0.680341 -0.152513
C10   C     C_3   0.311883 0.779838 0.767667 -0.152804
C11   C     C_3   0.243335 0.677630 0.772534 -0.127378
C12   C     C_3   0.143352 0.688592 0.686323 -0.049426
H3    H     H_    0.276410 0.823447 0.623843 0.098039
H4    H     H_    0.459473 0.804412 0.783377 0.119910
H5    H     H_    0.334354 0.618024 0.791455 0.097901
C13   C     C_3   0.334940 0.795950 0.215666 -0.354126
H6    H     H_    0.417194 0.765875 0.161894 0.132464
H7    H     H_    0.406185 0.862561 0.232498 0.177958
C14   C     C_3   0.346343 0.729386 0.291588 -0.330006
H8    H     H_    0.402361 0.767541 0.347572 0.154800
H9    H     H_    0.451106 0.673221 0.276636 0.145934
H10   H     H_    0.135501 0.690203 0.105862 0.100574
H11   H     H_    0.165158 0.585751 0.210371 0.102887
C15   C     C_3   0.043028 0.714168 0.159387 0.120755
C16   C     C_3   0.008933 0.846742 0.269391 0.184707
C17   C     C_3   0.121390 0.811878 0.188331 0.038117
H12   H     H_    0.856644 0.862964 0.253253 0.074228
C18   C     C_3   0.144575 0.687693 0.312333 0.051861
C19   C     C_3   0.065152 0.641715 0.231180 -0.349110
C20   C     C_3   0.005962 0.767804 0.336686 -0.355866
H13   H     H_    0.045245 0.793799 0.400549 0.116660
H14   H     H_    0.855998 0.740667 0.342281 0.126201
H15   H     H_    0.924135 0.607793 0.244820 0.161077
C21   C     C_3   0.429383 0.293857 0.714385 -0.307541
H16   H     H_    0.362262 0.359981 0.735671 0.129790
H17   H     H_    0.344125 0.268070 0.659654 0.138560
C22   C     C_3   0.417335 0.222523 0.786528 -0.314965
H18   H     H_    0.326112 0.163120 0.765961 0.139702
H19   H     H_    0.345100 0.254942 0.842038 0.132805
H20   H     H_    0.694746 0.412528 0.788174 0.118194
H21   H     H_    0.677570 0.306144 0.895383 0.115161
C23   C     C_3   0.755056 0.345251 0.766103 -0.322717
C24   C     C_3   0.729495 0.216721 0.659271 -0.324344
C25   C     C_3   0.642582 0.311088 0.687219 0.115920
H22   H     H_    0.883203 0.225918 0.640569 0.139869
H23   H     H_    0.650924 0.190064 0.603024 0.118597
C26   C     C_3   0.621692 0.187710 0.811607 0.112214
C27   C     C_3   0.743141 0.273276 0.838562 -0.321779
C28   C     C_3   0.716737 0.144704 0.731704 -0.314493
H24   H     H_    0.631131 0.083841 0.710248 0.128215
H25   H     H_    0.864305 0.119400 0.746876 0.152320
H26   H     H_    0.909178 0.357339 0.749511 0.136891
H27   H     H_    0.891665 0.251249 0.856015 0.140267
C29   C     C_3   0.491069 0.343727 0.243281 -0.318983
H28   H     H_    0.346981 0.350845 0.273783 0.140139
H29   H     H_    0.529379 0.412521 0.216707 0.121027
C30   C     C_3   0.476732 0.271239 0.170797 -0.320202
H30   H     H_    0.505189 0.305469 0.109277 0.117970
H31   H     H_    0.327039 0.243307 0.168496 0.142099
H32   H     H_    0.447240 0.221582 0.376623 0.132676
H33   H     H_    0.430056 0.116163 0.269632 0.139450
C31   C     C_3   0.589045 0.217801 0.343658 -0.321263
C32   C     C_3   0.841754 0.305605 0.263114 -0.320939
C33   C     C_3   0.644851 0.314503 0.309625 0.123466
H34   H     H_    0.955249 0.281890 0.307697 0.140743
H35   H     H_    0.887451 0.374362 0.238699 0.124097
C34   C     C_3   0.623084 0.191233 0.184389 0.116652
C35   C     C_3   0.577138 0.146077 0.270845 -0.328995
C36   C     C_3   0.827742 0.235800 0.189107 -0.311716
H36   H     H_    0.860385 0.271850 0.128841 0.126779
H37   H     H_    0.940191 0.182018 0.197240 0.143037
H38   H     H_    0.697632 0.194631 0.390711 0.122511
H39   H     H_    0.678085 0.088309 0.283575 0.130445
O11   O     O_R   0.771990 0.083520 0.910980 -0.538794
O12   O     O_R   0.442180 0.095020 0.086060 -0.545380
O13   O     O_R   0.271950 0.914280 0.086680 -0.543641
C37   C     C_R   0.611456 0.119165 0.114075 0.646657
O14   O     O_R   0.442270 0.094630 0.911580 -0.542390
O15   O     O_R   0.272040 0.913890 0.910940 -0.535900
C38   C     C_R   0.611211 0.117068 0.882447 0.655265
O16   O     O_R   0.771900 0.083910 0.086710 -0.542442
O17   O     O_3   0.605520 0.939610 0.998840 -0.362681
V3    V     V_3+5 0.330640 0.009880 0.998810 1.370735
O18   O     O_R   0.942330 0.902710 0.911540 -0.547178
C39   C     C_R   0.111483 0.880646 0.882405 0.691908
O19   O     O_R   0.942240 0.903100 0.086030 -0.538782
C40   C     C_R   0.111098 0.880372 0.115148 0.685493
V4    V     V_3+5 0.830640 0.987830 0.998780 1.371198
O20   O     O_3   0.105630 0.058150 0.998800 -0.368638
N1    N     N_2   0.094586 0.930108 0.306813 -0.518943
H40   H     H_    0.055011 0.940926 0.368851 0.255787
C41   C     C_3   0.078450 0.015225 0.259637 -0.597622
H41   H     H_    0.087953 0.075751 0.302989 0.176673
H42   H     H_    0.939173 0.018235 0.225674 0.195104
H43   H     H_    0.198569 0.020656 0.213959 0.212970
N2    N     N_2   0.841986 0.716528 0.132198 -0.519589
H44   H     H_    0.751998 0.764790 0.159208 0.256501
C42   C     C_3   0.801422 0.693602 0.045159 -0.558047
H45   H     H_    0.642883 0.689443 0.035660 0.186166
H46   H     H_    0.865350 0.625354 0.028694 0.184378
H47   H     H_    0.861004 0.747613 0.003030 0.206236
N3    N     N_2   0.907157 0.897407 0.701929 -0.534333
H48   H     H_    0.802628 0.912979 0.746118 0.247353
C43   C     C_3   0.832219 0.893427 0.616954 -0.593360
H49   H     H_    0.753739 0.958524 0.602939 0.196603
H50   H     H_    0.730579 0.834321 0.610144 0.192670
H51   H     H_    0.951831 0.886020 0.570685 0.199598

loop_
_geom_bond_atom_site_label_1
_geom_bond_atom_site_label_2
_ccdc_geom_bond_type
C13   H7    S    
C28   H25   S    
O17   V4    S    
C6    C7    S    
C22   C26   S    
C1    O6    A    
N1    C41   S    
C34   C35   S    
C16   N1    S    
C16   H12   S    
C32   C33   S    
H32   C31   S    
C27   H27   S    
C14   C18   S    
C31   C33   S    
O5    C3    A    
C13   H6    S    
C7    C39   S    
C24   H22   S    
C41   H41   S    
C32   C36   S    
C35   H39   S    
H21   C27   S    
C5    H2    S    
N3    H48   S    
C5    C6    S    
C6    H1    S    
C9    C12   S    
C26   C28   S    
C43   H49   S    
C42   H45   S    
C3    C18   S    
C17   C40   S    
N2    H44   S    
O8    V2    S    
C21   C22   S    
N3    C43   S    
C29   H28   S    
C9    C10   S    
O1    V2    S    
C9    H3    S    
C15   N2    S    
O7    V1    S    
O15   C39   A    
O13   V3    S    
O16   V4    S    
C21   H17   S    
O9    C4    A    
C11   H5    S    
V4    O20   S    
C6    C11   S    
C18   C20   S    
O19   V4    S    
N1    H40   S    
C34   C36   S    
C20   H14   S    
O14   V3    S    
C24   C28   S    
N2    C42   S    
C32   H34   S    
C29   C33   S    
H20   C23   S    
C22   H18   S    
C10   C11   S    
C31   C35   S    
C16   C17   S    
C30   H31   S    
C26   C38   S    
C24   H23   S    
C11   C12   S    
O18   V4    S    
O12   V3    S    
C22   H19   S    
C43   H51   S    
H11   C19   S    
O2    C1    A    
O13   C40   A    
C36   H36   S    
O17   V3    S    
O14   C38   A    
C14   H8    S    
C13   C17   S    
C4    C12   S    
V3    O20   S    
O3    C4    A    
C2    C33   S    
C42   H46   S    
C21   H16   S    
C36   H37   S    
O6    V2    S    
O9    V2    S    
C23   C27   S    
C7    C10   S    
O12   C37   A    
C18   C19   S    
C5    C12   S    
O2    V1    S    
O15   V3    S    
C20   H13   S    
O4    C2    A    
C32   H35   S    
C13   C14   S    
O1    C2    A    
C10   H4    S    
O5    V1    S    
O11   V4    S    
O8    C3    A    
H33   C35   S    
C21   C25   S    
C16   C20   S    
C5    C8    S    
H10   C15   S    
O7    V2    S    
O4    V1    S    
O3    V1    S    
V1    O10   S    
C15   C17   S    
C24   C25   S    
C41   H42   S    
C29   C30   S    
C23   H26   S    
C8    N3    S    
O19   C40   A    
C14   H9    S    
C23   C25   S    
C26   C27   S    
C43   H50   S    
C37   O16   A    
C28   H24   S    
C34   C37   S    
C15   C19   S    
C30   H30   S    
C29   H29   S    
O18   C39   A    
C31   H38   S    
C1    C25   S    
O11   C38   A    
C8    C9    S    
C7    C8    S    
C19   H15   S    
C42   H47   S    
V2    O10   S    
C30   C34   S    
C41   H43   S    
