data_mof_unit_49582.cif
_audit_creation_date              2012-12-10T17:13:43-0500
_audit_creation_method            fapswitch 2.2
_symmetry_space_group_name_H-M    P1
_symmetry_Int_Tables_number       1
_space_group_crystal_system       triclinic
_cell_length_a                    27.667547
_cell_length_b                    10.773879
_cell_length_c                    10.001436
_cell_angle_alpha                 87.68854
_cell_angle_beta                  90.10685
_cell_angle_gamma                 90.584077
_cell_volume                      2978.7124194

loop_
_atom_site_label
_atom_site_type_symbol
_atom_type_description
_atom_site_fract_x
_atom_site_fract_y
_atom_site_fract_z
_atom_type_partial_charge
C1    C     C_R   0.502574 0.262062 0.503228 0.795720
C2    C     C_R   0.972531 0.410517 0.545328 -0.022603
C3    C     C_R   0.976520 0.638111 0.523244 0.025821
C4    C     C_R   0.405950 0.499517 0.499963 0.899257
C5    C     C_R   0.949156 0.526616 0.532345 0.006711
C6    C     C_R   0.944542 0.303301 0.581599 0.492794
C7    C     C_R   0.894364 0.308914 0.579122 -0.222756
C8    C     C_R   0.871035 0.420440 0.546650 -0.071263
C9    C     C_R   0.898215 0.530677 0.525848 -0.130197
C10   C     C_R   0.874525 0.644193 0.496981 -0.120902
C11   C     C_R   0.823734 0.643091 0.486956 0.550744
C12   C     C_R   0.276682 0.503421 0.380340 0.513545
C13   C     C_R   0.820784 0.424617 0.537659 0.553551
C14   C     C_R   0.723224 0.477666 0.395413 -0.078609
C15   C     C_R   0.673114 0.468422 0.395223 -0.242097
C16   C     C_R   0.497992 0.736946 0.496889 0.828379
C17   C     C_R   0.670350 0.579953 0.602363 0.497582
C18   C     C_R   0.720659 0.586788 0.602737 -0.186973
C19   C     C_R   0.746972 0.535290 0.500065 0.223535
C20   C     C_R   0.022827 0.406784 0.522085 -0.003014
C21   C     C_R   0.050400 0.517602 0.527821 0.007898
C22   C     C_R   0.027344 0.633287 0.541112 -0.002675
C23   C     C_R   0.252367 0.499194 0.503377 0.120570
C24   C     C_R   0.046002 0.297273 0.486494 -0.269424
C25   C     C_R   0.106404 0.730509 0.569992 -0.226165
C26   C     C_R   0.952556 0.749521 0.488699 -0.244787
C27   C     C_R   0.902231 0.754111 0.477669 0.523782
C28   C     C_R   0.593919 0.503270 0.500075 0.911222
C29   C     C_R   0.055747 0.739098 0.571225 0.488801
C30   C     C_2   0.518496 0.936148 0.404241 0.566484
C31   C     C_2   0.489155 0.867800 0.485371 0.271648
C32   C     C_2   0.514147 0.069491 0.397910 -0.259815
C33   C     C_2   0.512616 0.130183 0.511803 0.339853
C34   C     C_R   0.101209 0.512519 0.519619 -0.141187
C35   C     C_2   0.532375 0.557417 0.923015 -0.170390
C36   C     C_2   0.527095 0.573251 0.070827 0.731341
C37   C     C_R   0.174783 0.397804 0.486323 0.629080
C38   C     C_R   0.179355 0.613755 0.530825 0.619942
C39   C     C_R   0.277718 0.493821 0.624931 0.519814
C40   C     C_R   0.328209 0.490077 0.622601 -0.335540
C41   C     C_R   0.327296 0.506499 0.379793 -0.324895
C42   C     C_3   0.265864 0.578183 0.829576 -0.263772
C43   C     C_3   0.634835 0.755674 0.668252 -0.208037
C44   C     C_3   0.880387 0.944018 0.545796 -0.180102
C45   C     C_R   0.124153 0.399701 0.492879 -0.150075
C46   C     C_3   0.052681 0.953828 0.569069 -0.274736
C47   C     C_3   0.410290 0.843799 0.565582 -0.308496
C48   C     C_3   0.261053 0.418487 0.177930 -0.238895
C49   C     C_3   0.497847 0.089565 0.740083 -0.097493
C50   C     C_3   0.975525 0.200226 0.763465 -0.326545
C51   C     C_R   0.095896 0.293115 0.472558 0.645800
C52   C     C_R   0.129044 0.620138 0.538716 -0.069124
C53   C     C_R   0.353099 0.498628 0.500562 -0.164727
C54   C     C_R   0.646445 0.516517 0.500038 -0.150220
F1    F     F_    0.553134 0.883814 0.328635 -0.624548
F2    F     F_    0.552642 0.666346 0.126382 -0.624486
F3    F     F_    0.486865 0.392492 0.099355 -0.629840
F4    F     F_    0.116039 0.184569 0.438091 -0.641034
H1    H     H_    0.346361 0.516287 0.285510 0.187569
H2    H     H_    0.873827 0.225338 0.604710 0.189947
H3    H     H_    0.025592 0.215510 0.461880 0.202231
H4    H     H_    0.347907 0.480275 0.715942 0.184889
H5    H     H_    0.269554 0.670367 0.775654 0.187895
H6    H     H_    0.299890 0.553810 0.883050 0.149389
H7    H     H_    0.237346 0.586993 0.906307 0.208696
H8    H     H_    0.612375 0.762627 0.575782 0.170514
H9    H     H_    0.668656 0.811616 0.654841 0.177639
H10   H     H_    0.613793 0.796390 0.749696 0.205057
H11   H     H_    0.862937 0.898714 0.635722 0.157976
H12   H     H_    0.128265 0.809567 0.596682 0.205560
H13   H     H_    0.858766 0.026833 0.516702 0.206340
H14   H     H_    0.917524 0.976295 0.570402 0.182951
H15   H     H_    0.061731 0.948961 0.460838 0.186949
H16   H     H_    0.084495 0.984291 0.627591 0.214147
H17   H     H_    0.024755 0.025345 0.577228 0.232251
H18   H     H_    0.415814 0.772593 0.647428 0.188805
H19   H     H_    0.401045 0.799419 0.470031 0.151483
H20   H     H_    0.378820 0.900145 0.593533 0.206901
H21   H     H_    0.261972 0.326283 0.232568 0.195637
H22   H     H_    0.295711 0.437426 0.124707 0.149643
H23   H     H_    0.972484 0.833413 0.461763 0.197476
H24   H     H_    0.232273 0.413483 0.100921 0.207285
H25   H     H_    0.459852 0.110845 0.710619 0.162071
H26   H     H_    0.512890 0.164153 0.801822 0.187695
H27   H     H_    0.496801 0.003114 0.804196 0.184304
H28   H     H_    0.942029 0.214623 0.822171 0.178675
H29   H     H_    0.002543 0.274785 0.782266 0.182528
H30   H     H_    0.991311 0.110794 0.799709 0.213560
H31   H     H_    0.739347 0.630901 0.683712 0.163494
H32   H     H_    0.509454 0.115260 0.300031 0.172564
H33   H     H_    0.563168 0.601109 0.872695 0.210865
H34   H     H_    0.468233 0.477245 0.897285 0.219570
H35   H     H_    0.655263 0.421216 0.314935 0.192842
H36   H     H_    0.743750 0.437674 0.316032 0.161561
N1    N     N_R   0.200908 0.503823 0.505485 -0.323728
N2    N     N_R   0.798425 0.534399 0.507063 -0.351519
N3    N     N_2   0.500520 0.501330 0.852150 -0.208148
N4    N     N_2   0.500540 0.501360 0.147810 0.081904
O1    O     O_R   0.499990 0.319060 0.613040 -0.615193
O2    O     O_R   0.571240 0.499960 0.613080 -0.571311
O3    O     O_R   0.571250 0.500000 0.386950 -0.583454
O4    O     O_2   0.197952 0.291305 0.462739 -0.483409
O5    O     O_3   0.251911 0.483241 0.743745 -0.601890
O6    O     O_3   0.645028 0.630991 0.705323 -0.612070
O7    O     O_3   0.880764 0.864727 0.437080 -0.564256
O8    O     O_3   0.033547 0.841215 0.624238 -0.630598
O9    O     O_3   0.451072 0.923182 0.551861 -0.643901
O10   O     O_3   0.250039 0.515643 0.263057 -0.604317
O11   O     O_3   0.528701 0.070438 0.630383 -0.615427
O12   O     O_2   0.794255 0.319893 0.559734 -0.551388
O13   O     O_3   0.965322 0.193153 0.625782 -0.662412
O14   O     O_2   0.206698 0.716429 0.547972 -0.563092
O15   O     O_2   0.799585 0.748832 0.457258 -0.491198
O16   O     O_R   0.500010 0.319100 0.386900 -0.582315
O17   O     O_R   0.428750 0.500000 0.613050 -0.639421
O18   O     O_R   0.428760 0.500040 0.386920 -0.607153
O19   O     O_R   0.499990 0.680900 0.613100 -0.623017
O20   O     O_R   0.500010 0.680940 0.386960 -0.566833
Zn1   Zn    Zn3+2 0.499990 0.499970 0.650990 0.976342
Zn2   Zn    Zn3+2 0.500010 0.500030 0.349010 1.102395

loop_
_geom_bond_atom_site_label_1
_geom_bond_atom_site_label_2
_ccdc_geom_bond_type
C10   C27   A    
C11   N2    A    
C24   H3    S    
C22   C29   A    
C4    C53   S    
C42   H5    S    
C6    O13   S    
C4    O17   A    
C35   C36   S    
C42   O5    S    
C1    O1    A    
C1    C33   S    
C7    C8    A    
C44   O7    S    
C16   C31   S    
C12   C23   A    
C26   C27   A    
C8    C13   A    
C48   H21   S    
C49   O11   S    
C17   O6    S    
C47   H18   S    
O19   Zn1   S    
C30   C31   D    
C38   C52   A    
C45   C51   A    
C40   H4    S    
C37   N1    A    
C44   H13   S    
C18   C19   A    
C51   F4    S    
C43   O6    S    
C34   C52   A    
C28   O3    A    
C32   H32   S    
C20   C24   A    
C23   N1    S    
C8    C9    A    
C38   N1    A    
C42   H7    S    
C9    C10   A    
C50   H30   S    
C28   O2    A    
C24   C51   A    
C21   C22   A    
C18   H31   S    
C2    C6    A    
C46   H17   S    
H34   N3    S    
C25   C29   A    
C13   N2    A    
C2    C20   A    
C15   C54   A    
C49   H27   S    
C41   H1    S    
C39   C40   A    
C34   C45   A    
C28   C54   S    
C43   H10   S    
C21   C34   A    
C37   O4    S    
O18   Zn2   S    
N3    Zn1   S    
C5    C9    A    
C12   C41   A    
C36   F2    S    
C16   O20   A    
C17   C18   A    
C44   H11   S    
O2    Zn1   S    
C39   O5    S    
C13   O12   S    
C41   C53   A    
C50   H29   S    
C26   H23   S    
O17   Zn1   S    
C29   O8    S    
C2    C5    A    
C33   O11   S    
C1    O16   A    
C47   H19   S    
C37   C45   A    
C42   H6    S    
C7    H2    S    
C46   H16   S    
C49   H26   S    
C12   O10   S    
O3    Zn2   S    
C31   O9    S    
C14   C19   A    
C4    O18   A    
C3    C26   A    
C3    C5    A    
C15   H35   S    
N4    Zn2   S    
C6    C7    A    
C30   F1    S    
C47   O9    S    
C32   C33   D    
C49   H25   S    
C25   C52   A    
C16   O19   A    
C30   C32   S    
C48   H22   S    
C48   O10   S    
C43   H8    S    
C23   C39   A    
F3    N4    S    
C46   O8    S    
C50   O13   S    
C48   H24   S    
C44   H14   S    
C11   O15   S    
O20   Zn2   S    
C10   C11   A    
C50   H28   S    
O1    Zn1   S    
C20   C21   A    
C43   H9    S    
C40   C53   A    
C27   O7    S    
C14   C15   A    
C3    C22   A    
C36   N4    D    
C25   H12   S    
C47   H20   S    
C35   N3    D    
C38   O14   S    
C17   C54   A    
C14   H36   S    
C46   H15   S    
O16   Zn2   S    
C19   N2    S    
C35   H33   S    
