data_mof_unit_47415.cif
_audit_creation_date              2012-12-11T14:50:31-0500
_audit_creation_method            fapswitch 2.2
_symmetry_space_group_name_H-M    P1
_symmetry_Int_Tables_number       1
_space_group_crystal_system       triclinic
_cell_length_a                    11.135103
_cell_length_b                    11.043887
_cell_length_c                    18.802617
_cell_angle_alpha                 89.760193
_cell_angle_beta                  89.805725
_cell_angle_gamma                 59.18843
_cell_volume                      1985.87005869

loop_
_atom_site_label
_atom_site_type_symbol
_atom_type_description
_atom_site_fract_x
_atom_site_fract_y
_atom_site_fract_z
_atom_type_partial_charge
C1    C     C_R   0.287007 0.623788 0.615534 0.533664
C2    C     C_3   0.728488 0.510998 0.808119 -0.063093
C3    C     C_3   0.691888 0.667326 0.814989 0.061635
C4    C     C_3   0.652496 0.613953 0.683886 0.017832
C5    C     C_3   0.743437 0.684021 0.683484 0.005278
C6    C     C_3   0.731162 0.472448 0.728181 -0.008225
C7    C     C_R   0.785691 0.148126 0.709173 -0.161492
C8    C     C_R   0.798029 0.134757 0.783165 -0.130174
C9    C     C_R   0.684111 0.154510 0.823968 0.064250
C10   C     C_R   0.556113 0.196019 0.790971 -0.128649
C11   C     C_R   0.546762 0.201142 0.718644 -0.127116
C12   C     C_R   0.628804 0.586075 0.609255 0.552056
C13   C     C_R   0.658445 0.183824 0.676838 0.038801
C14   C     C_R   0.252954 0.526728 0.729586 -0.151491
C15   C     C_R   0.222261 0.541837 0.802373 -0.124295
C16   C     C_R   0.186529 0.668926 0.836302 0.047604
C17   C     C_R   0.185178 0.777702 0.796934 -0.166684
C18   C     C_R   0.209443 0.765058 0.724944 -0.172569
C19   C     C_R   0.247138 0.638396 0.690540 0.008249
C20   C     C_R   0.707766 0.546025 0.269386 0.105521
C21   C     C_R   0.711850 0.574590 0.199064 -0.083007
C22   C     C_R   0.692025 0.703989 0.177986 0.012150
C23   C     C_R   0.626937 0.230185 0.603200 0.555870
C24   C     C_R   0.652692 0.812317 0.227707 -0.159129
C25   C     C_R   0.635820 0.788716 0.299223 -0.193478
C26   C     C_R   0.663176 0.654974 0.320376 0.021348
C27   C     C_R   0.523981 0.210436 0.282280 -0.148393
C28   C     C_R   0.535959 0.197015 0.210028 -0.180009
C29   C     C_R   0.665441 0.146248 0.178128 0.041746
C30   C     C_R   0.786953 0.107406 0.220550 0.140987
C31   C     C_R   0.773225 0.115461 0.294102 -0.128539
C32   C     C_R   0.641603 0.174664 0.324397 -0.006663
C33   C     C_R   0.274576 0.718258 0.271451 0.072679
C34   C     C_R   0.279987 0.624116 0.392057 0.592000
C35   C     C_R   0.257397 0.716198 0.198092 0.055198
C36   C     C_R   0.193864 0.644413 0.170826 -0.005119
C37   C     C_R   0.184811 0.544034 0.212435 0.107230
C38   C     C_R   0.195002 0.549486 0.286637 0.117676
C39   C     C_R   0.241853 0.636145 0.316376 0.008229
C40   C     C_R   0.701659 0.100597 0.896146 0.577007
C41   C     C_R   0.723856 0.688675 0.888319 0.639364
C42   C     C_R   0.118621 0.706008 0.906079 0.567281
C43   C     C_R   0.678234 0.102051 0.104925 0.548843
C44   C     C_R   0.729410 0.716567 0.105763 0.569647
C45   C     C_R   0.644152 0.624470 0.393373 0.565985
C46   C     C_R   0.104501 0.702457 0.108184 0.574955
C47   C     C_R   0.617082 0.227789 0.396031 0.539874
C48   C     C_3   0.538873 0.774393 0.790365 0.021870
C49   C     C_3   0.510976 0.713020 0.723152 -0.257462
C50   C     C_3   0.788809 0.687071 0.761632 -0.019813
Cr1   Cr    Cr6+3 0.392930 0.397900 0.502230 1.028088
Cr2   Cr    Cr6+3 0.398240 0.708600 0.501260 1.028660
Cr3   Cr    Cr6+3 0.708800 0.393470 0.496460 0.975596
Cr4   Cr    Cr6+3 0.937620 0.938540 0.007640 1.019775
Cr5   Cr    Cr6+3 0.625150 0.937450 0.994520 1.044782
Cr6   Cr    Cr6+3 0.937990 0.625080 0.001190 1.003849
H1    H     H_    0.532557 0.873444 0.772839 0.167399
H2    H     H_    0.895979 0.595657 0.769384 0.148430
H3    H     H_    0.840771 0.619430 0.652148 0.178199
H4    H     H_    0.875696 0.125908 0.677374 0.120348
H5    H     H_    0.898686 0.096684 0.807828 0.115067
H6    H     H_    0.465018 0.213211 0.820575 0.129829
H7    H     H_    0.450052 0.219706 0.695651 0.144448
H8    H     H_    0.272385 0.432250 0.703009 0.123439
H9    H     H_    0.218909 0.458208 0.830869 0.116480
H10   H     H_    0.149329 0.880183 0.819852 0.135592
H11   H     H_    0.199236 0.855511 0.696700 0.139786
H12   H     H_    0.739656 0.490929 0.161062 0.158175
H13   H     H_    0.637865 0.912748 0.211362 0.139230
H14   H     H_    0.603479 0.872718 0.337617 0.138889
H15   H     H_    0.420522 0.253780 0.304689 0.170303
H16   H     H_    0.444907 0.220235 0.179286 0.163040
H17   H     H_    0.863746 0.083518 0.327464 0.102241
H18   H     H_    0.466674 0.647647 0.739028 0.144992
H19   H     H_    0.434624 0.801238 0.689094 0.161593
H20   H     H_    0.830468 0.439692 0.832838 0.169614
H21   H     H_    0.670573 0.418792 0.723299 0.151620
O1    O     O_R   0.507430 0.255570 0.581420 -0.506615
O2    O     O_R   0.524460 0.695920 0.424060 -0.481150
O3    O     O_R   0.736530 0.504260 0.414810 -0.527416
O4    O     O_R   0.691460 0.277160 0.422180 -0.526647
O5    O     O_3   0.499990 0.499990 0.499980 -0.313476
O6    O     O_R   0.089490 0.825610 0.930610 -0.525427
O7    O     O_R   0.818370 0.054540 0.929880 -0.500128
O8    O     O_R   0.605870 0.077310 0.915530 -0.539589
O9    O     O_R   0.646440 0.806700 0.917570 -0.460533
O10   O     O_R   0.837200 0.593290 0.915250 -0.532362
O11   O     O_R   0.065330 0.635370 0.931590 -0.506823
O12   O     O_R   0.280190 0.527390 0.578910 -0.496132
O13   O     O_R   0.068300 0.828790 0.091860 -0.479258
O14   O     O_R   0.798730 0.057480 0.079370 -0.483027
O15   O     O_R   0.584680 0.080480 0.076790 -0.535404
O16   O     O_R   0.626790 0.809640 0.067050 -0.452646
O17   O     O_R   0.816010 0.596460 0.076500 -0.540740
O18   O     O_R   0.045680 0.638310 0.081070 -0.520200
O19   O     O_3   0.833590 0.833690 0.001120 -0.287732
O20   O     O_R   0.260310 0.739740 0.584580 -0.526910
O21   O     O_R   0.532250 0.695150 0.573830 -0.478736
O22   O     O_R   0.744930 0.503430 0.576380 -0.512534
O23   O     O_R   0.699250 0.276390 0.571950 -0.534922
O24   O     O_R   0.499020 0.256400 0.419850 -0.513434
O25   O     O_R   0.272400 0.528160 0.429140 -0.468903
O26   O     O_R   0.251910 0.740570 0.423020 -0.496007
N1    N     N_2   0.872985 0.379227 0.698961 -0.519100
H22   H     H_    0.874643 0.323308 0.655073 0.288040
C51   C     C_3   0.998420 0.297902 0.741469 -0.336388
H23   H     H_    0.087120 0.226460 0.706384 0.135537
H24   H     H_    0.984564 0.232286 0.781224 0.138726
H25   H     H_    0.029055 0.367008 0.768210 0.137128
N2    N     N_2   0.434778 0.812276 0.846259 -0.485595
H26   H     H_    0.399193 0.745220 0.856921 0.299878
C52   C     C_3   0.333576 0.960989 0.855256 -0.297309
H27   H     H_    0.263206 0.975767 0.900603 0.158344
H28   H     H_    0.270434 0.004721 0.806118 0.108632
H29   H     H_    0.387763 0.019575 0.867007 0.167485
N3    N     N_2   0.750526 0.404994 0.287111 -0.501844
H30   H     H_    0.675401 0.396129 0.314097 0.283409
C53   C     C_3   0.893821 0.318417 0.312219 -0.274471
H31   H     H_    0.897567 0.276336 0.366244 0.177854
H32   H     H_    0.949288 0.377272 0.313248 0.133387
H33   H     H_    0.952519 0.226785 0.277900 0.126825
N4    N     N_2   0.924386 0.049613 0.191225 -0.469594
H34   H     H_    0.005121 0.980151 0.223570 0.246685
C54   C     C_3   0.954694 0.142401 0.149628 -0.223807
H35   H     H_    0.042743 0.147684 0.173117 0.094463
H36   H     H_    0.861874 0.250010 0.145016 0.144625
H37   H     H_    0.990207 0.099000 0.095531 0.199847
N5    N     N_2   0.327674 0.800476 0.300233 -0.470751
H38   H     H_    0.409718 0.792519 0.271664 0.282911
C55   C     C_3   0.224567 0.946359 0.314726 -0.276310
H39   H     H_    0.270360 0.990887 0.351117 0.150145
H40   H     H_    0.129928 0.956277 0.340371 0.152505
H41   H     H_    0.194667 0.008520 0.264771 0.130799
I1    I     I_    0.332776 0.817032 0.127675 -0.379785
N6    N     N_2   0.188880 0.426280 0.178839 -0.528574
H42   H     H_    0.236787 0.400079 0.129624 0.257903
C56   C     C_3   0.067588 0.411775 0.183673 -0.278487
H43   H     H_    0.096497 0.313518 0.212957 0.116434
H44   H     H_    0.033957 0.401483 0.129740 0.169952
H45   H     H_    0.980072 0.503330 0.210757 0.167256
N7    N     N_2   0.151392 0.474915 0.331637 -0.492117
H46   H     H_    0.167733 0.380180 0.313117 0.251138
C57   C     C_3   0.015792 0.563115 0.364430 -0.275531
H47   H     H_    0.994821 0.499990 0.403133 0.159329
H48   H     H_    0.933118 0.607137 0.323289 0.131900
H49   H     H_    0.011775 0.652315 0.393596 0.175061
N8    N     N_2   0.795393 0.812052 0.776002 -0.523962
H50   H     H_    0.703313 0.906231 0.781766 0.275749
C58   C     C_3   0.901971 0.821563 0.737712 -0.282935
H51   H     H_    0.861565 0.884377 0.688665 0.183433
H52   H     H_    0.987843 0.716592 0.722082 0.167833
H53   H     H_    0.939630 0.873300 0.772617 0.164948
I2    I     I_    0.636298 0.885052 0.625876 -0.439038
I3    I     I_    0.598909 0.466650 0.875943 -0.444700

loop_
_geom_bond_atom_site_label_1
_geom_bond_atom_site_label_2
_ccdc_geom_bond_type
C50   N8    S    
C57   H49   S    
C48   N2    S    
Cr2   O26   S    
C7    C8    A    
C47   O24   A    
Cr6   O18   S    
C40   O7    A    
C35   C36   A    
N8    H50   S    
Cr5   O16   S    
N5    H38   S    
Cr6   O11   S    
C52   H28   S    
C2    H20   S    
N6    H42   S    
C10   H6    S    
Cr3   O22   S    
Cr1   O25   S    
Cr6   O17   S    
C41   O9    A    
C56   H44   S    
C28   C29   A    
C17   H10   S    
C33   C39   A    
C51   H24   S    
C36   C37   A    
N8    C58   S    
Cr4   O13   S    
C11   H7    S    
N7    C57   S    
C38   C39   A    
C38   N7    S    
C31   H17   S    
C51   H23   S    
C57   H47   S    
C15   H9    S    
C57   H48   S    
C3    C48   S    
N3    H30   S    
C13   C23   S    
Cr3   O4    S    
C18   C19   A    
N2    H26   S    
N1    H22   S    
C12   O22   A    
C44   O16   A    
C26   C45   S    
C53   H31   S    
C22   C44   S    
C46   O18   A    
C30   N4    S    
C8    C9    A    
C49   H19   S    
C36   C46   S    
C6    N1    S    
C4    C12   S    
Cr2   O2    S    
C9    C10   A    
C12   O21   A    
C8    H5    S    
C47   O4    A    
C23   O23   A    
C2    I3    S    
C21   C22   A    
C29   C43   S    
C2    C6    S    
C35   I1    S    
Cr4   O7    S    
Cr4   O6    S    
C3    C50   S    
C24   H13   S    
N2    C52   S    
Cr3   O23   S    
C41   O10   A    
C56   H45   S    
C1    C19   S    
C5    H3    S    
C34   C39   S    
C50   H2    S    
C48   H1    S    
Cr3   O3    S    
C24   C25   A    
C4    C6    S    
C58   H53   S    
C1    O20   A    
C20   N3    S    
C16   C17   A    
Cr6   O10   S    
C18   H11   S    
C33   N5    S    
C43   O14   A    
Cr3   O5    S    
C53   H33   S    
C40   O8    A    
Cr5   O8    S    
C55   H40   S    
C37   C38   A    
Cr2   O20   S    
C31   C32   A    
C7    C13   A    
C14   H8    S    
C37   N6    S    
C17   C18   A    
C45   O2    A    
C34   O25   A    
Cr2   O5    S    
Cr1   O5    S    
C54   H37   S    
C48   C49   S    
Cr5   O15   S    
C21   H12   S    
C32   C47   S    
C22   C24   A    
C5    C50   S    
C55   H41   S    
C42   O11   A    
N4    C54   S    
C16   C42   S    
C7    H4    S    
C27   H15   S    
C54   H36   S    
N6    C56   S    
C3    C41   S    
C1    O12   A    
C27   C32   A    
C14   C15   A    
Cr4   O19   S    
C14   C19   A    
C42   O6    A    
C43   O15   A    
Cr5   O19   S    
C6    H21   S    
N5    C55   S    
N1    C51   S    
C46   O13   A    
Cr1   O24   S    
C56   H43   S    
C34   O26   A    
C4    C49   S    
Cr5   O9    S    
C58   H52   S    
C2    C3    S    
C25   C26   A    
Cr1   O1    S    
Cr4   O14   S    
N7    H46   S    
C28   H16   S    
C11   C13   A    
C30   C31   A    
C20   C26   A    
C5    I2    S    
Cr2   O21   S    
C33   C35   A    
N3    C53   S    
C55   H39   S    
C45   O3    A    
C52   H27   S    
C9    C40   S    
C23   O1    A    
Cr6   O19   S    
C53   H32   S    
C44   O17   A    
C10   C11   A    
C29   C30   A    
C4    C5    S    
C20   C21   A    
C27   C28   A    
C49   H18   S    
C25   H14   S    
N4    H34   S    
C58   H51   S    
C52   H29   S    
Cr1   O12   S    
C15   C16   A    
C54   H35   S    
C51   H25   S    
