data_mof_unit_47561.cif
_audit_creation_date              2012-12-11T14:27:03-0500
_audit_creation_method            fapswitch 2.2
_symmetry_space_group_name_H-M    P1
_symmetry_Int_Tables_number       1
_space_group_crystal_system       triclinic
_cell_length_a                    15.026343
_cell_length_b                    14.882619
_cell_length_c                    14.868417
_cell_angle_alpha                 109.539873
_cell_angle_beta                  109.746802
_cell_angle_gamma                 109.117014
_cell_volume                      2559.87482335

loop_
_atom_site_label
_atom_site_type_symbol
_atom_type_description
_atom_site_fract_x
_atom_site_fract_y
_atom_site_fract_z
_atom_type_partial_charge
C1    C     C_R   0.927789 0.743302 0.020742 -0.132252
C2    C     C_R   0.211793 0.799351 0.304324 0.591524
C3    C     C_R   0.974608 0.407133 0.220684 -0.109967
C4    C     C_R   0.780834 0.253658 0.686329 -0.147078
C5    C     C_R   0.314532 0.591634 0.064252 -0.107580
C6    C     C_R   0.053701 0.497864 0.322898 0.111520
C7    C     C_R   0.325952 0.499619 0.047760 0.039118
C8    C     C_R   0.309087 0.858728 0.310072 -0.024823
C9    C     C_R   0.951579 0.140510 0.948482 0.138847
C10   C     C_3   0.539998 0.504087 0.968658 -0.398823
C11   C     C_3   0.433225 0.497003 0.958643 -0.493534
C12   C     C_R   0.679320 0.230248 0.673759 0.133410
C13   C     C_3   0.531733 0.395556 0.068732 -0.406654
C14   C     C_3   0.635361 0.601377 0.178924 -0.547534
C15   C     C_3   0.604552 0.500525 0.072707 0.332320
C16   C     C_R   0.086753 0.590930 0.788062 -0.165673
C17   C     C_3   0.427350 0.499427 0.061754 0.211195
C18   C     C_3   0.426490 0.393900 0.060655 -0.412494
C19   C     C_3   0.531516 0.607248 0.166141 0.557769
C20   C     C_2   0.389182 0.052592 0.447935 -0.116829
C21   C     C_2   0.400409 0.967648 0.395679 -0.173914
C22   C     C_2   0.482801 0.147800 0.553326 -0.150830
C23   C     C_R   0.052901 0.499827 0.692493 0.139036
C24   C     C_2   0.582951 0.181697 0.567265 -0.186438
C25   C     C_2   0.077826 0.417129 0.536844 -0.122681
C26   C     C_2   0.080890 0.503164 0.609004 -0.197083
C27   C     C_2   0.073702 0.410194 0.434611 -0.107505
C28   C     C_R   0.701900 0.409136 0.005714 -0.163723
C29   C     C_2   0.108968 0.500269 0.425852 -0.194131
C30   C     C_2   0.922560 0.958184 0.838870 -0.117509
C31   C     C_2   0.923390 0.028966 0.923968 -0.197162
C32   C     C_2   0.923083 0.858324 0.834214 -0.110329
C33   C     C_2   0.887632 0.814990 0.889358 -0.194242
C34   C     C_R   0.701015 0.500363 0.069218 0.040948
C35   C     C_R   0.998591 0.408653 0.697731 -0.131361
C36   C     C_R   0.791349 0.591280 0.096440 -0.143224
C37   C     C_R   0.687880 0.254869 0.776363 -0.120230
C38   C     C_R   0.021607 0.745004 0.931593 -0.112827
C39   C     C_R   0.941953 0.767109 0.942549 0.122643
C40   C     C_3   0.234228 0.882277 0.478997 -0.325648
C41   C     C_3   0.507404 0.571151 0.303155 -0.216266
C42   C     C_R   0.067432 0.589565 0.312669 -0.152759
C43   C     C_R   0.223707 0.407884 0.972756 -0.147195
C44   C     C_R   0.303634 0.797195 0.213599 -0.226213
C45   C     C_R   0.916249 0.201060 0.004111 -0.162693
C46   C     C_R   0.006454 0.200391 0.912204 -0.128287
H1    H     H_    0.871171 0.750749 0.048019 0.094762
H2    H     H_    0.508254 0.320061 0.995590 0.153819
H3    H     H_    0.675686 0.595303 0.252717 0.179479
H4    H     H_    0.694453 0.679553 0.192227 0.135723
H5    H     H_    0.537864 0.673588 0.145415 0.031975
H6    H     H_    0.576556 0.392659 0.143557 0.154208
H7    H     H_    0.413900 0.381815 0.125707 0.149579
H8    H     H_    0.309160 0.044883 0.423195 0.164984
H9    H     H_    0.145095 0.674541 0.817511 0.090949
H10   H     H_    0.480253 0.974735 0.420345 0.145827
H11   H     H_    0.470257 0.175945 0.622999 0.121350
H12   H     H_    0.358804 0.825935 0.185368 0.130269
H13   H     H_    0.593048 0.157380 0.495383 0.132966
H14   H     H_    0.059841 0.343296 0.542920 0.117677
H15   H     H_    0.022613 0.329034 0.361878 0.115776
H16   H     H_    0.166418 0.580769 0.498843 0.125018
H17   H     H_    0.909954 0.008672 0.983491 0.130762
H18   H     H_    0.972122 0.834843 0.802804 0.115634
H19   H     H_    0.648394 0.324167 0.976602 0.088209
H20   H     H_    0.831739 0.832199 0.913229 0.127443
H21   H     H_    0.974269 0.324724 0.644001 0.083430
H22   H     H_    0.821092 0.676457 0.151613 0.101760
H23   H     H_    0.857131 0.170735 0.027722 0.091641
H24   H     H_    0.623859 0.247130 0.796051 0.089271
H25   H     H_    0.052504 0.754469 0.877752 0.090813
H26   H     H_    0.124267 0.672306 0.377392 0.133604
H27   H     H_    0.202649 0.322790 0.935094 0.094509
H28   H     H_    0.031670 0.171236 0.853632 0.082128
H29   H     H_    0.266036 0.971756 0.526441 0.168915
H30   H     H_    0.303191 0.865087 0.500186 0.128578
H31   H     H_    0.182392 0.844668 0.508826 0.159463
H32   H     H_    0.589598 0.581745 0.973459 0.157289
H33   H     H_    0.357465 0.319514 0.981744 0.160111
H34   H     H_    0.943343 0.322106 0.198740 0.089272
H35   H     H_    0.552458 0.525557 0.296505 0.124004
H36   H     H_    0.418297 0.514774 0.259717 0.142051
H37   H     H_    0.534184 0.617059 0.391972 0.167056
H38   H     H_    0.095881 0.576706 0.602981 0.129438
H39   H     H_    0.939151 0.981480 0.782055 0.119655
H40   H     H_    0.378175 0.676330 0.111019 0.102958
H41   H     H_    0.521684 0.434714 0.892680 0.170006
H42   H     H_    0.427668 0.566532 0.949338 0.160337
H43   H     H_    0.801917 0.243679 0.622457 0.099082
H44   H     H_    0.363669 0.420057 0.881924 0.188871
N1    N     N_R   0.993980 0.704500 0.053430 -0.040543
N2    N     N_R   0.053690 0.556380 0.849240 -0.038473
N3    N     N_R   0.790390 0.443640 0.997160 -0.037020
N4    N     N_R   0.998260 0.443670 0.792970 -0.041467
N5    N     N_R   0.845830 0.556350 0.053430 -0.035423
N6    N     N_R   0.792820 0.295510 0.849240 -0.044303
N7    N     N_R   0.051260 0.704510 0.997160 -0.047710
N8    N     N_R   0.001740 0.556330 0.207030 -0.035714
N9    N     N_R   0.154170 0.443650 0.946570 -0.038524
N10   N     N_R   0.207180 0.704490 0.150760 -0.068834
N11   N     N_R   0.948740 0.295490 0.002840 -0.040267
N12   N     N_R   0.006020 0.295500 0.946570 -0.041159
N13   N     N_R   0.149890 0.704480 0.207030 -0.096696
N14   N     N_R   0.946310 0.443620 0.150760 -0.045820
N15   N     N_R   0.209610 0.556360 0.002840 -0.040438
N16   N     N_R   0.850110 0.295520 0.792970 -0.041531
Ni1   Ni    Ni4+2 0.997880 0.629240 0.129060 0.256396
Ni2   Ni    Ni4+2 0.002120 0.370760 0.870940 0.205703
Ni3   Ni    Ni4+2 0.129260 0.629260 0.000000 0.202692
Ni4   Ni    Ni4+2 0.870740 0.370740 0.000000 0.206199
O1    O     O_3   0.168366 0.841967 0.364939 -0.629121
O2    O     O_3   0.529523 0.647402 0.266515 -0.621437

loop_
_geom_bond_atom_site_label_1
_geom_bond_atom_site_label_2
_ccdc_geom_bond_type
C3    N14   A    
C43   H27   S    
C30   C32   S    
C9    C45   A    
N11   N12   A    
C27   C29   D    
C11   H44   S    
C3    C6    A    
C22   H11   S    
C10   H32   S    
C5    N15   A    
C19   O2    S    
N9    Ni2   S    
C46   N12   A    
N4    Ni2   S    
C33   C39   S    
N16   Ni2   S    
C13   C18   S    
C43   N9    A    
C10   C15   S    
C42   N8    A    
C30   C31   D    
N2    Ni3   S    
C14   H3    S    
C41   H37   S    
C23   C26   S    
C12   C37   A    
N15   Ni3   S    
C27   H15   S    
C18   H7    S    
C38   H25   S    
C44   H12   S    
C18   H33   S    
C7    C17   S    
C41   O2    S    
N12   Ni2   S    
C25   H14   S    
C7    C43   A    
C4    C12   A    
C15   C34   S    
N3    Ni4   S    
C28   C34   A    
C9    C46   A    
C1    N1    A    
C37   H24   S    
C38   N7    A    
C3    H34   S    
C42   H26   S    
C33   H20   S    
C8    C21   S    
C40   O1    S    
N9    N15   A    
C10   H41   S    
C14   H4    S    
C45   H23   S    
C31   H17   S    
C32   H18   S    
C20   H8    S    
C5    C7    A    
C1    C39   A    
C1    H1    S    
C25   C26   D    
C4    N16   A    
N10   N13   A    
N8    Ni1   S    
C40   H30   S    
C37   N6    A    
C28   N3    A    
N1    Ni1   S    
C13   H2    S    
C13   H6    S    
N7    Ni3   S    
C35   H21   S    
C11   H42   S    
C41   H35   S    
N2    N4    A    
C17   C18   S    
N1    N7    A    
C30   H39   S    
N5    Ni1   S    
C5    H40   S    
C20   C22   S    
C16   N2    A    
C16   C23   A    
C23   C35   A    
C45   N11   A    
C22   C24   D    
C46   H28   S    
C4    H43   S    
C35   N4    A    
N6    N16   A    
C29   H16   S    
C11   C17   S    
C26   H38   S    
C40   H31   S    
C14   C19   S    
C2    C8    A    
C8    C44   A    
C2    O1    S    
C21   H10   S    
C36   H22   S    
C25   C27   S    
C12   C24   S    
C40   H29   S    
C32   C33   D    
C13   C15   S    
C28   H19   S    
N11   Ni4   S    
C16   H9    S    
N14   Ni4   S    
C44   N10   A    
C36   N5    A    
C38   C39   A    
N6    Ni4   S    
C2    N13   A    
C24   H13   S    
N8    N14   A    
C41   H36   S    
C17   C19   S    
C34   C36   A    
C10   C11   S    
C9    C31   S    
C19   H5    S    
N10   Ni3   S    
C6    C29   S    
C20   C21   D    
N3    N5    A    
C6    C42   A    
C14   C15   S    
N13   Ni1   S    
