data_mof_unit_67361.cif
_audit_creation_date              2013-03-05T16:08:13-0500
_audit_creation_method            fapswitch 2.2
_symmetry_space_group_name_H-M    P1
_symmetry_Int_Tables_number       1
_space_group_crystal_system       triclinic
_cell_length_a                    19.686733
_cell_length_b                    23.121908
_cell_length_c                    8.923468
_cell_angle_alpha                 89.949946
_cell_angle_beta                  104.386863
_cell_angle_gamma                 90.168174
_cell_volume                      3934.51843371

loop_
_atom_site_label
_atom_site_type_symbol
_atom_site_description
_atom_site_fract_x
_atom_site_fract_y
_atom_site_fract_z
_atom_type_partial_charge
P1    P     P_3+3 0.853370 0.434890 0.996520 0.603397
P2    P     P_3+3 0.853370 0.565110 0.496520 0.562740
P3    P     P_3+3 0.353370 0.934890 0.996520 0.593625
P4    P     P_3+3 0.353370 0.065110 0.496520 0.539025
O1    O     O_2   0.860260 0.414960 0.826400 -0.389906
O2    O     O_2   0.860260 0.585040 0.326400 -0.422175
O3    O     O_2   0.360260 0.914960 0.826400 -0.363564
O4    O     O_2   0.360260 0.085040 0.326400 -0.382597
O5    O     O_3   0.918600 0.470180 0.098890 -0.344589
O6    O     O_3   0.918600 0.529820 0.598890 -0.323525
O7    O     O_3   0.418600 0.970180 0.098890 -0.364472
O8    O     O_3   0.418600 0.029820 0.598890 -0.360462
O9    O     O_3   0.975750 0.362410 0.628650 -0.389833
O10   O     O_3   0.975750 0.637590 0.128650 -0.392862
O11   O     O_3   0.475750 0.862410 0.628650 -0.425297
O12   O     O_3   0.475750 0.137590 0.128650 -0.423970
O13   O     O_2   0.870681 0.298041 0.670702 -0.415203
O14   O     O_2   0.869909 0.700681 0.169679 -0.382173
O15   O     O_2   0.359997 0.818430 0.669071 -0.369064
O16   O     O_2   0.365665 0.189764 0.171820 -0.384375
O17   O     O_3   0.766458 0.467663 0.960824 -0.537283
O18   O     O_3   0.766454 0.529979 0.445948 -0.573282
O19   O     O_3   0.264887 0.964150 0.948357 -0.521068
O20   O     O_3   0.266012 0.033628 0.446430 -0.578225
O21   O     O_3   0.965378 0.241822 0.568860 -0.660098
O22   O     O_3   0.963515 0.758246 0.069623 -0.646974
O23   O     O_3   0.447510 0.743177 0.638360 -0.556845
O24   O     O_3   0.460684 0.257637 0.116381 -0.522009
H1    H     H_    0.979832 0.243712 0.807073 0.103554
H2    H     H_    0.999924 0.741690 0.304412 0.129483
H3    H     H_    0.548094 0.758533 0.620927 -0.048793
H4    H     H_    0.512613 0.245016 0.942607 -0.238452
C1    C     C_3   0.033955 0.170609 0.739145 0.462933
C2    C     C_3   0.040679 0.823351 0.242896 0.494913
C3    C     C_3   0.525971 0.665523 0.627593 0.550311
C4    C     C_3   0.540845 0.328172 0.058518 0.576778
P5    P     P_3+3 0.146350 0.434230 0.693140 0.605766
P6    P     P_3+3 0.146350 0.565770 0.193140 0.597849
P7    P     P_3+3 0.646350 0.934230 0.693140 0.586008
P8    P     P_3+3 0.646350 0.065770 0.193140 0.631440
P9    P     P_3+3 0.092843 0.314301 0.128921 0.636559
P10   P     P_3+3 0.093801 0.685423 0.628385 0.571004
P11   P     P_3+3 0.595164 0.815539 0.124189 0.571048
P12   P     P_3+3 0.597251 0.183080 0.626930 0.576166
O25   O     O_2   0.139400 0.414340 0.863230 -0.261792
O26   O     O_2   0.139400 0.585660 0.363230 -0.341794
O27   O     O_2   0.639400 0.914340 0.863230 -0.282976
O28   O     O_2   0.639400 0.085660 0.363230 -0.307384
O29   O     O_3   0.023740 0.362300 0.060930 -0.315246
O30   O     O_3   0.023740 0.637700 0.560930 -0.361314
O31   O     O_3   0.523740 0.862300 0.060930 -0.347780
O32   O     O_3   0.523740 0.137700 0.560930 -0.374334
O33   O     O_2   0.143263 0.322515 0.022398 -0.265256
O34   O     O_2   0.142033 0.678086 0.516813 -0.291148
O35   O     O_2   0.649105 0.832565 0.033011 -0.300488
O36   O     O_2   0.651289 0.165238 0.537390 -0.292637
O37   O     O_3   0.223030 0.474957 0.757056 -0.513726
O38   O     O_3   0.221300 0.523232 0.259324 -0.558514
O39   O     O_3   0.720693 0.979540 0.738249 -0.501422
O40   O     O_3   0.721471 0.021164 0.235486 -0.536016
O41   O     O_3   0.056902 0.246006 0.077680 -0.452736
O42   O     O_3   0.059247 0.754346 0.582634 -0.456938
O43   O     O_3   0.568105 0.747420 0.046581 -0.466235
O44   O     O_3   0.574908 0.252380 0.554103 -0.475869
C5    C     C_3   0.002965 0.235236 0.152275 0.236401
C6    C     C_3   0.004412 0.764247 0.654652 0.239894
C7    C     C_3   0.497648 0.737685 0.046741 0.334441
C8    C     C_3   0.501958 0.256788 0.507761 0.383890
H5    H     H_    0.953028 0.251987 0.077626 0.092713
H6    H     H_    0.955142 0.746578 0.578947 0.102896
H7    H     H_    0.464031 0.748599 0.930991 0.150557
H8    H     H_    0.482158 0.229297 0.403905 0.154173
H9    H     H_    0.011971 0.255994 0.268330 0.048317
H10   H     H_    0.013332 0.743634 0.770902 0.034735
H11   H     H_    0.479049 0.764120 0.132473 0.050494
H12   H     H_    0.477134 0.242729 0.601129 0.038161
C9    C     C_3   0.998600 0.169788 0.174697 -0.579245
C10   C     C_3   0.998965 0.829761 0.675226 -0.621063
C11   C     C_3   0.489192 0.673690 0.079891 -0.608259
C12   C     C_3   0.483120 0.319780 0.468414 -0.637861
H13   H     H_    0.010792 0.146350 0.076926 0.230764
H14   H     H_    0.015199 0.853248 0.581600 0.247924
H15   H     H_    0.496916 0.647164 0.982179 0.217274
H16   H     H_    0.520407 0.338912 0.406957 0.254972
C13   C     C_3   0.218533 0.470113 0.183025 0.803600
C14   C     C_3   0.219573 0.529873 0.691534 0.846364
C15   C     C_3   0.705844 0.964807 0.277311 0.730208
C16   C     C_3   0.704947 0.034352 0.788867 0.865643
H17   H     H_    0.221813 0.477350 0.062125 0.101602
H18   H     H_    0.214524 0.526137 0.564867 0.008195
H19   H     H_    0.682741 0.939611 0.170926 0.075375
H20   H     H_    0.680589 0.061774 0.686829 -0.104461
C17   C     C_3   0.281211 0.434449 0.271342 -0.076532
C18   C     C_3   0.288410 0.560368 0.769625 0.008700
C19   C     C_3   0.772860 0.933962 0.370724 -0.110362
C20   C     C_3   0.772781 0.063161 0.881398 0.069520
H21   H     H_    0.275327 0.390257 0.221793 0.070078
H22   H     H_    0.284765 0.606990 0.738723 0.066262
H23   H     H_    0.755658 0.894620 0.421826 0.124318
H24   H     H_    0.758676 0.097125 0.955805 0.056279
Ba1   Ba    Ba6+2 0.999900 0.457470 0.844900 1.690643
Ba2   Ba    Ba6+2 0.999900 0.542530 0.344900 1.702532
Ba3   Ba    Ba6+2 0.499900 0.957470 0.844900 1.681454
Ba4   Ba    Ba6+2 0.499900 0.042530 0.344900 1.674394
C21   C     C_3   0.748355 0.526705 0.917223 0.137671
C22   C     C_3   0.748399 0.469235 0.421452 0.149187
C23   C     C_3   0.243762 0.023302 0.916066 0.182882
C24   C     C_3   0.246405 0.974476 0.413826 0.101984
C25   C     C_3   0.670152 0.540118 0.918807 -0.634964
C26   C     C_3   0.669406 0.456406 0.420992 -0.687409
C27   C     C_3   0.163599 0.029391 0.914634 -0.644709
C28   C     C_3   0.165833 0.966915 0.407758 -0.642513
H25   H     H_    0.634684 0.510715 0.838714 0.240988
H26   H     H_    0.635359 0.488022 0.346407 0.235484
H27   H     H_    0.136946 0.989889 0.859656 0.219336
H28   H     H_    0.139230 0.005902 0.351881 0.219413
H29   H     H_    0.655995 0.584452 0.874272 0.225124
H30   H     H_    0.653794 0.413024 0.370130 0.199016
H31   H     H_    0.138143 0.065765 0.841823 0.239167
H32   H     H_    0.142766 0.929673 0.334557 0.224130
O45   O     O_3   0.081330 0.529680 0.090830 -0.339627
O46   O     O_3   0.081330 0.470320 0.590830 -0.399960
O47   O     O_3   0.581330 0.029680 0.090830 -0.346240
O48   O     O_3   0.581330 0.970320 0.590830 -0.404272
P13   P     P_3+3 0.916730 0.693045 0.054824 0.444595
P14   P     P_3+3 0.917492 0.306295 0.555901 0.432062
P15   P     P_3+3 0.415242 0.192398 0.061752 0.462148
P16   P     P_3+3 0.411855 0.809762 0.567067 0.477386
C29   C     C_3   0.009193 0.234572 0.718351 0.725220
C30   C     C_3   0.018152 0.759436 0.205367 0.698637
C31   C     C_3   0.503433 0.728143 0.575161 0.742186
C32   C     C_3   0.486639 0.280058 0.994492 0.939345
H33   H     H_    0.039098 0.156741 0.278355 0.186287
H34   H     H_    0.036165 0.842940 0.784172 0.186372
H35   H     H_    0.529777 0.660816 0.184818 0.214433
H36   H     H_    0.486716 0.345142 0.575599 0.170769
C33   C     C_R   0.146394 0.684211 0.836630 0.153597
C34   C     C_R   0.142873 0.313601 0.338446 0.195750
C35   C     C_R   0.644901 0.185412 0.837582 0.194284
C36   C     C_R   0.643147 0.813331 0.335523 0.096985
C37   C     C_R   0.198227 0.726993 0.901192 -0.153808
C38   C     C_R   0.194124 0.270604 0.402238 -0.195149
C39   C     C_R   0.700781 0.224965 0.899094 -0.090594
C40   C     C_R   0.698712 0.773597 0.396941 -0.121262
C41   C     C_R   0.796899 0.316107 0.033474 -0.097805
C42   C     C_R   0.797174 0.684078 0.531134 -0.126729
C43   C     C_R   0.294950 0.817797 0.037702 -0.056901
C44   C     C_R   0.293899 0.181774 0.536503 -0.104693
C45   C     C_R   0.766204 0.313315 0.876150 -0.251731
C46   C     C_R   0.765890 0.686199 0.373754 -0.272192
C47   C     C_R   0.259215 0.818466 0.883013 -0.258834
C48   C     C_R   0.258385 0.181034 0.381653 -0.264863
C49   C     C_R   0.217079 0.772412 0.811664 0.587440
C50   C     C_R   0.213203 0.225416 0.311807 0.540801
C51   C     C_R   0.725105 0.266379 0.806725 0.670351
C52   C     C_R   0.722097 0.731601 0.304403 0.621395
C53   C     C_R   0.845454 0.361755 0.098443 0.329289
C54   C     C_R   0.844782 0.638080 0.597234 0.241665
C55   C     C_R   0.344802 0.862529 0.101727 0.291843
C56   C     C_R   0.344170 0.137426 0.600486 0.262991
H37   H     H_    0.776617 0.346210 0.802994 0.251419
H38   H     H_    0.775346 0.652702 0.300518 0.257720
H39   H     H_    0.264526 0.854634 0.813204 0.251252
H40   H     H_    0.266024 0.146028 0.310330 0.259078
C57   C     C_R   0.881176 0.356017 0.255438 -0.437627
C58   C     C_R   0.879672 0.643377 0.754362 -0.452090
C59   C     C_R   0.380524 0.856660 0.259273 -0.485237
C60   C     C_R   0.379860 0.143341 0.757609 -0.392376
C61   C     C_R   0.165769 0.634761 0.089764 0.192477
C62   C     C_R   0.163196 0.363725 0.590834 0.144076
C63   C     C_R   0.661864 0.136929 0.091064 0.145430
C64   C     C_R   0.662224 0.863195 0.589138 0.132726
C65   C     C_R   0.218639 0.677611 0.155397 -0.137013
C66   C     C_R   0.215819 0.320674 0.655926 -0.156204
C67   C     C_R   0.717745 0.177732 0.154072 -0.162069
C68   C     C_R   0.717506 0.821990 0.651888 -0.176124
C69   C     C_R   0.231724 0.725313 0.062256 -0.012664
C70   C     C_R   0.228373 0.272734 0.562864 -0.013110
C71   C     C_R   0.732359 0.224618 0.060314 -0.088480
C72   C     C_R   0.731567 0.774858 0.558090 -0.018983
C73   C     C_R   0.258579 0.675648 0.311018 0.586895
C74   C     C_R   0.256058 0.322573 0.811107 0.630149
C75   C     C_R   0.761247 0.173409 0.305664 0.602885
C76   C     C_R   0.761207 0.826416 0.803468 0.587303
C77   C     C_R   0.806907 0.218712 0.369006 -0.246683
C78   C     C_R   0.806283 0.781019 0.867826 -0.270168
C79   C     C_R   0.301959 0.722039 0.375543 -0.261422
C80   C     C_R   0.296049 0.274689 0.877354 -0.220712
C81   C     C_R   0.817530 0.267169 0.283360 -0.046791
C82   C     C_R   0.817077 0.732676 0.781778 -0.084996
C83   C     C_R   0.315565 0.768589 0.287591 -0.055065
C84   C     C_R   0.311788 0.229253 0.788028 -0.042460
C85   C     C_R   0.782210 0.269455 0.125902 0.116471
C86   C     C_R   0.782034 0.730505 0.623682 0.133172
C87   C     C_R   0.281193 0.770414 0.128990 0.117937
C88   C     C_R   0.278395 0.228056 0.628931 0.151818
C89   C     C_R   0.866240 0.311110 0.349605 0.254875
C90   C     C_R   0.865347 0.688520 0.848298 0.275156
C91   C     C_R   0.365092 0.811799 0.354440 0.324346
C92   C     C_R   0.363952 0.187656 0.852930 0.217656
C93   C     C_R   0.127849 0.642148 0.933469 0.194385
C94   C     C_R   0.123978 0.355167 0.435632 0.106372
C95   C     C_R   0.621446 0.147452 0.936941 0.102796
C96   C     C_R   0.621756 0.853020 0.434584 0.166476
H41   H     H_    0.836055 0.213886 0.486797 0.182652
H42   H     H_    0.834460 0.785798 0.987119 0.226706
H43   H     H_    0.327191 0.719448 0.496921 0.189478
H44   H     H_    0.320256 0.276703 0.999622 0.199850
H45   H     H_    0.919281 0.388500 0.306949 0.217608
H46   H     H_    0.917748 0.610940 0.805165 0.210630
H47   H     H_    0.418491 0.889219 0.310623 0.193439
H48   H     H_    0.418580 0.111361 0.808254 0.209137
O49   O     O_3   0.279815 0.431646 0.428151 -0.735054
H49   H     H_    0.313911 0.401715 0.478109 0.352380
O50   O     O_3   0.298100 0.555857 0.930586 -0.690376
H50   H     H_    0.345969 0.569686 0.979658 0.350876
O51   O     O_3   0.809955 0.968090 0.494584 -0.660072
H51   H     H_    0.827692 0.002795 0.450711 0.398701
O52   O     O_3   0.815512 0.022275 0.975807 -0.639200
H52   H     H_    0.853892 0.044061 0.046613 0.356727
C97   C     C_2   0.349745 0.460079 0.254498 1.090753
O53   O     O_2   0.393944 0.476833 0.368020 -0.505499
O54   O     O_R   0.364067 0.461884 0.109127 -0.735486
H53   H     H_    0.412674 0.477653 0.113978 0.386045
C98   C     C_2   0.348878 0.533466 0.717817 0.989818
O55   O     O_2   0.353025 0.540139 0.584761 -0.545521
O56   O     O_R   0.399728 0.501032 0.820673 -0.711998
H54   H     H_    0.437079 0.485501 0.771159 0.384043
C99   C     C_2   0.820370 0.914068 0.273176 1.081215
O57   O     O_2   0.822843 0.862663 0.242942 -0.635373
O58   O     O_R   0.864046 0.953652 0.224481 -0.727026
H55   H     H_    0.893473 0.935264 0.159155 0.388726
C100  C     C_2   0.812232 0.092277 0.779251 0.955794
O59   O     O_2   0.847797 0.063824 0.712227 -0.524367
O60   O     O_R   0.810381 0.152524 0.768257 -0.792515
H56   H     H_    0.843941 0.168594 0.709704 0.330562
C101  C     C_2   0.753018 0.535713 0.759715 0.936723
O61   O     O_2   0.804970 0.517508 0.727441 -0.598765
O62   O     O_R   0.703912 0.570625 0.659041 -0.812424
H57   H     H_    0.723203 0.594534 0.585661 0.345960
C102  C     C_2   0.756538 0.453906 0.269319 0.894668
O63   O     O_2   0.716426 0.422361 0.177763 -0.600474
O64   O     O_R   0.821071 0.466826 0.251211 -0.752239
H58   H     H_    0.819771 0.506334 0.211386 0.326753
C103  C     C_2   0.249092 0.037707 0.761368 0.876637
O65   O     O_2   0.298376 0.017480 0.722213 -0.597048
O66   O     O_R   0.208196 0.082684 0.680032 -0.822310
H59   H     H_    0.216390 0.093922 0.577910 0.352765
C104  C     C_2   0.255902 0.961759 0.260901 0.915449
O67   O     O_2   0.220643 0.925735 0.175378 -0.627969
O68   O     O_R   0.311303 0.988227 0.222383 -0.762034
H60   H     H_    0.358125 0.981446 0.296299 0.339936
C105  C     C_2   0.797741 0.571063 0.001020 0.851755
O69   O     O_2   0.777079 0.614325 0.052820 -0.625809
O70   O     O_R   0.867417 0.565843 0.001146 -0.762744
H61   H     H_    0.896699 0.569661 0.108583 0.393137
C106  C     C_2   0.798427 0.428357 0.518193 1.078152
O71   O     O_2   0.777709 0.383555 0.562226 -0.649782
O72   O     O_R   0.868227 0.433693 0.517929 -0.749178
H62   H     H_    0.899062 0.430611 0.622770 0.400092
C107  C     C_2   0.291617 0.067309 0.006150 1.043404
O73   O     O_2   0.269442 0.109094 0.060723 -0.626976
O74   O     O_R   0.361275 0.064983 0.001849 -0.779192
H63   H     H_    0.392574 0.071949 0.105890 0.397491
C108  C     C_2   0.292488 0.932056 0.511694 1.025009
O75   O     O_2   0.267849 0.892505 0.569611 -0.615746
O76   O     O_R   0.362633 0.931967 0.511680 -0.837853
H64   H     H_    0.394306 0.930340 0.616555 0.412890
C109  C     C_2   0.648965 0.538182 0.067582 1.159903
O77   O     O_2   0.601308 0.505878 0.079251 -0.592486
O78   O     O_R   0.675863 0.578627 0.182758 -0.792158
H65   H     H_    0.650792 0.577687 0.268662 0.322875
C110  C     C_2   0.647466 0.454648 0.569450 1.148785
O79   O     O_2   0.594099 0.479895 0.578053 -0.552336
O80   O     O_R   0.682603 0.419472 0.690349 -0.797502
H66   H     H_    0.661932 0.420848 0.782988 0.349200
C111  C     C_2   0.139831 0.037777 0.059874 1.186826
O81   O     O_2   0.094133 0.005807 0.083786 -0.580342
O82   O     O_R   0.159798 0.086717 0.151913 -0.755506
H67   H     H_    0.132852 0.091689 0.234001 0.310018
C112  C     C_2   0.140468 0.959628 0.552359 1.181560
O83   O     O_2   0.099904 0.995287 0.581317 -0.574955
O84   O     O_R   0.153424 0.908718 0.638920 -0.740028
H68   H     H_    0.128067 0.906795 0.724502 0.308897
O85   O     O_3   0.066929 0.272379 0.743140 -0.707626
H69   H     H_    0.079352 0.277278 0.643000 0.313775
O86   O     O_3   0.075098 0.726087 0.187895 -0.758804
H70   H     H_    0.077801 0.730355 0.079034 0.293928
O87   O     O_3   0.482563 0.730458 0.412955 -0.805974
H71   H     H_    0.523263 0.746108 0.379175 0.260881
O88   O     O_3   0.431643 0.305186 0.882965 -0.767806
H72   H     H_    0.441740 0.299470 0.780677 0.275143
C113  C     C_2   0.065091 0.150914 0.609118 1.067964
O89   O     O_2   0.044532 0.106271 0.539036 -0.488498
O90   O     O_R   0.119099 0.182560 0.572631 -0.876287
H73   H     H_    0.134793 0.165110 0.483022 0.310175
C114  C     C_2   0.065902 0.851242 0.112675 1.011549
O91   O     O_2   0.035231 0.893188 0.044640 -0.504835
O92   O     O_R   0.125719 0.830272 0.073607 -0.851302
H74   H     H_    0.137923 0.853079 0.986873 0.341089
C115  C     C_2   0.568310 0.640020 0.524938 1.048128
O93   O     O_2   0.551629 0.593814 0.459176 -0.496958
O94   O     O_R   0.625046 0.671131 0.500116 -0.908061
H75   H     H_    0.643459 0.653466 0.414913 0.314322
C116  C     C_2   0.566002 0.353853 0.926206 0.889317
O95   O     O_2   0.556809 0.405047 0.893131 -0.560008
O96   O     O_R   0.595184 0.317596 0.834989 -0.872495
H76   H     H_    0.603615 0.337719 0.740736 0.359022
O97   O     O_3   0.084083 0.163540 0.880792 -0.722437
H77   H     H_    0.127713 0.183838 0.873903 0.364599
O98   O     O_3   0.094429 0.826673 0.379694 -0.695766
H78   H     H_    0.136097 0.806251 0.362293 0.358999
O99   O     O_3   0.566515 0.665550 0.781793 -0.785917
H79   H     H_    0.609404 0.689052 0.787189 0.320261
O100  O     O_3   0.597779 0.305733 0.171601 -0.754112
H80   H     H_    0.616894 0.272482 0.125420 0.294231
O101  O     O_3   0.196060 0.771302 0.652935 -0.672979
H81   H     H_    0.223954 0.798840 0.608196 0.372946
O102  O     O_3   0.190602 0.225710 0.153236 -0.680354
H82   H     H_    0.220427 0.200428 0.107456 0.369619
O103  O     O_3   0.710080 0.260362 0.648451 -0.673057
H83   H     H_    0.733277 0.290800 0.601590 0.370715
O104  O     O_3   0.703051 0.735084 0.145461 -0.676664
H84   H     H_    0.727486 0.705577 0.098630 0.369215
O105  O     O_3   0.259407 0.626695 0.398504 -0.686888
H85   H     H_    0.290877 0.632471 0.502358 0.316280
O106  O     O_3   0.259992 0.372392 0.896590 -0.683963
H86   H     H_    0.298343 0.369132 0.991616 0.351541
O107  O     O_3   0.762242 0.123670 0.390346 -0.711478
H87   H     H_    0.805784 0.122429 0.473995 0.329399
O108  O     O_3   0.762892 0.876377 0.887471 -0.675370
H88   H     H_    0.807981 0.878740 0.966444 0.340485
O109  O     O_3   0.071454 0.607352 0.870007 -0.688650
H89   H     H_    0.038268 0.612051 0.935713 0.322663
O110  O     O_3   0.066349 0.388461 0.372308 -0.738068
H90   H     H_    0.036864 0.388226 0.446350 0.343135
O111  O     O_3   0.559618 0.119011 0.874046 -0.757586
H91   H     H_    0.536808 0.110568 0.956958 0.356152
O112  O     O_3   0.563053 0.885013 0.370494 -0.687147
H92   H     H_    0.536602 0.889119 0.449480 0.343984
O113  O     O_3   0.976041 0.134855 0.738708 -0.682233
H93   H     H_    0.958636 0.145082 0.830195 0.322811
O114  O     O_3   0.982920 0.855151 0.263892 -0.706751
H94   H     H_    0.961224 0.833470 0.335966 0.338808
O115  O     O_3   0.466046 0.630650 0.616188 -0.642076
H95   H     H_    0.446808 0.639009 0.706657 0.338500
O116  O     O_3   0.508067 0.371476 0.125745 -0.649955
H96   H     H_    0.545003 0.398745 0.180312 0.358127
C117  C     C_2   0.928008 0.150075 0.188675 1.014941
O117  O     O_2   0.875712 0.162612 0.088333 -0.682587
O118  O     O_R   0.922788 0.114252 0.311231 -0.704124
H97   H     H_    0.873981 0.097827 0.298054 0.336576
C118  C     C_2   0.926605 0.849465 0.675273 1.093546
O119  O     O_2   0.876864 0.835634 0.569554 -0.659424
O120  O     O_R   0.917149 0.886985 0.790780 -0.701160
H98   H     H_    0.867974 0.903260 0.767933 0.370605
C119  C     C_2   0.418228 0.660950 0.103420 1.019714
O121  O     O_2   0.365860 0.675989 0.006196 -0.690895
O122  O     O_R   0.412476 0.629813 0.233954 -0.689740
H99   H     H_    0.362349 0.619126 0.231312 0.345533
C120  C     C_2   0.410230 0.323289 0.370059 1.077518
O123  O     O_2   0.398981 0.343651 0.240178 -0.591388
O124  O     O_R   0.355381 0.301438 0.425352 -0.843530
H100  H     H_    0.309664 0.305106 0.344437 0.306366
O125  O     O_3   0.157061 0.439579 0.183035 -0.694368
H101  H     H_    0.146958 0.447441 0.284268 0.351988
O126  O     O_3   0.164670 0.560976 0.725857 -0.723718
H102  H     H_    0.128862 0.566664 0.627719 0.353861
O127  O     O_3   0.657595 0.966131 0.367905 -0.709069
H103  H     H_    0.678505 0.991822 0.455836 0.353859
O128  O     O_3   0.660498 0.029372 0.887846 -0.742556
H104  H     H_    0.611997 0.032673 0.822986 0.349274

loop_
_geom_bond_atom_site_label_1
_geom_bond_atom_site_label_2
_geom_bond_distance
_ccdc_geom_bond_type
C119  O121  1.222123 D    
C15   H19   1.110101 S    
O88   H72   0.990282 S    
P9    O41   1.742771 S    
Ba3   O47   2.901044 S    
P15   C92   1.889072 S    
C26   H30   1.111892 S    
O111  H91   0.975439 S    
C73   C79   1.400986 A    
P11   O43   1.748643 S    
Ba4   O47   3.099740 S    
O109  H89   0.986562 S    
P12   O44   1.744585 S    
C82   C90   1.421994 A    
C9    H33   1.103039 S    
C67   C75   1.413460 A    
O14   P13   1.549834 D    
C71   C85   1.445727 A    
C19   H23   1.106487 S    
O10   Ba2   2.885076 S    
P3    Ba3   3.514828 S    
O78   H65   1.009764 S    
C68   C76   1.414802 A    
C44   C56   1.442604 A    
O116  H96   0.992630 S    
C25   C109  1.487762 S    
C42   C46   1.387171 A    
O12   Ba4   2.885076 S    
C80   H44   1.077612 S    
O54   H53   1.013852 S    
P2    O18   1.843927 S    
C21   C105  1.480052 S    
P4    O8    1.603517 S    
O22   C30   1.406219 S    
C3    O99   1.408782 S    
C16   O128  1.393704 S    
C103  O65   1.205657 D    
P10   C33   1.889431 S    
P9    O29   1.745881 S    
C118  O120  1.395536 S    
O1    Ba1   2.882634 S    
C5    C9    1.531252 S    
O104  H84   0.986847 S    
C36   C40   1.431142 A    
O68   H60   1.003921 S    
O42   C6    1.406152 S    
C7    C11   1.525421 S    
C14   H18   1.113203 S    
C28   H32   1.107117 S    
C78   H42   1.076801 S    
C11   C119  1.491920 S    
C115  O93   1.223488 D    
P7    O48   1.610131 S    
C78   C82   1.402917 A    
O21   P14   1.754469 S    
C58   C90   1.411529 A    
C99   O57   1.222822 D    
C41   C53   1.443481 A    
O23   P16   1.746547 S    
C10   H14   1.107215 S    
O56   H54   1.013974 S    
C8    H8    1.111277 S    
O19   C23   1.438659 S    
C33   C37   1.433375 A    
C23   C107  1.479390 S    
O4    Ba4   2.888033 S    
P9    C34   1.884407 S    
C96   O112  1.373203 S    
P12   C35   1.881475 S    
C109  O78   1.392686 S    
P1    O1    1.624552 D    
C22   C102  1.450353 S    
P5    O25   1.623432 D    
P1    Ba1   3.514828 S    
P6    C61   1.926359 S    
P7    O27   1.623432 D    
C62   C66   1.451702 A    
C81   C89   1.419463 A    
P8    O28   1.624409 D    
C69   C87   1.448249 A    
Ba1   O46   3.098460 S    
C29   O85   1.405200 S    
C45   C51   1.401118 A    
P16   C91   1.892574 S    
O125  H101  0.989161 S    
C58   H46   1.078772 S    
C34   C94   1.406408 A    
C6    H6    1.112049 S    
P4    Ba4   3.517695 S    
C19   O51   1.405213 S    
C55   C59   1.413620 A    
C94   O110  1.372908 S    
C56   C60   1.410124 A    
C1    O97   1.406753 S    
C62   C94   1.421812 A    
P6    O45   1.607063 S    
P3    O7    1.600490 S    
O110  H90   0.981875 S    
O41   C5    1.407848 S    
O103  H83   0.985492 S    
C79   H43   1.075254 S    
O122  H99   1.011167 S    
C21   C101  1.445943 S    
C35   C95   1.403367 A    
O11   Ba3   2.885517 S    
P8    C63   1.939796 S    
P5    O37   1.748041 S    
O64   H58   0.978016 S    
C117  O117  1.220217 D    
P8    O40   1.767547 S    
O118  H97   1.011481 S    
P11   O31   1.754482 S    
C66   C74   1.414853 A    
C104  O67   1.221673 D    
C97   O53   1.222316 D    
C27   C111  1.496191 S    
C36   C96   1.410517 A    
C107  O73   1.212480 D    
P2    Ba2   3.517695 S    
C6    H10   1.114986 S    
C27   H31   1.104701 S    
C102  O63   1.224794 D    
C93   O109  1.372487 S    
H3    C31   1.118950 S    
C18   C98   1.515275 S    
C35   C39   1.429245 A    
H1    C29   1.110856 S    
C40   C72   1.422964 A    
C116  O96   1.389898 S    
C15   C19   1.549867 S    
C20   C100  1.494973 S    
C39   C71   1.418375 A    
Ba2   O45   3.099740 S    
C100  O59   1.221569 D    
P10   O42   1.742509 S    
O24   P15   1.757848 S    
P12   O32   1.763751 S    
C47   C49   1.400339 A    
O3    Ba3   2.882634 S    
C111  O81   1.221691 D    
P3    C55   1.945104 S    
C114  O92   1.396793 S    
C24   C108  1.468932 S    
C110  O79   1.222383 D    
C31   O87   1.404003 S    
O16   P15   1.548206 D    
C53   C57   1.409056 A    
C84   C92   1.422792 A    
O51   H51   0.992416 S    
C70   C88   1.449446 A    
C74   O106  1.373474 S    
O102  H82   0.987404 S    
O24   C32   1.409442 S    
C40   C52   1.424654 A    
C43   C47   1.384925 A    
C113  O89   1.222001 D    
C39   C51   1.420476 A    
O124  H100  1.007968 S    
O87   H71   0.990915 S    
C32   O88   1.402665 S    
P11   C36   1.888428 S    
C76   O108  1.373452 S    
C74   C80   1.402764 A    
C38   C50   1.427709 A    
C108  O76   1.380973 S    
P9    O33   1.546718 D    
C104  O68   1.365372 S    
P10   O30   1.749846 S    
P11   O35   1.539819 D    
P13   C90   1.871865 S    
C42   C86   1.431428 A    
C17   H21   1.107991 S    
C28   H28   1.098966 S    
C21   C25   1.574897 S    
C23   C27   1.581718 S    
C44   C48   1.385051 A    
C50   O102  1.373823 S    
C77   C81   1.399903 A    
C51   O103  1.376259 S    
C8    H12   1.113386 S    
C13   O125  1.399293 S    
C80   C84   1.400435 A    
C101  O62   1.401782 S    
C3    C31   1.552946 S    
P5    Ba1   3.519330 S    
C37   C49   1.422131 A    
C38   C70   1.425196 A    
C33   C93   1.406824 A    
C20   H24   1.108364 S    
C98   O56   1.397708 S    
O12   P15   1.742262 S    
O17   C21   1.440527 S    
P6    O26   1.624409 D    
C81   C85   1.405383 A    
C68   C72   1.443376 A    
C7    H11   1.110982 S    
O84   H68   1.011752 S    
C59   C91   1.419234 A    
C12   C120  1.486849 S    
O70   H61   0.992182 S    
C16   C20   1.535129 S    
Ba1   Ba2   4.874406 S    
O62   H57   1.000155 S    
C12   H16   1.110409 S    
C118  O119  1.220967 D    
O60   H56   1.008628 S    
C25   H29   1.110093 S    
O74   H63   0.991437 S    
O49   H49   0.990822 S    
C120  O124  1.387725 S    
C18   O50   1.404989 S    
C37   C69   1.425178 A    
C84   C88   1.408774 A    
C4    O116  1.405716 S    
O127  H103  0.988364 S    
P3    O3    1.624552 D    
O29   Ba1   2.885785 S    
P4    O20   1.816201 S    
O13   P14   1.550131 D    
C18   H22   1.110581 S    
O31   Ba3   2.885785 S    
O128  H104  0.989062 S    
C3    C115  1.504932 S    
O15   P16   1.540856 D    
C114  O91   1.222309 D    
C9    C117  1.495660 S    
C64   C96   1.430241 A    
P6    O38   1.751514 S    
O5    Ba2   2.902421 S    
C22   C106  1.479903 S    
O82   H67   1.012316 S    
O7    Ba4   2.902421 S    
O20   C24   1.430407 S    
C66   C70   1.443830 A    
C41   C85   1.429188 A    
P4    O4    1.623575 D    
C65   C73   1.416418 A    
O100  H80   0.990892 S    
C119  O122  1.396978 S    
C109  O77   1.222002 D    
C46   H38   1.060107 S    
Ba3   O48   3.098460 S    
C2    O114  1.407011 S    
C115  O94   1.389974 S    
C6    C10   1.533312 S    
O27   Ba3   2.890672 S    
C17   O49   1.407784 S    
O96   H76   1.009789 S    
P1    O5    1.600490 S    
O8    Ba3   2.905624 S    
C34   C38   1.431761 A    
C102  O64   1.352434 S    
O52   H52   0.992446 S    
C13   H17   1.109206 S    
H2    C30   1.111029 S    
Ba1   O45   2.901044 S    
C24   C28   1.582791 S    
O22   P13   1.752229 S    
O92   H74   1.012810 S    
O85   H69   0.989649 S    
C57   C89   1.410738 A    
C26   C110  1.492432 S    
P12   O36   1.538153 D    
O112  H92   0.979659 S    
C9    H13   1.103680 S    
O76   H64   0.987983 S    
P7    O39   1.760864 S    
C16   H20   1.115725 S    
O25   Ba1   2.890672 S    
C42   C54   1.444839 A    
O9    P14   1.744434 S    
O30   Ba2   2.886252 S    
O11   P16   1.736320 S    
C103  O66   1.403461 S    
C112  O84   1.396289 S    
O44   C8    1.396267 S    
O90   H73   1.010800 S    
C52   O104  1.376366 S    
C54   C58   1.404980 A    
C1    C29   1.555055 S    
C1    O113  1.405575 S    
O32   Ba4   2.886252 S    
C60   C92   1.416792 A    
O6    Ba1   2.905624 S    
C19   C99   1.500631 S    
C30   O86   1.402804 S    
P7    Ba3   3.519330 S    
C20   O52   1.400799 S    
C11   H35   1.110332 S    
C12   H36   1.109426 S    
C24   C104  1.453083 S    
C4    C32   1.547270 S    
O106  H86   0.988338 S    
C99   O58   1.395064 S    
C49   O101  1.373625 S    
P10   O34   1.546806 D    
C11   H15   1.107675 S    
O114  H94   0.990991 S    
C57   H45   1.078913 S    
O99   H79   0.993823 S    
C105  O69   1.215064 D    
C5    H5    1.112002 S    
C76   C78   1.403665 A    
C7    H7    1.108781 S    
C28   C112  1.504010 S    
O50   H50   0.987661 S    
C63   C95   1.428481 A    
O105  H85   0.987385 S    
C4    C116  1.509800 S    
C61   C93   1.419366 A    
P5    O46   1.610131 S    
C97   O54   1.394855 S    
C116  O95   1.222746 D    
Ba3   Ba4   4.874406 S    
Ba2   O46   2.904252 S    
C41   C45   1.385122 A    
C75   O107  1.373080 S    
C8    C12   1.523059 S    
O98   H78   0.992827 S    
P1    O17   1.827452 S    
O23   C31   1.400733 S    
O107  H87   0.987389 S    
C60   H48   1.078698 S    
P3    O19   1.819652 S    
O126  H102  0.987272 S    
O108  H88   0.988162 S    
O21   C29   1.407223 S    
C10   C118  1.496998 S    
O97   H77   0.992798 S    
O26   Ba2   2.885203 S    
P7    C64   1.951007 S    
O10   P13   1.747856 S    
C83   C91   1.418106 A    
C106  O71   1.212550 D    
C75   C77   1.402766 A    
O28   Ba4   2.885203 S    
C5    H9    1.115083 S    
O37   C14   1.392203 S    
O39   C16   1.406829 S    
C14   C18   1.531410 S    
C110  O80   1.390981 S    
C44   C88   1.430778 A    
O120  H98   1.012069 S    
C43   C87   1.429539 A    
C108  O75   1.208247 D    
C79   C83   1.395523 A    
C25   H25   1.100286 S    
C113  O90   1.392472 S    
C73   O105  1.372290 S    
C14   O126  1.395958 S    
C117  O118  1.395142 S    
O94   H75   1.007305 S    
C46   C52   1.402626 A    
O2    Ba2   2.888033 S    
P2    O2    1.623575 D    
C13   C17   1.531414 S    
O40   C15   1.409197 S    
C83   C87   1.409540 A    
C3    O115  1.409675 S    
O43   C7    1.404915 S    
C15   O127  1.392316 S    
C77   H41   1.070980 S    
P5    C62   1.938366 S    
C107  O74   1.382574 S    
C67   C71   1.440204 A    
C112  O83   1.221091 D    
O18   C22   1.451134 S    
C63   C67   1.450477 A    
C106  O72   1.379898 S    
P8    Ba4   3.516381 S    
C10   H34   1.104414 S    
C105  O70   1.377067 S    
C65   C69   1.441112 A    
C4    O100  1.408607 S    
C98   O55   1.219828 D    
C100  O60   1.396334 S    
C48   H40   1.063941 S    
P14   C89   1.869911 S    
O80   H66   1.008611 S    
C48   C50   1.400523 A    
C47   H39   1.062676 S    
C111  O82   1.395746 S    
O86   H70   0.990813 S    
O9    Ba1   2.885517 S    
O72   H62   0.983227 S    
P2    O6    1.603517 S    
O38   C13   1.399171 S    
H4    C32   1.119408 S    
C72   C86   1.448216 A    
C43   C55   1.440771 A    
C22   C26   1.581298 S    
P8    O47   1.607063 S    
C26   H26   1.098621 S    
C95   O111  1.373122 S    
C61   C65   1.449155 A    
C23   C103  1.448630 S    
C17   C97   1.513301 S    
O66   H59   0.998178 S    
C120  O123  1.219041 D    
P1    C53   1.943503 S    
O115  H95   0.992553 S    
C59   H47   1.078178 S    
C2    O98   1.404828 S    
P6    Ba2   3.516381 S    
P4    C56   1.943532 S    
C2    C114  1.515362 S    
O101  H81   0.986313 S    
C82   C86   1.408898 A    
C64   C68   1.451897 A    
C45   H37   1.054235 S    
P2    C54   1.939775 S    
C2    C30   1.554352 S    
O58   H55   1.012853 S    
O113  H93   0.989767 S    
C27   H27   1.104655 S    
Ba4   O48   2.904252 S    
C101  O61   1.206351 D    
C1    C113  1.511739 S    
