data_mof_unit_31408.cif
_audit_creation_date              2012-12-11T14:17:28-0500
_audit_creation_method            fapswitch 2.2
_symmetry_space_group_name_H-M    P1
_symmetry_Int_Tables_number       1
_space_group_crystal_system       triclinic
_cell_length_a                    6.945577
_cell_length_b                    13.635346
_cell_length_c                    20.406064
_cell_angle_alpha                 102.151146
_cell_angle_beta                  89.917704
_cell_angle_gamma                 90.6881
_cell_volume                      1889.12824643

loop_
_atom_site_label
_atom_site_type_symbol
_atom_type_description
_atom_site_fract_x
_atom_site_fract_y
_atom_site_fract_z
_atom_type_partial_charge
O1    O     O_R   0.506860 0.599390 0.449240 -0.537633
O2    O     O_R   0.180220 0.594600 0.586780 -0.543667
O3    O     O_R   0.004500 0.400610 0.550760 -0.538861
C1    C     C_R   0.349049 0.616115 0.613444 0.740480
O4    O     O_R   0.177490 0.611290 0.451970 -0.539516
O5    O     O_R   0.001750 0.417420 0.414990 -0.540018
C2    C     C_R   0.347063 0.638102 0.435383 0.699255
O6    O     O_R   0.509610 0.582580 0.585010 -0.543246
O7    O     O_3   0.337420 0.436370 0.488020 -0.373078
V1    V     V_3+5 0.064680 0.511800 0.502220 1.429435
O8    O     O_R   0.671710 0.405400 0.413220 -0.547020
C3    C     C_R   0.839795 0.384058 0.386538 0.741048
O9    O     O_R   0.674440 0.388710 0.548030 -0.540906
C4    C     C_R   0.842484 0.362030 0.564784 0.703721
V2    V     V_3+5 0.564010 0.488200 0.497780 1.424963
O10   O     O_3   0.841140 0.563630 0.511980 -0.371087
C5    C     C_R   0.848981 0.107695 0.609318 0.003632
H1    H     H_    0.841477 0.164133 0.517884 0.143522
H2    H     H_    0.833440 0.982721 0.698095 0.109769
C6    C     C_R   0.848669 0.284043 0.604135 -0.075751
C7    C     C_R   0.873805 0.314798 0.927518 -0.168025
C8    C     C_R   0.876067 0.390355 0.891365 -0.119788
C9    C     C_R   0.870580 0.366847 0.821551 -0.160560
C10   C     C_R   0.861709 0.265730 0.785584 0.087477
C11   C     C_R   0.858281 0.188809 0.823203 0.068006
C12   C     C_R   0.857097 0.238642 0.713802 0.076640
C13   C     C_R   0.851809 0.135075 0.680787 0.054137
C14   C     C_R   0.845099 0.061769 0.719995 -0.206932
C15   C     C_R   0.849114 0.087991 0.789403 -0.181703
C16   C     C_R   0.856004 0.311517 0.673764 -0.212235
C17   C     C_R   0.844784 0.183341 0.572214 -0.158946
C18   C     C_R   0.864721 0.214333 0.894241 -0.077234
H3    H     H_    0.857963 0.390835 0.694840 0.096803
H4    H     H_    0.880030 0.334692 0.981773 0.102576
H5    H     H_    0.874736 0.430027 0.797655 0.106616
H6    H     H_    0.883379 0.468056 0.917666 0.119150
H7    H     H_    0.844199 0.027709 0.816487 0.113920
C19   C     C_2   0.005414 0.288768 0.285019 -0.131614
C20   C     C_2   0.842213 0.315648 0.319769 -0.306175
H8    H     H_    0.142604 0.317389 0.306977 0.133494
H9    H     H_    0.703543 0.287490 0.299488 0.126315
C21   C     C_2   0.013741 0.220661 0.217402 -0.131777
C22   C     C_2   0.858575 0.183296 0.180363 -0.306666
H10   H     H_    0.156596 0.201438 0.197407 0.131911
H11   H     H_    0.714428 0.201725 0.198763 0.126078
C23   C     C_2   0.204693 0.791255 0.782183 -0.135946
C24   C     C_2   0.363621 0.815761 0.819904 -0.305988
H12   H     H_    0.067158 0.821791 0.801447 0.131232
H13   H     H_    0.501972 0.785609 0.801937 0.127608
C25   C     C_2   0.202953 0.722763 0.714669 -0.132857
C26   C     C_2   0.361031 0.684476 0.680162 -0.309190
H14   H     H_    0.061758 0.703999 0.692446 0.133855
H15   H     H_    0.504102 0.702906 0.700312 0.125020
C27   C     C_R   0.405784 0.887664 0.387381 -0.105912
H16   H     H_    0.402854 0.837383 0.480188 0.120877
H17   H     H_    0.431705 0.012262 0.304022 0.124776
H18   H     H_    0.429744 0.965262 0.412272 0.135723
C28   C     C_R   0.358936 0.714933 0.395302 -0.046654
C29   C     C_R   0.324809 0.685686 0.071670 -0.168692
C30   C     C_R   0.308494 0.610016 0.107529 -0.119019
C31   C     C_R   0.320248 0.632412 0.177260 -0.156840
C32   C     C_R   0.349191 0.732370 0.213263 0.080804
C33   C     C_R   0.366949 0.809602 0.176037 0.066905
C34   C     C_R   0.361040 0.758261 0.284795 0.072484
C35   C     C_R   0.391696 0.860297 0.317229 0.122691
C36   C     C_R   0.408596 0.934378 0.279585 -0.190547
C37   C     C_R   0.396177 0.909672 0.210184 -0.193077
C38   C     C_R   0.344038 0.686520 0.325533 -0.212071
C39   C     C_R   0.390242 0.815263 0.426154 -0.129053
C40   C     C_R   0.354192 0.785111 0.105142 -0.074228
H19   H     H_    0.320549 0.607842 0.304910 0.094462
H20   H     H_    0.314157 0.666704 0.017479 0.102574
H21   H     H_    0.306028 0.569550 0.201242 0.106729
H22   H     H_    0.285961 0.533159 0.081062 0.118764
H23   H     H_    0.410099 0.970082 0.183460 0.117410
O11   O     O_R   0.203230 0.917310 0.915020 -0.538922
O12   O     O_R   0.535500 0.888690 0.048040 -0.540792
O13   O     O_R   0.711080 0.082610 0.085000 -0.544549
C41   C     C_R   0.366041 0.862327 0.065018 0.688414
O14   O     O_R   0.532630 0.905370 0.913230 -0.548476
O15   O     O_R   0.708190 0.099410 0.949230 -0.538856
C42   C     C_R   0.364386 0.884254 0.886505 0.743886
O16   O     O_R   0.206120 0.900510 0.050790 -0.538205
O17   O     O_3   0.375360 0.063570 0.011990 -0.372691
V3    V     V_3+5 0.648170 0.988200 0.997780 1.414437
O18   O     O_R   0.038240 0.111390 0.951940 -0.540731
C43   C     C_R   0.870273 0.137423 0.934736 0.687064
O19   O     O_R   0.041120 0.094710 0.086750 -0.542322
C44   C     C_R   0.872500 0.115712 0.113528 0.744506
V4    V     V_3+5 0.148810 0.011930 0.002180 1.421406
O20   O     O_3   0.871750 0.936430 0.988010 -0.372375
C45   C     C_2   0.854719 0.001537 0.571585 0.343870
H24   H     H_    0.907174 0.942251 0.594452 0.041331
O21   O     O_2   0.803566 0.978939 0.513033 -0.535347

loop_
_geom_bond_atom_site_label_1
_geom_bond_atom_site_label_2
_ccdc_geom_bond_type
C41   O16   A    
C1    O6    A    
V3    O20   S    
C24   H13   S    
C27   C35   A    
C6    C16   A    
C12   C13   A    
C22   C44   S    
C21   H10   S    
C34   C38   A    
C14   C15   A    
C10   C12   A    
C19   C21   S    
O5    C3    A    
C19   C20   D    
V2    O10   S    
C24   C42   S    
C32   C34   A    
O8    V2    S    
C25   H14   S    
C9    C10   A    
O1    V2    S    
O7    V1    S    
C2    C28   S    
C29   H20   S    
C11   C18   A    
C36   C37   A    
O12   V3    S    
C29   C30   A    
O9    C4    A    
C5    C45   S    
O17   V4    S    
C23   H12   S    
O12   C41   A    
O13   C44   A    
C11   C15   A    
C7    C18   A    
C33   C37   A    
C1    C26   S    
C5    C13   A    
C4    C6    S    
O17   V3    S    
O14   C42   A    
O18   V4    S    
O11   C42   A    
O4    C2    A    
O18   C43   A    
C7    H4    S    
C31   H21   S    
C18   C43   S    
C30   C31   A    
C26   H15   S    
O2    C1    A    
O14   V3    S    
C33   C40   A    
C32   C33   A    
C45   O21   D    
C25   C26   D    
O15   C43   A    
C10   C11   A    
H2    C14   S    
C22   H11   S    
H16   C39   S    
O3    C4    A    
O13   V3    S    
C28   C38   A    
O19   V4    S    
C12   C16   A    
O6    V2    S    
C9    H5    S    
O9    V2    S    
C5    C17   A    
C37   H23   S    
C21   C22   D    
O2    V1    S    
O16   V4    S    
C23   C24   D    
C16   H3    S    
C40   C41   S    
O1    C2    A    
O5    V1    S    
O8    C3    A    
C28   C39   A    
C8    H6    S    
C23   C25   S    
C34   C35   A    
C3    C20   S    
O7    V2    S    
O4    V1    S    
O3    V1    S    
V1    O10   S    
C19   H8    S    
V4    O20   S    
C27   C39   A    
C38   H19   S    
H17   C36   S    
C30   H22   S    
C45   H24   S    
C31   C32   A    
C29   C40   A    
O19   C44   A    
C20   H9    S    
C35   C36   A    
C15   H7    S    
C13   C14   A    
C8    C9    A    
H1    C17   S    
C7    C8    A    
C6    C17   A    
O15   V3    S    
O11   V4    S    
C27   H18   S    
