data_mof_unit_37854.cif
_audit_creation_date              2013-03-05T15:50:44-0500
_audit_creation_method            fapswitch 2.2
_symmetry_space_group_name_H-M    P1
_symmetry_Int_Tables_number       1
_space_group_crystal_system       triclinic
_cell_length_a                    22.835211
_cell_length_b                    7.334086
_cell_length_c                    20.720231
_cell_angle_alpha                 89.88279
_cell_angle_beta                  93.233198
_cell_angle_gamma                 89.834643
_cell_volume                      3464.58252907

loop_
_atom_site_label
_atom_site_type_symbol
_atom_site_description
_atom_site_fract_x
_atom_site_fract_y
_atom_site_fract_z
_atom_type_partial_charge
O1    O     O_R   0.438030 0.494310 0.439340 -0.586707
O2    O     O_R   0.561970 0.994310 0.560660 -0.588409
O3    O     O_R   0.556900 0.822900 0.435960 -0.589693
O4    O     O_R   0.443100 0.322900 0.564040 -0.589693
C1    C     C_R   0.575611 0.655957 0.421304 0.954867
C2    C     C_R   0.424449 0.156046 0.578768 0.958700
O5    O     O_R   0.438170 0.823950 0.431660 -0.584927
O6    O     O_R   0.561830 0.323950 0.568340 -0.585671
O7    O     O_R   0.442390 0.995390 0.556340 -0.580087
O8    O     O_R   0.557610 0.495390 0.443660 -0.580937
C3    C     C_R   0.418895 0.655850 0.415914 0.908383
C4    C     C_R   0.581160 0.155291 0.584057 0.905069
O9    O     O_3   0.501520 0.661170 0.540910 -0.287314
O10   O     O_3   0.498480 0.161170 0.459090 -0.285925
V1    V     V_3+5 0.499720 0.935580 0.492410 1.163553
V2    V     V_3+5 0.500280 0.435580 0.507590 1.162249
C5    C     C_R   0.817735 0.979679 0.874884 0.324473
C6    C     C_R   0.179631 0.463265 0.130111 0.363714
C7    C     C_R   0.868479 0.085121 0.866860 -0.453589
C8    C     C_R   0.131000 0.581547 0.134045 -0.441971
C9    C     C_R   0.870921 0.203674 0.813406 0.351337
C10   C     C_R   0.129833 0.710901 0.184275 0.384501
C11   C     C_R   0.820574 0.231119 0.771052 -0.193325
C12   C     C_R   0.177834 0.725585 0.230699 -0.185749
C13   C     C_R   0.770624 0.118495 0.777209 -0.063434
C14   C     C_R   0.227430 0.609143 0.225733 -0.067578
C15   C     C_R   0.769059 0.989610 0.828685 -0.185542
C16   C     C_R   0.228525 0.475549 0.175849 -0.169346
C17   C     C_R   0.818759 0.369563 0.722663 0.478557
C18   C     C_R   0.177313 0.851410 0.282977 0.452598
C19   C     C_R   0.770846 0.383511 0.677341 0.432103
C20   C     C_R   0.227392 0.875501 0.324550 0.401164
C21   C     C_R   0.723587 0.261152 0.679721 -0.055012
C22   C     C_R   0.275667 0.758106 0.320918 -0.030450
C23   C     C_R   0.722700 0.131890 0.730557 -0.017856
C24   C     C_R   0.275702 0.624078 0.271875 -0.019065
C25   C     C_R   0.674176 0.013535 0.733655 -0.015722
C26   C     C_R   0.324174 0.504545 0.269551 -0.024394
C27   C     C_R   0.671689 0.890148 0.785396 0.400007
C28   C     C_R   0.326096 0.376329 0.219508 0.396566
C29   C     C_R   0.718799 0.875308 0.831843 0.189024
C30   C     C_R   0.278731 0.359280 0.173627 0.200112
C31   C     C_R   0.677098 0.266208 0.632046 -0.124238
C32   C     C_R   0.323543 0.770718 0.366590 -0.127914
C33   C     C_R   0.629809 0.146210 0.634211 -0.169838
C34   C     C_R   0.370274 0.647313 0.365858 -0.173862
C35   C     C_R   0.628844 0.019223 0.684573 -0.179410
C36   C     C_R   0.370093 0.513874 0.317754 -0.171752
H1    H     H_    0.677873 0.360401 0.591860 0.148790
H2    H     H_    0.323775 0.872432 0.404473 0.160289
H3    H     H_    0.592038 0.926577 0.685651 0.170657
H4    H     H_    0.406551 0.419007 0.317645 0.172164
C37   C     C_3   0.269379 0.177335 0.831541 0.250061
C38   C     C_3   0.730970 0.678841 0.169009 0.247821
C39   C     C_3   0.223241 0.909121 0.764338 0.276106
C40   C     C_3   0.777242 0.408871 0.235995 0.275565
C41   C     C_3   0.281151 0.914913 0.724694 0.663424
C42   C     C_3   0.719337 0.414821 0.275664 0.662859
H5    H     H_    0.226804 0.806666 0.803900 0.137182
H6    H     H_    0.773711 0.307175 0.196357 0.138131
C43   C     C_1   0.379400 0.149091 0.625249 -0.323933
C44   C     C_1   0.620826 0.648861 0.375031 -0.323159
C45   C     C_3   0.210768 0.100326 0.795234 -0.313831
C46   C     C_3   0.789623 0.600455 0.205240 -0.317562
C47   C     C_3   0.314309 0.220143 0.777427 0.195525
C48   C     C_3   0.686078 0.721505 0.223163 0.195919
C49   C     C_3   0.295585 0.122252 0.712217 -0.099587
C50   C     C_3   0.704835 0.622169 0.288290 -0.101719
C51   C     C_3   0.238294 0.218301 0.684884 -0.673609
C52   C     C_3   0.762111 0.716879 0.315706 -0.672727
C53   C     C_3   0.191528 0.229073 0.737227 0.573875
C54   C     C_3   0.808863 0.727834 0.263360 0.584355
C55   C     C_1   0.341687 0.140496 0.664209 0.222836
C56   C     C_1   0.658672 0.640289 0.336228 0.224253
C57   C     C_1   0.161606 0.086070 0.839954 0.322834
C58   C     C_1   0.838709 0.586394 0.160418 0.320084
C59   C     C_1   0.122041 0.080011 0.876694 -0.156237
C60   C     C_1   0.878147 0.580358 0.123521 -0.149487
H7    H     H_    0.189843 0.367045 0.756984 0.028911
H8    H     H_    0.810500 0.866108 0.243749 0.028971
H9    H     H_    0.248078 0.357975 0.668095 0.145896
H10   H     H_    0.752305 0.856433 0.332592 0.145976
H11   H     H_    0.310193 0.369403 0.766844 0.093808
H12   H     H_    0.690214 0.870502 0.233851 0.093157
H13   H     H_    0.220141 0.143453 0.641637 0.281159
H14   H     H_    0.780289 0.641010 0.358897 0.283995
O11   O     O_R   0.942420 0.735670 0.056390 -0.549593
O12   O     O_R   0.057580 0.235670 0.943610 -0.550988
O13   O     O_R   0.061840 0.404850 0.068350 -0.555794
O14   O     O_R   0.938160 0.904850 0.931650 -0.571052
C61   C     C_R   0.081369 0.573007 0.084080 1.027730
C62   C     C_R   0.918887 0.073834 0.915673 1.005917
O15   O     O_R   0.943100 0.406010 0.064050 -0.592515
O16   O     O_R   0.056900 0.906010 0.935950 -0.592834
O17   O     O_R   0.938020 0.234710 0.939330 -0.548788
O18   O     O_R   0.061980 0.734710 0.060670 -0.552387
C63   C     C_R   0.924410 0.573977 0.078524 0.992584
C64   C     C_R   0.075627 0.073864 0.921521 0.971062
O19   O     O_3   0.998500 0.567790 0.959120 -0.267021
O20   O     O_3   0.001500 0.067790 0.040880 -0.259116
V3    V     V_3+5 0.000280 0.293330 0.007580 1.350850
V4    V     V_3+5 0.999720 0.793330 0.992420 1.338610
N1    N     N_R   0.815688 0.868681 0.931740 0.253552
O21   O     O_R   0.833260 0.699844 0.930574 -0.368351
O22   O     O_R   0.807455 0.945465 0.987035 -0.281676
N2    N     N_R   0.179566 0.336663 0.077454 0.251468
O23   O     O_R   0.163762 0.168569 0.086285 -0.319211
O24   O     O_R   0.184871 0.396438 0.018910 -0.307319
N3    N     N_R   0.293792 0.042683 0.879710 0.289363
O25   O     O_R   0.259029 0.931844 0.908223 -0.322545
O26   O     O_R   0.345266 0.069571 0.908334 -0.216618
N4    N     N_R   0.706584 0.545230 0.120798 0.289451
O27   O     O_R   0.741393 0.434616 0.092116 -0.319959
O28   O     O_R   0.655039 0.573053 0.092301 -0.214644
O29   O     O_3   0.174322 0.871564 0.721169 -0.522539
C65   C     C_3   0.156962 0.690688 0.722203 -0.078336
H15   H     H_    0.190923 0.607321 0.700340 0.129508
H16   H     H_    0.116107 0.681495 0.691065 0.154778
H17   H     H_    0.146828 0.645957 0.771667 0.139506
O30   O     O_3   0.826199 0.369882 0.279104 -0.522746
C66   C     C_3   0.843554 0.188706 0.278075 -0.076325
H18   H     H_    0.809695 0.105828 0.300180 0.131173
H19   H     H_    0.884527 0.178543 0.309022 0.150197
H20   H     H_    0.853497 0.144128 0.228581 0.140698
N5    N     N_R   0.331165 0.824028 0.761673 0.204804
O31   O     O_R   0.322250 0.705646 0.806837 -0.405764
O32   O     O_R   0.384741 0.844100 0.744374 -0.402574
N6    N     N_R   0.669363 0.325258 0.238622 0.204787
O33   O     O_R   0.678345 0.207136 0.193512 -0.405416
O34   O     O_R   0.615767 0.345980 0.255869 -0.402129
O35   O     O_3   0.267374 0.830224 0.663116 -0.621026
C67   C     C_3   0.308964 0.704324 0.641601 -0.150806
H21   H     H_    0.317151 0.591053 0.676526 0.132977
H22   H     H_    0.350387 0.773019 0.630484 0.175724
H23   H     H_    0.290906 0.642488 0.595932 0.142253
O36   O     O_3   0.733151 0.328841 0.337173 -0.619609
C68   C     C_3   0.691493 0.203709 0.358719 -0.147599
H24   H     H_    0.683245 0.090986 0.323811 0.131860
H25   H     H_    0.650103 0.273209 0.369826 0.174317
H26   H     H_    0.709522 0.140999 0.404395 0.144785
O37   O     O_3   0.134823 0.176909 0.711427 -0.537385
C69   C     C_3   0.108023 0.307622 0.669675 -0.110936
H27   H     H_    0.077534 0.235831 0.634839 0.186508
H28   H     H_    0.139422 0.383151 0.640603 0.080319
H29   H     H_    0.080918 0.399991 0.698006 0.150672
O38   O     O_3   0.865591 0.674334 0.289102 -0.530911
C70   C     C_3   0.892501 0.804233 0.330714 -0.164318
H30   H     H_    0.923082 0.731637 0.365495 0.176370
H31   H     H_    0.861164 0.880082 0.359839 0.101322
H32   H     H_    0.919551 0.896296 0.302260 0.141853
N7    N     N_R   0.259294 0.348774 0.867198 0.255901
O39   O     O_R   0.207659 0.422970 0.869939 -0.398151
O40   O     O_R   0.302968 0.424339 0.900076 -0.236865
N8    N     N_R   0.740978 0.850657 0.133422 0.256905
O41   O     O_R   0.792480 0.925200 0.131291 -0.396379
O42   O     O_R   0.697357 0.926778 0.100265 -0.232420
N9    N     N_R   0.926665 0.276928 0.797735 0.239507
O43   O     O_R   0.949513 0.414446 0.829574 -0.374952
O44   O     O_R   0.953087 0.211871 0.748729 -0.382981
N10   N     N_R   0.079040 0.825579 0.187827 0.255367
O45   O     O_R   0.081590 0.996278 0.171026 -0.298640
O46   O     O_R   0.028510 0.754048 0.199012 -0.448968
O47   O     O_3   0.864110 0.492921 0.718307 -0.554244
C71   C     C_3   0.853664 0.642517 0.758920 -0.000024
H33   H     H_    0.848134 0.598924 0.809647 0.157292
H34   H     H_    0.814686 0.721839 0.740944 0.073145
H35   H     H_    0.892033 0.735033 0.759210 0.170023
O48   O     O_3   0.128611 0.957658 0.293281 -0.564396
C72   C     C_3   0.095947 0.871944 0.340524 -0.073345
H36   H     H_    0.120292 0.871586 0.388546 0.137299
H37   H     H_    0.083559 0.730189 0.326336 0.118052
H38   H     H_    0.054744 0.949992 0.345351 0.159072
O49   O     O_3   0.773040 0.511599 0.628171 -0.583540
C73   C     C_3   0.735596 0.660935 0.639807 -0.183409
H39   H     H_    0.713083 0.653812 0.686195 0.122553
H40   H     H_    0.701582 0.672317 0.599557 0.150089
H41   H     H_    0.761669 0.788462 0.639969 0.165512
O50   O     O_3   0.226594 0.006088 0.372619 -0.617012
C74   C     C_3   0.246415 0.171955 0.347293 -0.149569
H42   H     H_    0.217316 0.219865 0.305721 0.158596
H43   H     H_    0.292433 0.159508 0.332777 0.140605
H44   H     H_    0.245711 0.277588 0.385482 0.155568
O51   O     O_3   0.624547 0.772763 0.788730 -0.613755
C75   C     C_3   0.580829 0.859543 0.823246 -0.026984
H45   H     H_    0.596868 0.891655 0.873594 0.175039
H46   H     H_    0.543120 0.765355 0.825966 0.175328
H47   H     H_    0.564416 0.985906 0.798417 0.102126
O52   O     O_3   0.373286 0.257905 0.217007 -0.612529
C76   C     C_3   0.416555 0.340739 0.180836 -0.030002
H48   H     H_    0.432978 0.469318 0.203706 0.105349
H49   H     H_    0.400052 0.367949 0.130218 0.175989
H50   H     H_    0.454366 0.245927 0.179048 0.172190
N11   N     N_R   0.715211 0.736373 0.880082 0.279199
O53   O     O_R   0.694638 0.776317 0.935627 -0.262742
O54   O     O_R   0.720377 0.566107 0.863773 -0.341751
N12   N     N_R   0.283026 0.220406 0.125611 0.279140
O55   O     O_R   0.300799 0.262982 0.068961 -0.272028
O56   O     O_R   0.281980 0.049747 0.142796 -0.320825
O57   O     O_3   0.372885 0.172011 0.797786 -0.538369
C77   C     C_3   0.411201 0.322288 0.795337 0.100034
H51   H     H_    0.400338 0.426726 0.831540 0.191112
H52   H     H_    0.410285 0.383388 0.746102 0.073613
H53   H     H_    0.456597 0.274240 0.807495 0.127164
O58   O     O_3   0.627487 0.674819 0.202809 -0.537873
C78   C     C_3   0.589227 0.825910 0.205210 0.100309
H54   H     H_    0.600159 0.930504 0.169013 0.190758
H55   H     H_    0.590131 0.886444 0.254442 0.073208
H56   H     H_    0.543820 0.778997 0.193013 0.129222

loop_
_geom_bond_atom_site_label_1
_geom_bond_atom_site_label_2
_geom_bond_distance
_ccdc_geom_bond_type
C48   C50   1.569784 S    
C42   N6    1.493456 S    
N9    O43   1.300604 A    
O18   V4    1.993276 S    
C72   H37   1.113944 S    
C72   H36   1.112076 S    
C17   O47   1.383728 S    
C70   H30   1.109068 S    
O1    C3    1.341972 A    
C46   C54   1.569484 S    
O2    C4    1.342509 A    
N6    O33   1.300055 A    
C2    O7    1.339043 A    
N4    O28   1.302085 A    
O12   V3    1.960227 S    
O3    V1    1.981398 S    
C27   C29   1.406218 A    
O49   C73   1.416943 S    
C65   H15   1.103865 S    
O5    C3    1.344877 A    
C68   H25   1.108304 S    
C39   O29   1.419123 S    
C38   C46   1.602615 S    
C11   C17   1.424386 A    
C2    C43   1.449226 S    
C71   H33   1.112083 S    
C23   C25   1.413763 A    
C58   C60   1.214517 T    
C39   H5    1.110318 S    
N3    O26   1.302089 A    
C41   N5    1.493506 S    
C47   H11   1.118641 S    
N2    O23   1.301022 A    
O16   C64   1.343025 A    
C32   H2    1.083777 S    
O29   C65   1.386090 S    
C14   C24   1.422449 A    
C54   H8    1.093238 S    
C75   H45   1.111903 S    
C76   H49   1.111756 S    
C51   C53   1.566339 S    
C73   H39   1.116499 S    
O14   V4    2.005004 S    
C66   H20   1.112354 S    
C29   N11   1.431647 S    
C7    C62   1.490827 S    
C5    C7    1.412356 A    
C61   O18   1.344684 A    
C47   O57   1.422939 S    
O47   C71   1.411986 S    
C65   H16   1.106267 S    
C77   H51   1.110476 S    
C47   C49   1.569864 S    
C39   C45   1.574605 S    
O19   V4    1.793256 S    
N7    O39   1.301381 A    
C40   C46   1.574564 S    
C49   C55   1.494663 S    
C40   C42   1.596356 S    
C25   C35   1.410118 A    
C37   C47   1.593322 S    
C26   C36   1.408656 A    
C53   O37   1.426338 S    
C74   H44   1.109250 S    
C48   O58   1.422948 S    
C10   C12   1.421458 A    
O5    V1    2.010345 S    
O57   C77   1.411809 S    
O6    V2    2.004935 S    
C74   H43   1.112765 S    
C17   C19   1.404448 A    
C40   O30   1.419118 S    
C69   H29   1.107617 S    
C20   O50   1.384003 S    
C9    N9    1.436749 S    
C41   C49   1.580738 S    
C53   H7    1.093731 S    
N4    O27   1.301800 A    
C68   H26   1.109019 S    
C32   C34   1.398007 A    
O50   C74   1.409762 S    
C12   C18   1.424980 A    
C33   C35   1.398403 A    
C9    C11   1.420066 A    
C43   C55   1.214841 T    
C8    C61   1.492821 S    
C34   C36   1.398128 A    
C70   H31   1.110619 S    
C5    C15   1.427010 A    
C70   H32   1.107654 S    
C6    C16   1.426344 A    
N12   O56   1.301247 A    
O15   V3    1.981661 S    
C4    C33   1.479052 S    
C31   H1    1.081782 S    
C35   H3    1.083468 S    
N11   O54   1.301098 A    
C78   H54   1.110466 S    
C21   C31   1.409090 A    
C62   O17   1.343306 A    
C40   H6    1.110284 S    
O52   C76   1.411439 S    
C49   C51   1.561400 S    
C20   C22   1.402258 A    
O4    V2    1.982544 S    
C76   H50   1.109332 S    
O51   C75   1.411339 S    
C6    N2    1.434066 S    
C18   C20   1.404151 A    
O11   V4    1.960688 S    
C31   C33   1.397636 A    
C15   C29   1.427584 A    
O14   C62   1.348331 A    
O12   C64   1.344711 A    
O6    C4    1.345339 A    
C10   N10   1.436073 S    
C60   C63   1.448630 S    
C19   C21   1.408458 A    
C46   C58   1.498889 S    
C38   N4    1.487479 S    
C59   C64   1.448869 S    
N1    O22   1.300582 A    
O1    V2    1.993296 S    
C30   N12   1.432273 S    
O2    V1    1.996317 S    
C57   C59   1.214665 T    
C73   H41   1.110081 S    
N8    O41   1.301320 A    
C66   H18   1.103889 S    
C13   C23   1.421715 A    
C28   O52   1.385393 S    
O4    C2    1.337219 A    
O48   C72   1.411492 S    
C45   C53   1.569269 S    
C39   C41   1.596231 S    
N5    O31   1.300071 A    
C72   H38   1.109356 S    
C69   H28   1.110603 S    
O13   C61   1.347039 A    
O35   C67   1.413388 S    
C52   H14   1.112448 S    
O15   C63   1.342587 A    
C51   H13   1.112467 S    
O30   C66   1.386048 S    
C45   C57   1.499159 S    
N5    O32   1.302766 A    
O38   C70   1.405558 S    
C19   O49   1.387476 S    
C78   H56   1.109153 S    
C37   N3    1.487341 S    
C22   C32   1.408389 A    
O13   V3    2.010408 S    
O10   V1    1.790996 S    
N8    O42   1.301505 A    
C41   O35   1.439370 S    
C71   H35   1.109489 S    
C12   C14   1.424942 A    
C8    C10   1.411012 A    
N12   O55   1.301147 A    
O3    C1    1.336790 A    
N6    O34   1.302755 A    
C38   N8    1.483472 S    
N9    O44   1.300847 A    
C75   H47   1.112800 S    
C38   C48   1.592847 S    
C13   C15   1.425759 A    
C68   H24   1.109085 S    
C14   C16   1.426830 A    
C65   H17   1.112390 S    
C77   H53   1.109183 S    
C42   O36   1.439321 S    
N10   O45   1.301083 A    
C71   H34   1.108208 S    
C5    N1    1.433615 S    
C18   O48   1.382769 S    
C1    O8    1.338793 A    
C25   C27   1.405235 A    
O8    V2    1.964051 S    
N3    O25   1.301790 A    
C24   C26   1.413019 A    
C26   C28   1.403644 A    
C37   C45   1.602733 S    
C42   C50   1.580869 S    
N2    O24   1.301172 A    
C67   H23   1.109020 S    
C54   O38   1.426456 S    
C16   C30   1.429722 A    
O20   V3    1.790501 S    
C21   C23   1.416725 A    
C22   C24   1.415296 A    
C75   H46   1.109324 S    
C1    C44   1.448989 S    
C67   H21   1.109128 S    
C6    C8    1.413259 A    
N7    O40   1.301501 A    
O7    V1    1.963575 S    
C76   H48   1.112775 S    
C52   H10   1.108637 S    
C73   H40   1.109984 S    
C66   H19   1.106294 S    
C51   H9    1.108568 S    
C48   H12   1.118619 S    
C74   H42   1.113493 S    
C36   H4    1.083540 S    
C11   C13   1.421607 A    
O58   C78   1.411825 S    
O16   V4    1.982804 S    
C67   H22   1.108364 S    
N11   O53   1.301030 A    
O9    V2    1.793754 S    
N1    O21   1.301239 A    
C37   N7    1.483615 S    
C50   C52   1.561672 S    
C28   C30   1.405179 A    
C69   H27   1.109028 S    
C44   C56   1.214718 T    
C3    C34   1.477544 S    
C52   C54   1.566336 S    
O11   C63   1.344478 A    
O37   C69   1.405517 S    
C78   H55   1.112500 S    
C50   C56   1.494436 S    
C77   H52   1.112488 S    
C27   O51   1.385025 S    
O36   C68   1.413411 S    
O17   V3    1.996295 S    
N10   O46   1.301345 A    
C7    C9    1.410368 A    
