data_mof_unit_64460.cif
_audit_creation_date              2012-12-10T18:13:29-0500
_audit_creation_method            fapswitch 2.2
_symmetry_space_group_name_H-M    P1
_symmetry_Int_Tables_number       1
_space_group_crystal_system       triclinic
_cell_length_a                    36.161443
_cell_length_b                    29.166028
_cell_length_c                    21.573125
_cell_angle_alpha                 89.999837
_cell_angle_beta                  126.238691
_cell_angle_gamma                 89.999967
_cell_volume                      18351.5808425

loop_
_atom_site_label
_atom_site_type_symbol
_atom_type_description
_atom_site_fract_x
_atom_site_fract_y
_atom_site_fract_z
_atom_type_partial_charge
C1    C     C_R   0.913237 1.000000 0.913280 0.940384
C2    C     C_1   0.229474 0.999997 0.229942 0.015759
C3    C     C_3   0.452102 0.491297 0.236139 -0.586625
C4    C     C_1   0.862565 0.999999 0.862425 -0.180856
C5    C     C_1   0.137435 0.999999 0.137575 -0.180854
C6    C     C_1   0.362565 0.499999 0.862425 -0.180855
C7    C     C_1   0.637435 0.499999 0.137575 -0.180855
C8    C     C_3   0.900793 0.919271 0.587639 0.172471
C9    C     C_3   0.909006 0.897783 0.531989 -0.387000
C10   C     C_3   0.885029 0.851522 0.502272 -0.947642
C11   C     C_3   0.066339 0.095837 0.410789 0.164370
C12   C     C_3   0.070414 0.138228 0.373194 -0.350352
C13   C     C_1   0.270526 0.499998 0.770058 0.015759
C14   C     C_3   0.074658 0.181914 0.415883 -0.954472
C15   C     C_3   0.099201 0.919263 0.412354 0.172478
C16   C     C_3   0.090987 0.897775 0.468004 -0.387005
C17   C     C_3   0.114960 0.851512 0.497717 -0.947635
C18   C     C_3   0.933669 0.095842 0.589220 0.164367
C19   C     C_3   0.929597 0.138233 0.626820 -0.350345
C20   C     C_3   0.925357 0.181921 0.584135 -0.954477
C21   C     C_3   0.400797 0.419266 0.587644 0.172476
C22   C     C_3   0.409011 0.397778 0.531994 -0.387001
C23   C     C_3   0.385037 0.351516 0.502281 -0.947635
C24   C     C_1   0.729474 0.499997 0.229942 0.015759
C25   C     C_3   0.566335 0.595839 0.410785 0.164369
C26   C     C_3   0.570409 0.638230 0.373187 -0.350349
C27   C     C_3   0.574651 0.681917 0.415875 -0.954475
C28   C     C_3   0.599204 0.419266 0.412357 0.172476
C29   C     C_3   0.590990 0.397778 0.468007 -0.387003
C30   C     C_3   0.614965 0.351516 0.497722 -0.947637
C31   C     C_3   0.433664 0.595839 0.589214 0.164369
C32   C     C_3   0.429590 0.638230 0.626811 -0.350349
C33   C     C_3   0.425347 0.681917 0.584123 -0.954475
C34   C     C_1   0.728315 0.999998 0.727744 0.011412
C35   C     C_1   0.271685 0.999997 0.272256 0.011412
C36   C     C_1   0.228315 0.499998 0.727744 0.011412
C37   C     C_1   0.771685 0.499997 0.272256 0.011412
C38   C     C_1   0.678484 0.999998 0.677868 0.006305
C39   C     C_1   0.321516 0.999998 0.322132 0.006305
C40   C     C_1   0.178484 0.499998 0.677868 0.006305
C41   C     C_R   0.086763 1.000000 0.086720 0.940381
C42   C     C_1   0.821516 0.499998 0.322132 0.006305
C43   C     C_1   0.636270 0.999999 0.635734 -0.198678
C44   C     C_1   0.363730 0.999999 0.364266 -0.198678
C45   C     C_1   0.136270 0.499999 0.635734 -0.198678
C46   C     C_1   0.863730 0.499999 0.364266 -0.198678
C47   C     C_R   1.000000 0.913259 0.500000 0.874668
C48   C     C_R   1.000000 0.086740 0.500000 0.873015
C49   C     C_R   0.500000 0.413259 0.500000 0.874668
C50   C     C_R   0.500000 0.586740 0.500000 0.873015
C51   C     C_R   0.999760 0.998592 0.622340 0.935885
C52   C     C_R   0.413237 0.500000 0.913280 0.940383
C53   C     C_R   0.000240 0.998593 0.377660 0.935885
C54   C     C_R   0.499760 0.498593 0.622340 0.935885
C55   C     C_R   0.500240 0.498593 0.377660 0.935885
C56   C     C_R   0.500000 0.085601 0.500000 0.876936
C57   C     C_R   0.500000 0.914398 0.500000 0.876808
C58   C     C_R   1.000000 0.585601 0.500000 0.876936
C59   C     C_R   1.000000 0.414398 0.500000 0.876808
C60   C     C_R   0.585588 1.000000 0.585396 0.876775
C61   C     C_R   0.414412 1.000000 0.414604 0.876775
C62   C     C_R   0.085587 0.500000 0.585396 0.876775
C63   C     C_R   0.586763 0.500000 0.086720 0.940382
C64   C     C_R   0.914412 0.500000 0.414604 0.876775
C65   C     C_1   0.000000 0.862594 0.500000 -0.234132
C66   C     C_1   1.000000 0.137408 0.500000 -0.244904
C67   C     C_1   0.500000 0.362594 0.500000 -0.234133
C68   C     C_1   0.500000 0.637408 0.500000 -0.244904
C69   C     C_R   0.997682 0.000037 0.875359 1.019412
C70   C     C_R   0.002319 0.000037 0.124641 1.019416
C71   C     C_R   0.497681 0.500037 0.875359 1.019414
C72   C     C_R   0.502319 0.500037 0.124641 1.019413
C73   C     C_1   0.000000 0.820391 0.500000 0.000172
C74   C     C_1   0.820355 0.999998 0.820055 0.018628
C75   C     C_1   1.000000 0.179610 0.500000 -0.016362
C76   C     C_1   0.500000 0.320391 0.500000 0.000172
C77   C     C_1   0.500000 0.679610 0.500000 -0.016362
C78   C     C_1   0.000000 0.770566 0.500000 0.002781
C79   C     C_1   1.000000 0.229433 0.500000 -0.001062
C80   C     C_1   0.500000 0.270566 0.500000 0.002781
C81   C     C_1   0.500000 0.729433 0.500000 -0.001062
C82   C     C_1   0.500000 0.228351 0.500000 0.004420
C83   C     C_1   0.500000 0.771646 0.500000 0.009390
C84   C     C_1   0.000000 0.728351 0.500000 0.004420
C85   C     C_1   0.179645 0.999998 0.179945 0.018629
C86   C     C_1   1.000000 0.271646 0.500000 0.009390
C87   C     C_1   0.500000 0.178512 0.500000 0.003370
C88   C     C_1   0.500000 0.821484 0.500000 0.003799
C89   C     C_1   0.000000 0.678512 0.500000 0.003370
C90   C     C_1   1.000000 0.321484 0.500000 0.003799
C91   C     C_1   0.500000 0.136292 0.500000 -0.200028
C92   C     C_1   0.500000 0.863705 0.500000 -0.200149
C93   C     C_1   1.000000 0.636292 0.500000 -0.200028
C94   C     C_1   1.000000 0.363705 0.500000 -0.200149
C95   C     C_3   0.965620 0.961271 0.752072 0.468289
C96   C     C_1   0.320355 0.499998 0.820055 0.018629
C97   C     C_3   0.018859 0.047128 0.234044 0.516238
C98   C     C_3   0.034376 0.961267 0.247925 0.468286
C99   C     C_3   0.981146 0.047130 0.765961 0.516241
C100  C     C_3   0.465623 0.461269 0.752074 0.468285
C101  C     C_3   0.518857 0.547129 0.234042 0.516242
C102  C     C_3   0.534378 0.461269 0.247926 0.468287
C103  C     C_3   0.481143 0.547129 0.765958 0.516239
C104  C     C_3   0.967306 0.959301 0.682232 0.343391
C105  C     C_3   0.018884 0.046567 0.305557 0.338189
C106  C     C_3   0.032691 0.959298 0.317765 0.343388
C107  C     C_1   0.679645 0.499998 0.179945 0.018628
C108  C     C_3   0.981120 0.046568 0.694447 0.338187
C109  C     C_3   0.467308 0.459299 0.682234 0.343390
C110  C     C_3   0.518882 0.546568 0.305555 0.338187
C111  C     C_3   0.532692 0.459299 0.317767 0.343389
C112  C     C_3   0.481117 0.546568 0.694445 0.338188
C113  C     C_3   0.046921 0.990838 0.833915 -0.683739
C114  C     C_3   0.953078 0.990843 0.166084 -0.683737
C115  C     C_3   0.546921 0.490841 0.833915 -0.683738
C116  C     C_3   0.453079 0.490841 0.166085 -0.683736
C117  C     C_3   0.997558 0.999967 0.807834 -0.174762
C118  C     C_1   0.770526 0.999997 0.770058 0.015759
C119  C     C_3   0.002443 0.999967 0.192166 -0.174763
C120  C     C_3   0.497557 0.499967 0.807834 -0.174762
C121  C     C_3   0.502442 0.499966 0.192166 -0.174764
C122  C     C_3   0.998633 0.998956 0.688936 -0.127852
C123  C     C_3   0.001367 0.998956 0.311064 -0.127854
C124  C     C_3   0.498633 0.498956 0.688936 -0.127853
C125  C     C_3   0.501367 0.498956 0.311064 -0.127853
C126  C     C_3   0.047897 0.991294 0.763860 -0.586629
C127  C     C_3   0.952102 0.991300 0.236139 -0.586623
C128  C     C_3   0.547898 0.491298 0.763861 -0.586625
F1    F     F_    0.921161 0.968088 0.729160 -0.595819
F2    F     F_    0.062017 0.057910 0.253807 -0.584529
F3    F     F_    0.078836 0.968079 0.270837 -0.595821
F4    F     F_    0.937990 0.057917 0.746200 -0.584530
F5    F     F_    0.421162 0.468083 0.729161 -0.595818
F6    F     F_    0.562013 0.557913 0.253804 -0.584530
F7    F     F_    0.578838 0.468083 0.270839 -0.595820
F8    F     F_    0.437986 0.557913 0.746196 -0.584529
H1    H     H_    0.977287 0.927507 0.781850 0.033558
H2    H     H_    0.993345 0.072821 0.295759 -0.043955
H3    H     H_    0.015822 0.926493 0.315226 -0.037704
H4    H     H_    0.006662 0.072820 0.704246 -0.043951
H5    H     H_    0.484176 0.426494 0.684773 -0.037705
H6    H     H_    0.493342 0.572821 0.295756 -0.043954
H7    H     H_    0.515825 0.426493 0.315228 -0.037704
H8    H     H_    0.506657 0.572821 0.704242 -0.043954
H9    H     H_    0.059267 0.957011 0.863318 0.226195
H10   H     H_    0.929310 0.017514 0.124301 0.216644
H11   H     H_    0.940729 0.957018 0.136677 0.226191
H12   H     H_    0.994999 0.074542 0.194515 0.022565
H13   H     H_    0.070693 0.017505 0.875702 0.216642
H14   H     H_    0.559269 0.457015 0.863321 0.226193
H15   H     H_    0.429308 0.517509 0.124299 0.216643
H16   H     H_    0.440731 0.457014 0.136680 0.226193
H17   H     H_    0.570691 0.517510 0.875700 0.216643
H18   H     H_    0.062135 0.958215 0.760824 0.222079
H19   H     H_    0.928698 0.019059 0.228919 0.229175
H20   H     H_    0.937862 0.958222 0.239172 0.222080
H21   H     H_    0.071303 0.019051 0.771083 0.229178
H22   H     H_    0.562137 0.458219 0.760827 0.222080
H23   H     H_    0.022705 0.927504 0.218144 0.033558
H24   H     H_    0.428698 0.519055 0.228918 0.229176
H25   H     H_    0.437863 0.458219 0.239174 0.222080
H26   H     H_    0.571302 0.519056 0.771082 0.229176
H27   H     H_    0.863361 0.924611 0.556719 0.180842
H28   H     H_    0.911794 0.895392 0.636115 0.119391
H29   H     H_    0.895855 0.921258 0.482484 0.250915
H30   H     H_    0.946330 0.892762 0.561542 0.211466
H31   H     H_    0.898251 0.827241 0.550789 0.266399
H32   H     H_    0.891742 0.836977 0.462222 0.276229
H33   H     H_    0.847426 0.855625 0.471003 0.266603
H34   H     H_    0.005009 0.074541 0.805492 0.022561
H35   H     H_    0.097543 0.093606 0.471075 0.167055
H36   H     H_    0.036882 0.099146 0.414098 0.097678
H37   H     H_    0.101133 0.134749 0.373508 0.265723
H38   H     H_    0.039680 0.141104 0.312576 0.214838
H39   H     H_    0.043659 0.186628 0.414380 0.271018
H40   H     H_    0.078007 0.211944 0.387896 0.274553
H41   H     H_    0.105449 0.180258 0.476616 0.268562
H42   H     H_    0.136633 0.924600 0.443274 0.180843
H43   H     H_    0.088198 0.895384 0.363876 0.119394
H44   H     H_    0.104140 0.921249 0.517511 0.250916
H45   H     H_    0.477292 0.427505 0.781854 0.033559
H46   H     H_    0.053663 0.892757 0.438451 0.211465
H47   H     H_    0.101736 0.827232 0.449198 0.266398
H48   H     H_    0.108247 0.836967 0.537766 0.276229
H49   H     H_    0.152563 0.855612 0.528985 0.266603
H50   H     H_    0.902465 0.093615 0.528934 0.167056
H51   H     H_    0.963126 0.099150 0.585911 0.097675
H52   H     H_    0.898879 0.134756 0.626505 0.265726
H53   H     H_    0.960331 0.141106 0.687438 0.214840
H54   H     H_    0.956356 0.186632 0.585639 0.271019
H55   H     H_    0.922010 0.211950 0.612125 0.274554
H56   H     H_    0.494995 0.574542 0.194511 0.022562
H57   H     H_    0.894566 0.180267 0.523401 0.268563
H58   H     H_    0.363365 0.424604 0.556724 0.180841
H59   H     H_    0.411799 0.395387 0.636121 0.119392
H60   H     H_    0.395858 0.421252 0.482487 0.250914
H61   H     H_    0.446335 0.392760 0.561547 0.211465
H62   H     H_    0.398261 0.327235 0.550800 0.266397
H63   H     H_    0.391750 0.336970 0.462232 0.276228
H64   H     H_    0.347434 0.355615 0.471013 0.266602
H65   H     H_    0.597540 0.593609 0.471071 0.167055
H66   H     H_    0.536878 0.599147 0.414094 0.097677
H67   H     H_    0.522709 0.427505 0.218147 0.033558
H68   H     H_    0.601128 0.634752 0.373502 0.265724
H69   H     H_    0.539675 0.641105 0.312569 0.214839
H70   H     H_    0.543652 0.686630 0.414372 0.271019
H71   H     H_    0.577999 0.711947 0.387886 0.274554
H72   H     H_    0.605443 0.680262 0.476608 0.268562
H73   H     H_    0.636636 0.424605 0.443278 0.180842
H74   H     H_    0.588202 0.395387 0.363880 0.119392
H75   H     H_    0.604142 0.421252 0.517513 0.250915
H76   H     H_    0.553666 0.392759 0.438454 0.211465
H77   H     H_    0.601742 0.327236 0.449204 0.266398
H78   H     H_    0.505004 0.574542 0.805488 0.022563
H79   H     H_    0.608252 0.336971 0.537771 0.276229
H80   H     H_    0.652568 0.355617 0.528991 0.266603
H81   H     H_    0.402459 0.593609 0.528928 0.167055
H82   H     H_    0.463121 0.599147 0.585905 0.097677
H83   H     H_    0.398871 0.634752 0.626496 0.265724
H84   H     H_    0.460324 0.641105 0.687429 0.214840
H85   H     H_    0.456346 0.686630 0.585626 0.271019
H86   H     H_    0.421999 0.711947 0.612111 0.274554
H87   H     H_    0.394556 0.680261 0.523389 0.268562
H88   H     H_    0.984172 0.926494 0.684770 -0.037706
O1    O     O_R   0.936850 0.964330 0.936870 -0.605238
O2    O     O_R   0.000010 0.035670 0.092610 -0.612747
O3    O     O_R   0.000010 0.964330 0.092610 -0.636730
O4    O     O_R   0.999990 0.035670 0.907390 -0.612737
O5    O     O_R   0.499990 0.464330 0.907390 -0.636733
O6    O     O_R   0.500010 0.535670 0.092610 -0.612742
O7    O     O_R   0.500010 0.464330 0.092610 -0.636733
O8    O     O_R   0.499990 0.535670 0.907390 -0.612743
O9    O     O_R   0.964320 0.936860 0.464320 -0.612853
O10   O     O_R   0.035680 0.063140 0.535680 -0.607268
O11   O     O_R   0.035680 0.936860 0.535680 -0.612852
O12   O     O_R   0.063150 0.035670 0.063130 -0.597989
O13   O     O_R   0.964320 0.063140 0.464320 -0.607264
O14   O     O_R   0.464320 0.436860 0.464320 -0.612853
O15   O     O_R   0.535680 0.563140 0.535680 -0.607266
O16   O     O_R   0.535680 0.436860 0.535680 -0.612853
O17   O     O_R   0.464320 0.563140 0.464320 -0.607266
O18   O     O_R   0.964330 1.000000 0.556950 -0.559813
O19   O     O_R   0.035670 0.000000 0.443050 -0.559813
O20   O     O_R   0.464330 0.500000 0.556950 -0.559813
O21   O     O_R   0.535670 0.500000 0.443050 -0.559813
O22   O     O_R   0.035630 0.000000 0.628230 -0.640411
O23   O     O_R   0.063150 0.964330 0.063130 -0.605235
O24   O     O_R   0.964370 0.000000 0.371770 -0.640412
O25   O     O_R   0.535630 0.500000 0.628230 -0.640411
O26   O     O_R   0.464370 0.500000 0.371770 -0.640411
O27   O     O_R   0.499940 0.063120 0.447680 -0.591685
O28   O     O_R   0.500060 0.936880 0.552320 -0.591641
O29   O     O_R   0.500060 0.063120 0.552320 -0.591684
O30   O     O_R   0.499940 0.936880 0.447680 -0.591642
O31   O     O_R   0.999940 0.563120 0.447680 -0.591685
O32   O     O_R   0.000060 0.436880 0.552320 -0.591641
O33   O     O_R   0.000060 0.563120 0.552320 -0.591684
O34   O     O_R   0.936850 0.035670 0.936870 -0.597986
O35   O     O_R   0.999940 0.436880 0.447680 -0.591642
O36   O     O_R   0.563110 0.000000 0.510830 -0.590417
O37   O     O_R   0.436890 0.000000 0.489170 -0.590416
O38   O     O_R   0.063110 0.500000 0.510830 -0.590416
O39   O     O_R   0.936890 0.500000 0.489170 -0.590416
O40   O     O_R   0.563120 0.000000 0.615390 -0.592414
O41   O     O_R   0.436880 0.000000 0.384610 -0.592414
O42   O     O_R   0.063120 0.500000 0.615390 -0.592414
O43   O     O_R   0.936880 0.500000 0.384610 -0.592414
O44   O     O_3   0.922338 0.962734 0.612583 -0.529390
O45   O     O_R   0.436850 0.464330 0.936870 -0.605236
O46   O     O_3   0.064022 0.055244 0.372644 -0.520821
O47   O     O_3   0.077658 0.962728 0.387414 -0.529391
O48   O     O_3   0.935983 0.055249 0.627361 -0.520822
O49   O     O_3   0.422340 0.462730 0.612585 -0.529391
O50   O     O_3   0.564019 0.555246 0.372642 -0.520820
O51   O     O_3   0.577660 0.462730 0.387415 -0.529390
O52   O     O_3   0.435980 0.555246 0.627358 -0.520821
O53   O     O_R   0.563150 0.535670 0.063130 -0.597987
O54   O     O_R   0.563150 0.464330 0.063130 -0.605236
O55   O     O_R   0.436850 0.535670 0.936870 -0.597988
O56   O     O_R   0.999990 0.964330 0.907390 -0.636736
Zn1   Zn    Zn3+2 0.000000 0.952370 0.000000 0.977583
Zn2   Zn    Zn3+2 0.500030 0.000000 0.569830 0.971667
Zn3   Zn    Zn3+2 0.999970 0.500000 0.430170 0.971666
Zn4   Zn    Zn3+2 0.000030 0.500000 0.569830 0.971667
Zn5   Zn    Zn3+2 0.000000 0.047630 0.000000 1.012189
Zn6   Zn    Zn3+2 0.500000 0.452370 0.000000 0.977584
Zn7   Zn    Zn3+2 0.500000 0.547630 0.000000 1.012188
Zn8   Zn    Zn3+2 0.952370 0.000000 0.452390 0.953482
Zn9   Zn    Zn3+2 0.047630 0.000000 0.547610 0.953482
Zn10  Zn    Zn3+2 0.452370 0.500000 0.452390 0.953482
Zn11  Zn    Zn3+2 0.547630 0.500000 0.547610 0.953482
Zn12  Zn    Zn3+2 0.499970 0.000000 0.430170 0.971666

loop_
_geom_bond_atom_site_label_1
_geom_bond_atom_site_label_2
_ccdc_geom_bond_type
C2    C35   T    
C34   C118  T    
C109  O49   S    
C55   O21   A    
O36   Zn12  S    
O22   Zn9   S    
C11   H35   S    
C16   H44   S    
C57   C92   S    
C15   H43   S    
C72   C121  S    
O40   Zn2   S    
C60   O40   A    
C22   H61   S    
C35   C39   S    
C103  C120  S    
O2    Zn5   S    
C102  H67   S    
C50   O17   A    
C59   O35   A    
C62   O38   A    
C20   H55   S    
C18   O48   S    
C48   O13   A    
O14   Zn10  S    
C64   O39   A    
C128  H22   S    
C98   C119  S    
C99   H34   S    
C101  F6    S    
O21   Zn11  S    
C10   H33   S    
C99   C108  S    
O53   Zn7   S    
C23   H62   S    
C61   O37   A    
C26   C27   S    
C14   H39   S    
C72   O6    A    
C99   F4    S    
O34   Zn5   S    
C12   H38   S    
C28   C29   S    
C72   O7    A    
C58   C93   S    
C114  H11   S    
C27   H72   S    
C87   C91   T    
C3    C116  S    
C20   H54   S    
C8    O44   S    
C16   H46   S    
O9    Zn8   S    
C104  C122  S    
C112  O52   S    
C82   C87   S    
O25   Zn11  S    
C56   O27   A    
C23   H63   S    
C45   C62   S    
C37   C42   S    
C65   C73   T    
C105  C123  S    
C2    C85   S    
C18   C19   S    
C42   C46   T    
O10   Zn9   S    
C113  H9    S    
C57   O30   A    
C110  H6    S    
C102  F7    S    
C14   H40   S    
C8    H27   S    
O17   Zn10  S    
C110  O50   S    
O19   Zn9   S    
C25   C26   S    
C56   C91   S    
C55   C125  S    
C17   H49   S    
C16   C17   S    
C99   C117  S    
C106  C123  S    
C111  C125  S    
O41   Zn12  S    
C73   C78   S    
O7    Zn6   S    
C90   C94   T    
C98   C106  S    
C100  C120  S    
C59   C94   S    
C111  O51   S    
C21   H58   S    
C102  C121  S    
C49   C67   S    
C9    C10   S    
C4    C74   T    
C114  C119  S    
C111  H7    S    
C124  C128  S    
C31   H82   S    
C5    C85   T    
C33   H86   S    
C101  H56   S    
C83   C88   S    
C105  H2    S    
C106  O47   S    
C21   C22   S    
C115  H17   S    
C108  C122  S    
O27   Zn12  S    
C30   H77   S    
C22   H60   S    
C102  C111  S    
C62   O42   A    
O6    Zn7   S    
C49   O16   A    
O30   Zn12  S    
C31   O52   S    
O3    Zn1   S    
C50   C68   S    
C81   C83   T    
O55   Zn7   S    
C29   H75   S    
C47   O11   A    
C40   C45   T    
C74   C118  S    
C115  C120  S    
C95   H1    S    
C116  C121  S    
O32   Zn4   S    
C58   O33   A    
C32   H83   S    
C88   C92   T    
O45   Zn6   S    
C36   C40   S    
C51   O22   A    
C70   O3    A    
C114  H10   S    
C13   C36   T    
C80   C82   T    
C25   H66   S    
C86   C90   S    
C127  H19   S    
O24   Zn8   S    
C3    H25   S    
C10   H31   S    
C28   O51   S    
C113  C126  S    
C13   C96   S    
C28   H73   S    
C69   O56   A    
C30   H80   S    
C23   H64   S    
C18   H50   S    
C101  C121  S    
O39   Zn4   S    
C46   C64   S    
C103  C112  S    
C21   H59   S    
C54   O20   A    
C98   F3    S    
C26   H68   S    
C103  F8    S    
C25   O50   S    
C95   C117  S    
O28   Zn2   S    
C19   H52   S    
O33   Zn4   S    
O11   Zn9   S    
C17   H47   S    
C123  C127  S    
O38   Zn3   S    
C108  O48   S    
C70   C119  S    
C71   O8    A    
C7    C63   S    
C128  H26   S    
C24   C37   T    
C71   O5    A    
C55   O26   A    
C58   O31   A    
C63   O54   A    
C24   C107  S    
C53   O19   A    
C112  H8    S    
O56   Zn1   S    
C57   O28   A    
O35   Zn3   S    
C100  H45   S    
C15   O47   S    
C103  H78   S    
O18   Zn8   S    
C32   H84   S    
C43   C60   S    
C19   H53   S    
C52   O55   A    
C113  C117  S    
C33   H87   S    
O20   Zn10  S    
C70   O2    A    
O5    Zn6   S    
C61   O41   A    
C6    C96   T    
C52   O45   A    
C53   C123  S    
C3    H24   S    
C97   H12   S    
C7    C107  T    
C26   H69   S    
C76   C80   S    
C84   C89   S    
O8    Zn7   S    
O31   Zn3   S    
C69   O4    A    
C126  H18   S    
C20   H57   S    
C116  H16   S    
O29   Zn2   S    
C29   H76   S    
C108  H4    S    
C1    O34   A    
C31   H81   S    
C126  H21   S    
C1    O1    A    
C68   C77   T    
O16   Zn11  S    
C5    C41   S    
C50   O15   A    
O54   Zn6   S    
C113  H13   S    
C59   O32   A    
C34   C38   S    
C31   C32   S    
C63   O53   A    
C104  O44   S    
C12   C14   S    
C49   O14   A    
C64   O43   A    
C21   O49   S    
C127  H20   S    
C97   F2    S    
C11   C12   S    
C54   C124  S    
C109  C124  S    
C112  C124  S    
C39   C44   T    
O12   Zn5   S    
C41   O12   A    
C44   C61   S    
O43   Zn3   S    
C25   H65   S    
O26   Zn10  S    
C3    C125  S    
C9    H30   S    
C1    C4    S    
C48   C66   S    
C8    H28   S    
C27   H70   S    
C19   C20   S    
C9    H29   S    
C101  C110  S    
C53   O24   A    
C97   C105  S    
C38   C43   T    
O23   Zn1   S    
C32   C33   S    
C95   C104  S    
O42   Zn4   S    
C114  C127  S    
C17   H48   S    
C60   O36   A    
C106  H3    S    
C100  F5    S    
C75   C79   S    
C66   C75   T    
C115  H14   S    
C69   C117  S    
C97   C119  S    
C11   O46   S    
C54   O25   A    
C47   C65   S    
C122  C126  S    
O4    Zn5   S    
C27   H71   S    
C116  H15   S    
C89   C93   T    
C105  O46   S    
C48   O10   A    
C14   H41   S    
C71   C120  S    
C115  C128  S    
C110  C125  S    
C29   C30   S    
O37   Zn2   S    
C51   O18   A    
C78   C84   T    
C100  C109  S    
O15   Zn11  S    
C98   H23   S    
C10   H32   S    
C77   C81   S    
C18   H51   S    
C15   H42   S    
C11   H36   S    
C95   F1    S    
C51   C122  S    
C22   C23   S    
C109  H5    S    
C67   C76   T    
C8    C9    S    
C6    C52   S    
C56   O29   A    
O13   Zn8   S    
C28   H74   S    
O1    Zn1   S    
C104  H88   S    
C79   C86   T    
C41   O23   A    
C15   C16   S    
C30   H79   S    
C12   H37   S    
C47   O9    A    
C33   H85   S    
