data_mof_unit_20210.cif
_audit_creation_date              2012-12-10T17:05:22-0500
_audit_creation_method            fapswitch 2.2
_symmetry_space_group_name_H-M    P1
_symmetry_Int_Tables_number       1
_space_group_crystal_system       triclinic
_cell_length_a                    10.020209
_cell_length_b                    10.747841
_cell_length_c                    15.459504
_cell_angle_alpha                 90.013982
_cell_angle_beta                  67.790765
_cell_angle_gamma                 89.993816
_cell_volume                      1541.3996624

loop_
_atom_site_label
_atom_site_type_symbol
_atom_type_description
_atom_site_fract_x
_atom_site_fract_y
_atom_site_fract_z
_atom_type_partial_charge
C1    C     C_R   0.501681 0.737316 0.497300 0.930446
C2    C     C_R   0.705714 0.387264 0.043486 0.111493
C3    C     C_R   0.570936 0.444804 0.092766 -0.027818
C4    C     C_R   0.409755 0.497610 0.676154 0.864150
C5    C     C_R   0.806691 0.374086 0.085693 -0.228273
C6    C     C_R   0.773682 0.416125 0.176738 -0.293080
C7    C     C_R   0.551551 0.506300 0.176831 0.480933
C8    C     C_2   0.617541 0.067099 0.490257 -0.165249
C9    C     C_2   0.495711 0.130973 0.508131 -0.325947
C10   C     C_2   0.615331 0.933197 0.495747 -0.160539
C11   C     C_2   0.507726 0.868621 0.486550 -0.335852
C12   C     C_R   0.402970 0.441190 0.916586 0.091571
C13   C     C_2   0.111068 0.435740 0.440096 0.587834
C14   C     C_2   0.964792 0.454577 0.432452 -0.292845
C15   C     C_R   0.499308 0.262635 0.501356 0.929098
C16   C     C_R   0.590078 0.499442 0.323875 0.910922
C17   C     C_R   0.352685 0.484650 0.777690 -0.055644
C18   C     C_R   0.644385 0.480007 0.223113 -0.167044
C19   C     C_R   0.160628 0.501809 0.929763 -0.212476
C20   C     C_R   0.207674 0.507719 0.832687 -0.204279
C21   C     C_R   0.447686 0.448645 0.819663 -0.263128
C22   C     C_3   0.155400 0.252301 0.354226 -0.361748
C23   C     C_R   0.258219 0.472359 0.972147 0.181688
C24   C     C_3   0.496680 0.711184 0.180122 -0.328697
C25   C     C_R   0.502100 0.414273 0.959339 0.057499
C26   C     C_R   0.462610 0.443059 0.054839 0.074730
C27   C     C_R   0.315431 0.464049 0.109946 -0.151852
C28   C     C_R   0.214308 0.476894 0.069013 -0.292555
C29   C     C_R   0.639039 0.360504 0.910174 -0.230672
C30   C     C_R   0.737351 0.343658 0.952995 -0.208713
H1    H     H_    0.102945 0.495751 0.112951 0.155076
H2    H     H_    0.846798 0.395799 0.211592 0.172140
H3    H     H_    0.839871 0.299343 0.914299 0.146127
H4    H     H_    0.049625 0.524886 0.971603 0.150090
H5    H     H_    0.132236 0.534100 0.800948 0.156455
H6    H     H_    0.559137 0.433639 0.775610 0.157379
H7    H     H_    0.275768 0.467060 0.185322 0.221601
H8    H     H_    0.670110 0.325298 0.839880 0.143420
H9    H     H_    0.115559 0.273332 0.297847 0.156325
H10   H     H_    0.068711 0.210451 0.415991 0.152928
H11   H     H_    0.241571 0.181373 0.326416 0.197927
H12   H     H_    0.908224 0.326779 0.049809 0.156297
H13   H     H_    0.409046 0.780438 0.209683 0.196733
H14   H     H_    0.532701 0.715039 0.102622 0.166367
H15   H     H_    0.586277 0.738393 0.202226 0.152233
H16   H     H_    0.720874 0.113275 0.473170 0.168778
H17   H     H_    0.390230 0.087945 0.530419 0.149174
H18   H     H_    0.703982 0.887867 0.507469 0.174327
H19   H     H_    0.423412 0.910979 0.468605 0.150849
H20   H     H_    0.077848 0.564785 0.539092 0.095626
H21   H     H_    0.951802 0.425752 0.368914 0.173769
H22   H     H_    0.861782 0.515998 0.561925 0.155714
N1    N     N_2   0.148330 0.498670 0.499030 -0.220660
N2    N     N_2   0.852680 0.498640 0.499000 -0.205659
O1    O     O_R   0.386950 0.680940 0.500010 -0.619050
O2    O     O_3   0.442233 0.592638 0.214673 -0.605293
O3    O     O_R   0.613110 0.680900 0.499990 -0.605164
O4    O     O_R   0.322330 0.500030 0.632270 -0.623468
O5    O     O_R   0.548480 0.499990 0.632240 -0.617400
O6    O     O_R   0.386890 0.319100 0.500010 -0.584937
O7    O     O_R   0.613050 0.319060 0.499990 -0.613594
O8    O     O_R   0.451520 0.500010 0.367760 -0.509152
O9    O     O_R   0.677670 0.499970 0.367730 -0.629609
O10   O     O_3   0.215771 0.359496 0.377630 -0.554422
Zn1   Zn    Zn3+2 0.349000 0.500030 0.500020 0.995293
Zn2   Zn    Zn3+2 0.651000 0.499970 0.499980 0.929826

loop_
_geom_bond_atom_site_label_1
_geom_bond_atom_site_label_2
_ccdc_geom_bond_type
C29   H8    S    
C19   C23   A    
C5    H12   S    
C29   C30   A    
C11   H19   S    
C16   O9    A    
C1    O3    A    
C24   O2    S    
N1    Zn1   S    
C15   O6    A    
C12   C25   A    
O4    Zn1   S    
C3    C7    A    
C19   C20   A    
C30   H3    S    
O3    Zn2   S    
C2    C30   A    
C7    C18   A    
C22   H10   S    
C2    C3    A    
C15   O7    A    
O9    Zn2   S    
C21   H6    S    
C23   C28   A    
C10   H18   S    
C12   C23   A    
C26   C27   A    
H20   N1    S    
C13   O10   S    
C16   O8    A    
C7    O2    S    
C27   H7    S    
N2    Zn2   S    
C24   H15   S    
C12   C21   A    
C4    O5    A    
C8    C10   S    
C14   N2    D    
H22   N2    S    
O6    Zn1   S    
C9    H17   S    
C13   N1    D    
C3    C26   A    
O5    Zn2   S    
C25   C29   A    
C5    C6    A    
C24   H14   S    
C6    C18   A    
C8    H16   S    
C1    O1    A    
C22   H11   S    
C10   C11   D    
C22   H9    S    
C22   O10   S    
C2    C5    A    
C17   C20   A    
C16   C18   S    
C6    H2    S    
C4    O4    A    
C27   C28   A    
C24   H13   S    
C1    C11   S    
O8    Zn1   S    
O1    Zn1   S    
C25   C26   A    
C13   C14   S    
C20   H5    S    
O7    Zn2   S    
C28   H1    S    
C17   C21   A    
C14   H21   S    
C9    C15   S    
C8    C9    D    
C19   H4    S    
C4    C17   S    
